MODEL 1
REMARK VINA RESULT:    -8.572      0.000      0.000
REMARK INTER + INTRA:         -13.191
REMARK INTER:                 -12.080
REMARK INTRA:                  -1.111
REMARK UNBOUND:                -1.111
REMARK  Name = 
REMARK  8 active torsions:
REMARK  status: ('A' for Active; 'I' for Inactive)
REMARK    1  A    between atoms: C_1  and  C_2
REMARK    2  A    between atoms: C_2  and  C_3
REMARK    3  A    between atoms: C_3  and  N_4
REMARK    4  A    between atoms: C_3  and  C_17
REMARK    5  A    between atoms: C_5  and  C_7
REMARK    6  A    between atoms: C_20  and  O_21
REMARK    7  A    between atoms: O_21  and  C_22
REMARK    8  A    between atoms: C_22  and  C_23
REMARK                            x       y       z     vdW  Elec       q    Type
REMARK                         _______ _______ _______ _____ _____    ______ ____
ROOT
ATOM      1  C   UNL     1      46.567   7.828  12.781  0.00  0.00    +0.000 C 
ENDROOT
BRANCH   1   2
ATOM      2  C   UNL     1      45.939   6.630  12.085  0.00  0.00    +0.000 A 
ATOM      3  C   UNL     1      46.210   6.353  10.740  0.00  0.00    +0.000 A 
ATOM      4  C   UNL     1      45.684   5.207  10.137  0.00  0.00    +0.000 A 
ATOM      5  C   UNL     1      44.902   4.316  10.873  0.00  0.00    +0.000 A 
ATOM      6  C   UNL     1      44.580   4.615  12.196  0.00  0.00    +0.000 A 
ATOM      7  C   UNL     1      45.105   5.753  12.799  0.00  0.00    +0.000 A 
BRANCH   5   8
ATOM      8  O   UNL     1      44.511   3.175  10.223  0.00  0.00    +0.000 OA
BRANCH   8   9
ATOM      9  C   UNL     1      44.385   3.323   8.802  0.00  0.00    +0.000 C 
BRANCH   9  10
ATOM     10  C   UNL     1      45.535   2.674   8.069  0.00  0.00    +0.000 A 
ATOM     11  C   UNL     1      46.208   3.338   7.049  0.00  0.00    +0.000 A 
ATOM     12  C   UNL     1      47.247   2.682   6.394  0.00  0.00    +0.000 A 
ATOM     13  C   UNL     1      47.573   1.382   6.760  0.00  0.00    +0.000 A 
ATOM     14  C   UNL     1      46.842   0.783   7.769  0.00  0.00    +0.000 A 
ATOM     15  N   UNL     1      45.831   1.394   8.425  0.00  0.00    +0.000 NA
ENDBRANCH   9  10
ENDBRANCH   8   9
ENDBRANCH   5   8
ENDBRANCH   1   2
BRANCH   1  16
ATOM     16  N   UNL     1      47.106   7.372  14.054  0.00  0.00    +0.000 N 
ATOM     17  C   UNL     1      48.267   6.667  14.204  0.00  0.00    +0.000 C 
ATOM     18  O   UNL     1      48.998   6.384  13.260  0.00  0.00    +0.000 OA
ATOM     19  H   UNL     1      46.483   7.449  14.849  0.00  0.00    +0.000 HD
BRANCH  17  20
ATOM     20  C   UNL     1      48.617   6.314  15.591  0.00  0.00    +0.000 A 
ATOM     21  C   UNL     1      49.419   7.159  16.343  0.00  0.00    +0.000 A 
ATOM     22  S   UNL     1      49.684   6.611  17.938  0.00  0.00    +0.000 S 
ATOM     23  C   UNL     1      48.777   5.196  17.665  0.00  0.00    +0.000 A 
ATOM     24  N   UNL     1      48.626   4.258  18.640  0.00  0.00    +0.000 NA
ATOM     25  C   UNL     1      47.952   3.218  18.281  0.00  0.00    +0.000 A 
ATOM     26  N   UNL     1      47.402   3.032  17.041  0.00  0.00    +0.000 N 
ATOM     27  C   UNL     1      47.471   3.981  16.052  0.00  0.00    +0.000 A 
ATOM     28  O   UNL     1      46.864   3.835  14.997  0.00  0.00    +0.000 OA
ATOM     29  C   UNL     1      48.257   5.155  16.384  0.00  0.00    +0.000 A 
ATOM     30  H   UNL     1      46.858   2.208  16.829  0.00  0.00    +0.000 HD
ENDBRANCH  17  20
ENDBRANCH   1  16
BRANCH   1  32
ATOM     31  C   UNL     1      45.231   9.734  11.722  0.00  0.00    +0.000 C 
ATOM     32  C   UNL     1      45.544   8.960  12.998  0.00  0.00    +0.000 C 
ENDBRANCH   1  32
TORSDOF 7
ENDMDL
MODEL 2
REMARK VINA RESULT:    -8.129      1.648      2.031
REMARK INTER + INTRA:         -12.566
REMARK INTER:                 -11.366
REMARK INTRA:                  -1.200
REMARK UNBOUND:                -1.111
REMARK  Name = 
REMARK  8 active torsions:
REMARK  status: ('A' for Active; 'I' for Inactive)
REMARK    1  A    between atoms: C_1  and  C_2
REMARK    2  A    between atoms: C_2  and  C_3
REMARK    3  A    between atoms: C_3  and  N_4
REMARK    4  A    between atoms: C_3  and  C_17
REMARK    5  A    between atoms: C_5  and  C_7
REMARK    6  A    between atoms: C_20  and  O_21
REMARK    7  A    between atoms: O_21  and  C_22
REMARK    8  A    between atoms: C_22  and  C_23
REMARK                            x       y       z     vdW  Elec       q    Type
REMARK                         _______ _______ _______ _____ _____    ______ ____
ROOT
ATOM      1  C   UNL     1      48.093   7.150  13.298  0.00  0.00    +0.000 C 
ENDROOT
BRANCH   1   2
ATOM      2  C   UNL     1      47.013   6.242  12.728  0.00  0.00    +0.000 A 
ATOM      3  C   UNL     1      46.268   6.623  11.605  0.00  0.00    +0.000 A 
ATOM      4  C   UNL     1      45.331   5.745  11.051  0.00  0.00    +0.000 A 
ATOM      5  C   UNL     1      45.144   4.474  11.596  0.00  0.00    +0.000 A 
ATOM      6  C   UNL     1      45.839   4.111  12.747  0.00  0.00    +0.000 A 
ATOM      7  C   UNL     1      46.774   4.980  13.299  0.00  0.00    +0.000 A 
BRANCH   5   8
ATOM      8  O   UNL     1      44.275   3.653  10.927  0.00  0.00    +0.000 OA
BRANCH   8   9
ATOM      9  C   UNL     1      44.101   3.982   9.543  0.00  0.00    +0.000 C 
BRANCH   9  10
ATOM     10  C   UNL     1      45.135   3.307   8.674  0.00  0.00    +0.000 A 
ATOM     11  C   UNL     1      45.462   1.966   8.850  0.00  0.00    +0.000 A 
ATOM     12  C   UNL     1      46.438   1.402   8.033  0.00  0.00    +0.000 A 
ATOM     13  C   UNL     1      47.071   2.190   7.079  0.00  0.00    +0.000 A 
ATOM     14  C   UNL     1      46.705   3.519   6.982  0.00  0.00    +0.000 A 
ATOM     15  N   UNL     1      45.760   4.095   7.757  0.00  0.00    +0.000 NA
ENDBRANCH   9  10
ENDBRANCH   8   9
ENDBRANCH   5   8
ENDBRANCH   1   2
BRANCH   1  16
ATOM     16  N   UNL     1      48.008   7.085  14.749  0.00  0.00    +0.000 N 
ATOM     17  C   UNL     1      49.064   6.852  15.585  0.00  0.00    +0.000 C 
ATOM     18  O   UNL     1      50.213   6.715  15.178  0.00  0.00    +0.000 OA
ATOM     19  H   UNL     1      47.072   7.049  15.134  0.00  0.00    +0.000 HD
BRANCH  17  20
ATOM     20  C   UNL     1      48.740   6.833  17.022  0.00  0.00    +0.000 A 
ATOM     21  C   UNL     1      48.364   8.003  17.665  0.00  0.00    +0.000 A 
ATOM     22  S   UNL     1      47.986   7.784  19.316  0.00  0.00    +0.000 S 
ATOM     23  C   UNL     1      48.361   6.125  19.242  0.00  0.00    +0.000 A 
ATOM     24  N   UNL     1      48.274   5.334  20.347  0.00  0.00    +0.000 NA
ATOM     25  C   UNL     1      48.630   4.108  20.157  0.00  0.00    +0.000 A 
ATOM     26  N   UNL     1      49.054   3.594  18.960  0.00  0.00    +0.000 N 
ATOM     27  C   UNL     1      49.091   4.338  17.807  0.00  0.00    +0.000 A 
ATOM     28  O   UNL     1      49.358   3.816  16.730  0.00  0.00    +0.000 OA
ATOM     29  C   UNL     1      48.744   5.738  17.970  0.00  0.00    +0.000 A 
ATOM     30  H   UNL     1      49.292   2.617  18.866  0.00  0.00    +0.000 HD
ENDBRANCH  17  20
ENDBRANCH   1  16
BRANCH   1  32
ATOM     31  C   UNL     1      49.138   9.104  12.022  0.00  0.00    +0.000 C 
ATOM     32  C   UNL     1      47.931   8.602  12.807  0.00  0.00    +0.000 C 
ENDBRANCH   1  32
TORSDOF 7
ENDMDL
MODEL 3
REMARK VINA RESULT:    -8.125      1.765      2.315
REMARK INTER + INTRA:         -12.561
REMARK INTER:                 -11.447
REMARK INTRA:                  -1.114
REMARK UNBOUND:                -1.111
REMARK  Name = 
REMARK  8 active torsions:
REMARK  status: ('A' for Active; 'I' for Inactive)
REMARK    1  A    between atoms: C_1  and  C_2
REMARK    2  A    between atoms: C_2  and  C_3
REMARK    3  A    between atoms: C_3  and  N_4
REMARK    4  A    between atoms: C_3  and  C_17
REMARK    5  A    between atoms: C_5  and  C_7
REMARK    6  A    between atoms: C_20  and  O_21
REMARK    7  A    between atoms: O_21  and  C_22
REMARK    8  A    between atoms: C_22  and  C_23
REMARK                            x       y       z     vdW  Elec       q    Type
REMARK                         _______ _______ _______ _____ _____    ______ ____
ROOT
ATOM      1  C   UNL     1      47.379   6.653  13.288  0.00  0.00    +0.000 C 
ENDROOT
BRANCH   1   2
ATOM      2  C   UNL     1      46.414   5.832  12.445  0.00  0.00    +0.000 A 
ATOM      3  C   UNL     1      45.968   6.297  11.201  0.00  0.00    +0.000 A 
ATOM      4  C   UNL     1      45.140   5.498  10.407  0.00  0.00    +0.000 A 
ATOM      5  C   UNL     1      44.767   4.222  10.834  0.00  0.00    +0.000 A 
ATOM      6  C   UNL     1      45.159   3.778  12.096  0.00  0.00    +0.000 A 
ATOM      7  C   UNL     1      45.985   4.569  12.886  0.00  0.00    +0.000 A 
BRANCH   5   8
ATOM      8  O   UNL     1      44.034   3.479   9.947  0.00  0.00    +0.000 OA
BRANCH   8   9
ATOM      9  C   UNL     1      44.585   2.187   9.665  0.00  0.00    +0.000 C 
BRANCH   9  10
ATOM     10  C   UNL     1      45.530   2.227   8.489  0.00  0.00    +0.000 A 
ATOM     11  C   UNL     1      45.553   3.311   7.616  0.00  0.00    +0.000 A 
ATOM     12  C   UNL     1      46.431   3.283   6.536  0.00  0.00    +0.000 A 
ATOM     13  C   UNL     1      47.246   2.173   6.346  0.00  0.00    +0.000 A 
ATOM     14  C   UNL     1      47.148   1.128   7.245  0.00  0.00    +0.000 A 
ATOM     15  N   UNL     1      46.309   1.126   8.303  0.00  0.00    +0.000 NA
ENDBRANCH   9  10
ENDBRANCH   8   9
ENDBRANCH   5   8
ENDBRANCH   1   2
BRANCH   1  16
ATOM     16  N   UNL     1      47.477   6.019  14.595  0.00  0.00    +0.000 N 
ATOM     17  C   UNL     1      48.585   6.042  15.394  0.00  0.00    +0.000 C 
ATOM     18  O   UNL     1      49.608   6.648  15.092  0.00  0.00    +0.000 OA
ATOM     19  H   UNL     1      46.722   5.389  14.836  0.00  0.00    +0.000 HD
BRANCH  17  20
ATOM     20  C   UNL     1      48.452   5.333  16.678  0.00  0.00    +0.000 A 
ATOM     21  C   UNL     1      48.289   3.956  16.699  0.00  0.00    +0.000 A 
ATOM     22  S   UNL     1      48.196   3.302  18.273  0.00  0.00    +0.000 S 
ATOM     23  C   UNL     1      48.317   4.844  18.984  0.00  0.00    +0.000 A 
ATOM     24  N   UNL     1      48.274   5.000  20.336  0.00  0.00    +0.000 NA
ATOM     25  C   UNL     1      48.333   6.226  20.734  0.00  0.00    +0.000 A 
ATOM     26  N   UNL     1      48.443   7.313  19.907  0.00  0.00    +0.000 N 
ATOM     27  C   UNL     1      48.560   7.196  18.545  0.00  0.00    +0.000 A 
ATOM     28  O   UNL     1      48.780   8.179  17.846  0.00  0.00    +0.000 OA
ATOM     29  C   UNL     1      48.454   5.841  18.035  0.00  0.00    +0.000 A 
ATOM     30  H   UNL     1      48.515   8.248  20.280  0.00  0.00    +0.000 HD
ENDBRANCH  17  20
ENDBRANCH   1  16
BRANCH   1  32
ATOM     31  C   UNL     1      47.952   9.121  12.943  0.00  0.00    +0.000 C 
ATOM     32  C   UNL     1      46.912   8.116  13.425  0.00  0.00    +0.000 C 
ENDBRANCH   1  32
TORSDOF 7
ENDMDL
MODEL 4
REMARK VINA RESULT:    -7.701      2.480      3.224
REMARK INTER + INTRA:         -11.963
REMARK INTER:                 -10.571
REMARK INTRA:                  -1.392
REMARK UNBOUND:                -1.111
REMARK  Name = 
REMARK  8 active torsions:
REMARK  status: ('A' for Active; 'I' for Inactive)
REMARK    1  A    between atoms: C_1  and  C_2
REMARK    2  A    between atoms: C_2  and  C_3
REMARK    3  A    between atoms: C_3  and  N_4
REMARK    4  A    between atoms: C_3  and  C_17
REMARK    5  A    between atoms: C_5  and  C_7
REMARK    6  A    between atoms: C_20  and  O_21
REMARK    7  A    between atoms: O_21  and  C_22
REMARK    8  A    between atoms: C_22  and  C_23
REMARK                            x       y       z     vdW  Elec       q    Type
REMARK                         _______ _______ _______ _____ _____    ______ ____
ROOT
ATOM      1  C   UNL     1      48.266   7.095  13.838  0.00  0.00    +0.000 C 
ENDROOT
BRANCH   1   2
ATOM      2  C   UNL     1      47.150   6.288  13.188  0.00  0.00    +0.000 A 
ATOM      3  C   UNL     1      46.548   6.717  11.999  0.00  0.00    +0.000 A 
ATOM      4  C   UNL     1      45.577   5.927  11.377  0.00  0.00    +0.000 A 
ATOM      5  C   UNL     1      45.213   4.694  11.922  0.00  0.00    +0.000 A 
ATOM      6  C   UNL     1      45.765   4.289  13.136  0.00  0.00    +0.000 A 
ATOM      7  C   UNL     1      46.734   5.072  13.754  0.00  0.00    +0.000 A 
BRANCH   5   8
ATOM      8  O   UNL     1      44.324   3.951  11.192  0.00  0.00    +0.000 OA
BRANCH   8   9
ATOM      9  C   UNL     1      44.192   4.366   9.826  0.00  0.00    +0.000 C 
BRANCH   9  10
ATOM     10  C   UNL     1      45.104   3.581   8.914  0.00  0.00    +0.000 A 
ATOM     11  C   UNL     1      45.263   2.207   9.058  0.00  0.00    +0.000 A 
ATOM     12  C   UNL     1      46.134   1.539   8.200  0.00  0.00    +0.000 A 
ATOM     13  C   UNL     1      46.834   2.260   7.240  0.00  0.00    +0.000 A 
ATOM     14  C   UNL     1      46.638   3.626   7.176  0.00  0.00    +0.000 A 
ATOM     15  N   UNL     1      45.798   4.302   7.990  0.00  0.00    +0.000 NA
ENDBRANCH   9  10
ENDBRANCH   8   9
ENDBRANCH   5   8
ENDBRANCH   1   2
BRANCH   1  16
ATOM     16  N   UNL     1      48.114   6.982  15.281  0.00  0.00    +0.000 N 
ATOM     17  C   UNL     1      49.093   6.570  16.140  0.00  0.00    +0.000 C 
ATOM     18  O   UNL     1      50.228   6.291  15.767  0.00  0.00    +0.000 OA
ATOM     19  H   UNL     1      47.167   7.060  15.631  0.00  0.00    +0.000 HD
BRANCH  17  20
ATOM     20  C   UNL     1      48.712   6.536  17.563  0.00  0.00    +0.000 A 
ATOM     21  C   UNL     1      48.828   5.358  18.286  0.00  0.00    +0.000 A 
ATOM     22  S   UNL     1      48.383   5.517  19.926  0.00  0.00    +0.000 S 
ATOM     23  C   UNL     1      47.968   7.155  19.717  0.00  0.00    +0.000 A 
ATOM     24  N   UNL     1      47.477   7.894  20.749  0.00  0.00    +0.000 NA
ATOM     25  C   UNL     1      47.164   9.106  20.437  0.00  0.00    +0.000 A 
ATOM     26  N   UNL     1      47.308   9.654  19.190  0.00  0.00    +0.000 N 
ATOM     27  C   UNL     1      47.862   8.967  18.140  0.00  0.00    +0.000 A 
ATOM     28  O   UNL     1      48.088   9.526  17.072  0.00  0.00    +0.000 OA
ATOM     29  C   UNL     1      48.192   7.581  18.420  0.00  0.00    +0.000 A 
ATOM     30  H   UNL     1      47.073  10.621  19.014  0.00  0.00    +0.000 HD
ENDBRANCH  17  20
ENDBRANCH   1  16
BRANCH   1  32
ATOM     31  C   UNL     1      49.571   9.276  13.557  0.00  0.00    +0.000 C 
ATOM     32  C   UNL     1      48.228   8.572  13.399  0.00  0.00    +0.000 C 
ENDBRANCH   1  32
TORSDOF 7
ENDMDL
MODEL 5
REMARK VINA RESULT:    -7.245      2.626      4.438
REMARK INTER + INTRA:         -11.321
REMARK INTER:                 -10.058
REMARK INTRA:                  -1.263
REMARK UNBOUND:                -1.111
REMARK  Name = 
REMARK  8 active torsions:
REMARK  status: ('A' for Active; 'I' for Inactive)
REMARK    1  A    between atoms: C_1  and  C_2
REMARK    2  A    between atoms: C_2  and  C_3
REMARK    3  A    between atoms: C_3  and  N_4
REMARK    4  A    between atoms: C_3  and  C_17
REMARK    5  A    between atoms: C_5  and  C_7
REMARK    6  A    between atoms: C_20  and  O_21
REMARK    7  A    between atoms: O_21  and  C_22
REMARK    8  A    between atoms: C_22  and  C_23
REMARK                            x       y       z     vdW  Elec       q    Type
REMARK                         _______ _______ _______ _____ _____    ______ ____
ROOT
ATOM      1  C   UNL     1      47.089   5.620  14.554  0.00  0.00    +0.000 C 
ENDROOT
BRANCH   1   2
ATOM      2  C   UNL     1      46.469   5.265  13.211  0.00  0.00    +0.000 A 
ATOM      3  C   UNL     1      45.911   4.001  12.985  0.00  0.00    +0.000 A 
ATOM      4  C   UNL     1      45.280   3.716  11.771  0.00  0.00    +0.000 A 
ATOM      5  C   UNL     1      45.180   4.694  10.779  0.00  0.00    +0.000 A 
ATOM      6  C   UNL     1      45.784   5.935  10.974  0.00  0.00    +0.000 A 
ATOM      7  C   UNL     1      46.410   6.221  12.183  0.00  0.00    +0.000 A 
BRANCH   5   8
ATOM      8  O   UNL     1      44.462   4.352   9.664  0.00  0.00    +0.000 OA
BRANCH   8   9
ATOM      9  C   UNL     1      44.460   2.948   9.374  0.00  0.00    +0.000 C 
BRANCH   9  10
ATOM     10  C   UNL     1      45.509   2.588   8.350  0.00  0.00    +0.000 A 
ATOM     11  C   UNL     1      45.864   3.473   7.337  0.00  0.00    +0.000 A 
ATOM     12  C   UNL     1      46.823   3.078   6.407  0.00  0.00    +0.000 A 
ATOM     13  C   UNL     1      47.385   1.811   6.501  0.00  0.00    +0.000 A 
ATOM     14  C   UNL     1      46.962   0.982   7.523  0.00  0.00    +0.000 A 
ATOM     15  N   UNL     1      46.037   1.337   8.442  0.00  0.00    +0.000 NA
ENDBRANCH   9  10
ENDBRANCH   8   9
ENDBRANCH   5   8
ENDBRANCH   1   2
BRANCH   1  16
ATOM     16  N   UNL     1      48.398   6.204  14.300  0.00  0.00    +0.000 N 
ATOM     17  C   UNL     1      48.742   7.499  14.566  0.00  0.00    +0.000 C 
ATOM     18  O   UNL     1      47.972   8.295  15.094  0.00  0.00    +0.000 OA
ATOM     19  H   UNL     1      49.028   5.643  13.739  0.00  0.00    +0.000 HD
BRANCH  17  20
ATOM     20  C   UNL     1      50.127   7.867  14.227  0.00  0.00    +0.000 A 
ATOM     21  C   UNL     1      51.066   8.045  15.232  0.00  0.00    +0.000 A 
ATOM     22  S   UNL     1      52.625   8.426  14.653  0.00  0.00    +0.000 S 
ATOM     23  C   UNL     1      52.091   8.417  13.036  0.00  0.00    +0.000 A 
ATOM     24  N   UNL     1      52.942   8.700  12.012  0.00  0.00    +0.000 NA
ATOM     25  C   UNL     1      52.393   8.701  10.845  0.00  0.00    +0.000 A 
ATOM     26  N   UNL     1      51.071   8.432  10.603  0.00  0.00    +0.000 N 
ATOM     27  C   UNL     1      50.195   8.075  11.596  0.00  0.00    +0.000 A 
ATOM     28  O   UNL     1      49.051   7.723  11.330  0.00  0.00    +0.000 OA
ATOM     29  C   UNL     1      50.748   8.103  12.939  0.00  0.00    +0.000 A 
ATOM     30  H   UNL     1      50.705   8.418   9.662  0.00  0.00    +0.000 HD
ENDBRANCH  17  20
ENDBRANCH   1  16
BRANCH   1  32
ATOM     31  C   UNL     1      48.026   4.653  16.728  0.00  0.00    +0.000 C 
ATOM     32  C   UNL     1      47.211   4.385  15.468  0.00  0.00    +0.000 C 
ENDBRANCH   1  32
TORSDOF 7
ENDMDL
MODEL 6
REMARK VINA RESULT:    -7.051      3.360      7.883
REMARK INTER + INTRA:         -11.047
REMARK INTER:                  -9.722
REMARK INTRA:                  -1.325
REMARK UNBOUND:                -1.111
REMARK  Name = 
REMARK  8 active torsions:
REMARK  status: ('A' for Active; 'I' for Inactive)
REMARK    1  A    between atoms: C_1  and  C_2
REMARK    2  A    between atoms: C_2  and  C_3
REMARK    3  A    between atoms: C_3  and  N_4
REMARK    4  A    between atoms: C_3  and  C_17
REMARK    5  A    between atoms: C_5  and  C_7
REMARK    6  A    between atoms: C_20  and  O_21
REMARK    7  A    between atoms: O_21  and  C_22
REMARK    8  A    between atoms: C_22  and  C_23
REMARK                            x       y       z     vdW  Elec       q    Type
REMARK                         _______ _______ _______ _____ _____    ______ ____
ROOT
ATOM      1  C   UNL     1      48.021   7.224  13.255  0.00  0.00    +0.000 C 
ENDROOT
BRANCH   1   2
ATOM      2  C   UNL     1      48.300   6.525  14.578  0.00  0.00    +0.000 A 
ATOM      3  C   UNL     1      47.572   5.392  14.962  0.00  0.00    +0.000 A 
ATOM      4  C   UNL     1      47.892   4.718  16.145  0.00  0.00    +0.000 A 
ATOM      5  C   UNL     1      48.951   5.154  16.943  0.00  0.00    +0.000 A 
ATOM      6  C   UNL     1      49.641   6.315  16.597  0.00  0.00    +0.000 A 
ATOM      7  C   UNL     1      49.327   6.984  15.419  0.00  0.00    +0.000 A 
BRANCH   5   8
ATOM      8  O   UNL     1      49.247   4.376  18.031  0.00  0.00    +0.000 OA
BRANCH   8   9
ATOM      9  C   UNL     1      49.427   2.986  17.728  0.00  0.00    +0.000 C 
BRANCH   9  10
ATOM     10  C   UNL     1      50.885   2.593  17.751  0.00  0.00    +0.000 A 
ATOM     11  C   UNL     1      51.292   1.307  17.412  0.00  0.00    +0.000 A 
ATOM     12  C   UNL     1      52.648   0.996  17.472  0.00  0.00    +0.000 A 
ATOM     13  C   UNL     1      53.555   1.966  17.885  0.00  0.00    +0.000 A 
ATOM     14  C   UNL     1      53.067   3.214  18.226  0.00  0.00    +0.000 A 
ATOM     15  N   UNL     1      51.759   3.546  18.175  0.00  0.00    +0.000 NA
ENDBRANCH   9  10
ENDBRANCH   8   9
ENDBRANCH   5   8
ENDBRANCH   1   2
BRANCH   1  16
ATOM     16  N   UNL     1      47.285   6.297  12.408  0.00  0.00    +0.000 N 
ATOM     17  C   UNL     1      46.204   6.627  11.641  0.00  0.00    +0.000 C 
ATOM     18  O   UNL     1      45.771   7.772  11.564  0.00  0.00    +0.000 OA
ATOM     19  H   UNL     1      47.503   5.316  12.537  0.00  0.00    +0.000 HD
BRANCH  17  20
ATOM     20  C   UNL     1      45.621   5.521  10.862  0.00  0.00    +0.000 A 
ATOM     21  C   UNL     1      45.739   5.507   9.480  0.00  0.00    +0.000 A 
ATOM     22  S   UNL     1      45.042   4.131   8.748  0.00  0.00    +0.000 S 
ATOM     23  C   UNL     1      44.512   3.529  10.250  0.00  0.00    +0.000 A 
ATOM     24  N   UNL     1      43.806   2.368  10.333  0.00  0.00    +0.000 NA
ATOM     25  C   UNL     1      43.431   2.054  11.527  0.00  0.00    +0.000 A 
ATOM     26  N   UNL     1      43.706   2.788  12.651  0.00  0.00    +0.000 N 
ATOM     27  C   UNL     1      44.471   3.926  12.622  0.00  0.00    +0.000 A 
ATOM     28  O   UNL     1      44.800   4.490  13.660  0.00  0.00    +0.000 OA
ATOM     29  C   UNL     1      44.884   4.353  11.297  0.00  0.00    +0.000 A 
ATOM     30  H   UNL     1      43.410   2.475  13.564  0.00  0.00    +0.000 HD
ENDBRANCH  17  20
ENDBRANCH   1  16
BRANCH   1  32
ATOM     31  C   UNL     1      49.154   8.955  11.751  0.00  0.00    +0.000 C 
ATOM     32  C   UNL     1      49.323   7.677  12.566  0.00  0.00    +0.000 C 
ENDBRANCH   1  32
TORSDOF 7
ENDMDL
MODEL 7
REMARK VINA RESULT:    -6.950      2.774      7.909
REMARK INTER + INTRA:         -10.905
REMARK INTER:                  -9.613
REMARK INTRA:                  -1.291
REMARK UNBOUND:                -1.111
REMARK  Name = 
REMARK  8 active torsions:
REMARK  status: ('A' for Active; 'I' for Inactive)
REMARK    1  A    between atoms: C_1  and  C_2
REMARK    2  A    between atoms: C_2  and  C_3
REMARK    3  A    between atoms: C_3  and  N_4
REMARK    4  A    between atoms: C_3  and  C_17
REMARK    5  A    between atoms: C_5  and  C_7
REMARK    6  A    between atoms: C_20  and  O_21
REMARK    7  A    between atoms: O_21  and  C_22
REMARK    8  A    between atoms: C_22  and  C_23
REMARK                            x       y       z     vdW  Elec       q    Type
REMARK                         _______ _______ _______ _____ _____    ______ ____
ROOT
ATOM      1  C   UNL     1      47.780   7.967  12.456  0.00  0.00    +0.000 C 
ENDROOT
BRANCH   1   2
ATOM      2  C   UNL     1      48.330   7.917  13.874  0.00  0.00    +0.000 A 
ATOM      3  C   UNL     1      47.837   8.769  14.870  0.00  0.00    +0.000 A 
ATOM      4  C   UNL     1      48.302   8.658  16.184  0.00  0.00    +0.000 A 
ATOM      5  C   UNL     1      49.245   7.686  16.522  0.00  0.00    +0.000 A 
ATOM      6  C   UNL     1      49.783   6.875  15.525  0.00  0.00    +0.000 A 
ATOM      7  C   UNL     1      49.320   6.981  14.217  0.00  0.00    +0.000 A 
BRANCH   5   8
ATOM      8  O   UNL     1      49.567   7.594  17.850  0.00  0.00    +0.000 OA
BRANCH   8   9
ATOM      9  C   UNL     1      48.595   6.902  18.645  0.00  0.00    +0.000 C 
BRANCH   9  10
ATOM     10  C   UNL     1      48.475   5.452  18.242  0.00  0.00    +0.000 A 
ATOM     11  C   UNL     1      49.566   4.592  18.302  0.00  0.00    +0.000 A 
ATOM     12  C   UNL     1      49.400   3.269  17.898  0.00  0.00    +0.000 A 
ATOM     13  C   UNL     1      48.162   2.848  17.429  0.00  0.00    +0.000 A 
ATOM     14  C   UNL     1      47.133   3.770  17.380  0.00  0.00    +0.000 A 
ATOM     15  N   UNL     1      47.262   5.057  17.768  0.00  0.00    +0.000 NA
ENDBRANCH   9  10
ENDBRANCH   8   9
ENDBRANCH   5   8
ENDBRANCH   1   2
BRANCH   1  16
ATOM     16  N   UNL     1      46.954   6.785  12.258  0.00  0.00    +0.000 N 
ATOM     17  C   UNL     1      45.671   6.797  11.787  0.00  0.00    +0.000 C 
ATOM     18  O   UNL     1      45.101   7.827  11.442  0.00  0.00    +0.000 OA
ATOM     19  H   UNL     1      47.313   5.926  12.655  0.00  0.00    +0.000 HD
BRANCH  17  20
ATOM     20  C   UNL     1      45.031   5.476  11.666  0.00  0.00    +0.000 A 
ATOM     21  C   UNL     1      44.343   4.935  12.742  0.00  0.00    +0.000 A 
ATOM     22  S   UNL     1      43.630   3.421  12.407  0.00  0.00    +0.000 S 
ATOM     23  C   UNL     1      44.260   3.409  10.824  0.00  0.00    +0.000 A 
ATOM     24  N   UNL     1      44.041   2.357   9.988  0.00  0.00    +0.000 NA
ATOM     25  C   UNL     1      44.613   2.462   8.836  0.00  0.00    +0.000 A 
ATOM     26  N   UNL     1      45.376   3.528   8.436  0.00  0.00    +0.000 N 
ATOM     27  C   UNL     1      45.565   4.637   9.221  0.00  0.00    +0.000 A 
ATOM     28  O   UNL     1      46.150   5.623   8.785  0.00  0.00    +0.000 OA
ATOM     29  C   UNL     1      44.981   4.556  10.548  0.00  0.00    +0.000 A 
ATOM     30  H   UNL     1      45.774   3.566   7.509  0.00  0.00    +0.000 HD
ENDBRANCH  17  20
ENDBRANCH   1  16
BRANCH   1  32
ATOM     31  C   UNL     1      49.693   9.332  11.448  0.00  0.00    +0.000 C 
ATOM     32  C   UNL     1      48.910   8.025  11.410  0.00  0.00    +0.000 C 
ENDBRANCH   1  32
TORSDOF 7
ENDMDL
MODEL 8
REMARK VINA RESULT:    -6.624      4.592      8.463
REMARK INTER + INTRA:         -10.445
REMARK INTER:                  -9.793
REMARK INTRA:                  -0.652
REMARK UNBOUND:                -1.111
REMARK  Name = 
REMARK  8 active torsions:
REMARK  status: ('A' for Active; 'I' for Inactive)
REMARK    1  A    between atoms: C_1  and  C_2
REMARK    2  A    between atoms: C_2  and  C_3
REMARK    3  A    between atoms: C_3  and  N_4
REMARK    4  A    between atoms: C_3  and  C_17
REMARK    5  A    between atoms: C_5  and  C_7
REMARK    6  A    between atoms: C_20  and  O_21
REMARK    7  A    between atoms: O_21  and  C_22
REMARK    8  A    between atoms: C_22  and  C_23
REMARK                            x       y       z     vdW  Elec       q    Type
REMARK                         _______ _______ _______ _____ _____    ______ ____
ROOT
ATOM      1  C   UNL     1      48.564   5.762  17.532  0.00  0.00    +0.000 C 
ENDROOT
BRANCH   1   2
ATOM      2  C   UNL     1      49.437   4.516  17.517  0.00  0.00    +0.000 A 
ATOM      3  C   UNL     1      48.888   3.253  17.268  0.00  0.00    +0.000 A 
ATOM      4  C   UNL     1      49.715   2.129  17.184  0.00  0.00    +0.000 A 
ATOM      5  C   UNL     1      51.098   2.256  17.328  0.00  0.00    +0.000 A 
ATOM      6  C   UNL     1      51.645   3.501  17.635  0.00  0.00    +0.000 A 
ATOM      7  C   UNL     1      50.824   4.621  17.715  0.00  0.00    +0.000 A 
BRANCH   5   8
ATOM      8  O   UNL     1      51.832   1.116  17.136  0.00  0.00    +0.000 OA
BRANCH   8   9
ATOM      9  C   UNL     1      52.997   1.020  17.966  0.00  0.00    +0.000 C 
BRANCH   9  10
ATOM     10  C   UNL     1      53.849  -0.171  17.597  0.00  0.00    +0.000 A 
ATOM     11  C   UNL     1      54.188  -1.137  18.539  0.00  0.00    +0.000 A 
ATOM     12  C   UNL     1      54.994  -2.202  18.145  0.00  0.00    +0.000 A 
ATOM     13  C   UNL     1      55.452  -2.266  16.835  0.00  0.00    +0.000 A 
ATOM     14  C   UNL     1      55.089  -1.255  15.965  0.00  0.00    +0.000 A 
ATOM     15  N   UNL     1      54.306  -0.211  16.316  0.00  0.00    +0.000 NA
ENDBRANCH   9  10
ENDBRANCH   8   9
ENDBRANCH   5   8
ENDBRANCH   1   2
BRANCH   1  16
ATOM     16  N   UNL     1      47.850   5.820  16.265  0.00  0.00    +0.000 N 
ATOM     17  C   UNL     1      48.405   6.177  15.069  0.00  0.00    +0.000 C 
ATOM     18  O   UNL     1      49.596   6.448  14.946  0.00  0.00    +0.000 OA
ATOM     19  H   UNL     1      46.841   5.746  16.325  0.00  0.00    +0.000 HD
BRANCH  17  20
ATOM     20  C   UNL     1      47.488   6.161  13.916  0.00  0.00    +0.000 A 
ATOM     21  C   UNL     1      47.209   7.336  13.234  0.00  0.00    +0.000 A 
ATOM     22  S   UNL     1      46.163   7.120  11.902  0.00  0.00    +0.000 S 
ATOM     23  C   UNL     1      46.004   5.455  12.222  0.00  0.00    +0.000 A 
ATOM     24  N   UNL     1      45.206   4.664  11.453  0.00  0.00    +0.000 NA
ATOM     25  C   UNL     1      45.145   3.433  11.835  0.00  0.00    +0.000 A 
ATOM     26  N   UNL     1      45.818   2.915  12.910  0.00  0.00    +0.000 N 
ATOM     27  C   UNL     1      46.685   3.659  13.669  0.00  0.00    +0.000 A 
ATOM     28  O   UNL     1      47.363   3.135  14.546  0.00  0.00    +0.000 OA
ATOM     29  C   UNL     1      46.759   5.065  13.312  0.00  0.00    +0.000 A 
ATOM     30  H   UNL     1      45.754   1.934  13.142  0.00  0.00    +0.000 HD
ENDBRANCH  17  20
ENDBRANCH   1  16
BRANCH   1  32
ATOM     31  C   UNL     1      49.277   7.604  19.156  0.00  0.00    +0.000 C 
ATOM     32  C   UNL     1      49.400   7.040  17.745  0.00  0.00    +0.000 C 
ENDBRANCH   1  32
TORSDOF 7
ENDMDL
MODEL 9
REMARK VINA RESULT:    -6.615      3.412      7.371
REMARK INTER + INTRA:         -10.432
REMARK INTER:                  -8.444
REMARK INTRA:                  -1.988
REMARK UNBOUND:                -1.111
REMARK  Name = 
REMARK  8 active torsions:
REMARK  status: ('A' for Active; 'I' for Inactive)
REMARK    1  A    between atoms: C_1  and  C_2
REMARK    2  A    between atoms: C_2  and  C_3
REMARK    3  A    between atoms: C_3  and  N_4
REMARK    4  A    between atoms: C_3  and  C_17
REMARK    5  A    between atoms: C_5  and  C_7
REMARK    6  A    between atoms: C_20  and  O_21
REMARK    7  A    between atoms: O_21  and  C_22
REMARK    8  A    between atoms: C_22  and  C_23
REMARK                            x       y       z     vdW  Elec       q    Type
REMARK                         _______ _______ _______ _____ _____    ______ ____
ROOT
ATOM      1  C   UNL     1      48.508   8.838  13.065  0.00  0.00    +0.000 C 
ENDROOT
BRANCH   1   2
ATOM      2  C   UNL     1      49.029   8.418  14.431  0.00  0.00    +0.000 A 
ATOM      3  C   UNL     1      48.414   8.866  15.607  0.00  0.00    +0.000 A 
ATOM      4  C   UNL     1      48.859   8.411  16.852  0.00  0.00    +0.000 A 
ATOM      5  C   UNL     1      49.905   7.491  16.936  0.00  0.00    +0.000 A 
ATOM      6  C   UNL     1      50.560   7.086  15.774  0.00  0.00    +0.000 A 
ATOM      7  C   UNL     1      50.117   7.535  14.535  0.00  0.00    +0.000 A 
BRANCH   5   8
ATOM      8  O   UNL     1      50.207   7.034  18.191  0.00  0.00    +0.000 OA
BRANCH   8   9
ATOM      9  C   UNL     1      49.164   6.264  18.803  0.00  0.00    +0.000 C 
BRANCH   9  10
ATOM     10  C   UNL     1      48.947   4.951  18.090  0.00  0.00    +0.000 A 
ATOM     11  C   UNL     1      47.702   4.604  17.576  0.00  0.00    +0.000 A 
ATOM     12  C   UNL     1      47.557   3.370  16.947  0.00  0.00    +0.000 A 
ATOM     13  C   UNL     1      48.647   2.512  16.864  0.00  0.00    +0.000 A 
ATOM     14  C   UNL     1      49.845   2.921  17.419  0.00  0.00    +0.000 A 
ATOM     15  N   UNL     1      50.018   4.112  18.033  0.00  0.00    +0.000 NA
ENDBRANCH   9  10
ENDBRANCH   8   9
ENDBRANCH   5   8
ENDBRANCH   1   2
BRANCH   1  16
ATOM     16  N   UNL     1      47.529   7.850  12.639  0.00  0.00    +0.000 N 
ATOM     17  C   UNL     1      46.177   7.966  12.804  0.00  0.00    +0.000 C 
ATOM     18  O   UNL     1      45.653   8.957  13.302  0.00  0.00    +0.000 OA
ATOM     19  H   UNL     1      47.904   6.954  12.352  0.00  0.00    +0.000 HD
BRANCH  17  20
ATOM     20  C   UNL     1      45.379   6.840  12.291  0.00  0.00    +0.000 A 
ATOM     21  C   UNL     1      44.273   7.080  11.488  0.00  0.00    +0.000 A 
ATOM     22  S   UNL     1      43.496   5.658  10.951  0.00  0.00    +0.000 S 
ATOM     23  C   UNL     1      44.580   4.669  11.816  0.00  0.00    +0.000 A 
ATOM     24  N   UNL     1      44.455   3.313  11.807  0.00  0.00    +0.000 NA
ATOM     25  C   UNL     1      45.316   2.693  12.540  0.00  0.00    +0.000 A 
ATOM     26  N   UNL     1      46.301   3.300  13.273  0.00  0.00    +0.000 N 
ATOM     27  C   UNL     1      46.506   4.657  13.256  0.00  0.00    +0.000 A 
ATOM     28  O   UNL     1      47.471   5.155  13.826  0.00  0.00    +0.000 OA
ATOM     29  C   UNL     1      45.537   5.412  12.483  0.00  0.00    +0.000 A 
ATOM     30  H   UNL     1      46.966   2.758  13.805  0.00  0.00    +0.000 HD
ENDBRANCH  17  20
ENDBRANCH   1  16
BRANCH   1  32
ATOM     31  C   UNL     1      49.647  10.286  11.291  0.00  0.00    +0.000 C 
ATOM     32  C   UNL     1      49.649   8.955  12.034  0.00  0.00    +0.000 C 
ENDBRANCH   1  32
TORSDOF 7
ENDMDL
