MODEL 1
REMARK VINA RESULT:    -7.362      0.000      0.000
REMARK INTER + INTRA:         -11.443
REMARK INTER:                 -10.159
REMARK INTRA:                  -1.284
REMARK UNBOUND:                -1.284
REMARK  Name = 
REMARK  7 active torsions:
REMARK  status: ('A' for Active; 'I' for Inactive)
REMARK    1  A    between atoms: N_1  and  C_2
REMARK    2  A    between atoms: C_2  and  C_3
REMARK    3  A    between atoms: C_6  and  C_7
REMARK    4  A    between atoms: C_7  and  C_8
REMARK    5  A    between atoms: C_11  and  C_12
REMARK    6  A    between atoms: C_12  and  N_13
REMARK    7  A    between atoms: C_14  and  C_16
REMARK                            x       y       z     vdW  Elec       q    Type
REMARK                         _______ _______ _______ _____ _____    ______ ____
ROOT
ATOM      1  C   UNL     1      44.980   5.064  10.473  0.00  0.00    +0.000 A 
ATOM      2  C   UNL     1      46.083   5.845  10.106  0.00  0.00    +0.000 A 
ATOM      3  C   UNL     1      46.596   6.815  10.972  0.00  0.00    +0.000 A 
ATOM      4  C   UNL     1      46.004   7.040  12.220  0.00  0.00    +0.000 A 
ATOM      5  C   UNL     1      44.843   6.329  12.548  0.00  0.00    +0.000 A 
ATOM      6  C   UNL     1      44.340   5.344  11.688  0.00  0.00    +0.000 A 
ENDROOT
BRANCH   1   7
ATOM      7  C   UNL     1      44.513   3.925   9.587  0.00  0.00    +0.000 C 
BRANCH   7  11
ATOM      8  C   UNL     1      46.368   2.441   6.613  0.00  0.00    +0.000 C 
ATOM      9  C   UNL     1      45.934   1.240   7.459  0.00  0.00    +0.000 C 
ATOM     10  C   UNL     1      45.772   1.783   8.881  0.00  0.00    +0.000 C 
ATOM     11  C   UNL     1      45.656   3.314   8.755  0.00  0.00    +0.000 C 
ATOM     12  C   UNL     1      45.539   3.567   7.247  0.00  0.00    +0.000 C 
BRANCH   8  13
ATOM     13  C   UNL     1      47.896   2.616   6.683  0.00  0.00    +0.000 C 
BRANCH  13  14
ATOM     14  N   UNL     1      48.603   1.833   5.677  0.00  0.00    +0.000 NA
ATOM     15  H   UNL     1      47.919   1.405   5.052  0.00  0.00    +0.000 HD
ATOM     16  H   UNL     1      49.092   1.059   6.123  0.00  0.00    +0.000 HD
ENDBRANCH  13  14
ENDBRANCH   8  13
ENDBRANCH   7  11
ENDBRANCH   1   7
BRANCH   4  17
ATOM     17  C   UNL     1      46.599   8.037  13.180  0.00  0.00    +0.000 C 
BRANCH  17  18
ATOM     18  N   UNL     1      47.160   7.386  14.336  0.00  0.00    +0.000 N 
ATOM     19  C   UNL     1      48.460   6.943  14.345  0.00  0.00    +0.000 C 
ATOM     20  O   UNL     1      49.218   7.118  13.398  0.00  0.00    +0.000 OA
ATOM     21  H   UNL     1      46.505   7.042  15.031  0.00  0.00    +0.000 HD
BRANCH  19  22
ATOM     22  C   UNL     1      48.916   6.305  15.588  0.00  0.00    +0.000 A 
ATOM     23  C   UNL     1      50.019   6.816  16.260  0.00  0.00    +0.000 A 
ATOM     24  S   UNL     1      50.389   5.982  17.702  0.00  0.00    +0.000 S 
ATOM     25  C   UNL     1      49.119   4.877  17.452  0.00  0.00    +0.000 A 
ATOM     26  N   UNL     1      48.896   3.858  18.326  0.00  0.00    +0.000 NA
ATOM     27  C   UNL     1      47.920   3.080  18.001  0.00  0.00    +0.000 A 
ATOM     28  N   UNL     1      47.138   3.233  16.885  0.00  0.00    +0.000 N 
ATOM     29  C   UNL     1      47.304   4.266  15.994  0.00  0.00    +0.000 A 
ATOM     30  O   UNL     1      46.550   4.405  15.035  0.00  0.00    +0.000 OA
ATOM     31  C   UNL     1      48.406   5.157  16.300  0.00  0.00    +0.000 A 
ATOM     32  H   UNL     1      46.373   2.600  16.696  0.00  0.00    +0.000 HD
ENDBRANCH  19  22
ENDBRANCH  17  18
ENDBRANCH   4  17
TORSDOF 7
ENDMDL
MODEL 2
REMARK VINA RESULT:    -7.200      1.062      1.557
REMARK INTER + INTRA:         -11.220
REMARK INTER:                 -10.416
REMARK INTRA:                  -0.804
REMARK UNBOUND:                -1.284
REMARK  Name = 
REMARK  7 active torsions:
REMARK  status: ('A' for Active; 'I' for Inactive)
REMARK    1  A    between atoms: N_1  and  C_2
REMARK    2  A    between atoms: C_2  and  C_3
REMARK    3  A    between atoms: C_6  and  C_7
REMARK    4  A    between atoms: C_7  and  C_8
REMARK    5  A    between atoms: C_11  and  C_12
REMARK    6  A    between atoms: C_12  and  N_13
REMARK    7  A    between atoms: C_14  and  C_16
REMARK                            x       y       z     vdW  Elec       q    Type
REMARK                         _______ _______ _______ _____ _____    ______ ____
ROOT
ATOM      1  C   UNL     1      44.471   3.461  10.347  0.00  0.00    +0.000 A 
ATOM      2  C   UNL     1      43.782   4.669  10.184  0.00  0.00    +0.000 A 
ATOM      3  C   UNL     1      44.080   5.778  10.982  0.00  0.00    +0.000 A 
ATOM      4  C   UNL     1      45.062   5.698  11.975  0.00  0.00    +0.000 A 
ATOM      5  C   UNL     1      45.683   4.463  12.204  0.00  0.00    +0.000 A 
ATOM      6  C   UNL     1      45.398   3.358  11.393  0.00  0.00    +0.000 A 
ENDROOT
BRANCH   1   7
ATOM      7  C   UNL     1      44.238   2.306   9.392  0.00  0.00    +0.000 C 
BRANCH   7  11
ATOM      8  C   UNL     1      47.366   2.490   7.230  0.00  0.00    +0.000 C 
ATOM      9  C   UNL     1      46.868   3.933   7.344  0.00  0.00    +0.000 C 
ATOM     10  C   UNL     1      45.368   3.824   7.634  0.00  0.00    +0.000 C 
ATOM     11  C   UNL     1      45.123   2.388   8.134  0.00  0.00    +0.000 C 
ATOM     12  C   UNL     1      46.527   1.799   8.316  0.00  0.00    +0.000 C 
BRANCH   8  13
ATOM     13  C   UNL     1      47.162   1.969   5.796  0.00  0.00    +0.000 C 
BRANCH  13  14
ATOM     14  N   UNL     1      48.399   1.926   5.027  0.00  0.00    +0.000 NA
ATOM     15  H   UNL     1      48.746   2.878   4.909  0.00  0.00    +0.000 HD
ATOM     16  H   UNL     1      48.210   1.582   4.087  0.00  0.00    +0.000 HD
ENDBRANCH  13  14
ENDBRANCH   8  13
ENDBRANCH   7  11
ENDBRANCH   1   7
BRANCH   4  17
ATOM     17  C   UNL     1      45.430   6.912  12.788  0.00  0.00    +0.000 C 
BRANCH  17  18
ATOM     18  N   UNL     1      46.294   6.568  13.888  0.00  0.00    +0.000 N 
ATOM     19  C   UNL     1      47.660   6.672  13.782  0.00  0.00    +0.000 C 
ATOM     20  O   UNL     1      48.208   7.103  12.774  0.00  0.00    +0.000 OA
ATOM     21  H   UNL     1      45.887   6.015  14.635  0.00  0.00    +0.000 HD
BRANCH  19  22
ATOM     22  C   UNL     1      48.430   6.302  14.978  0.00  0.00    +0.000 A 
ATOM     23  C   UNL     1      49.513   7.078  15.368  0.00  0.00    +0.000 A 
ATOM     24  S   UNL     1      50.270   6.531  16.795  0.00  0.00    +0.000 S 
ATOM     25  C   UNL     1      49.207   5.207  16.916  0.00  0.00    +0.000 A 
ATOM     26  N   UNL     1      49.329   4.301  17.923  0.00  0.00    +0.000 NA
ATOM     27  C   UNL     1      48.476   3.334  17.878  0.00  0.00    +0.000 A 
ATOM     28  N   UNL     1      47.503   3.196  16.921  0.00  0.00    +0.000 N 
ATOM     29  C   UNL     1      47.321   4.104  15.906  0.00  0.00    +0.000 A 
ATOM     30  O   UNL     1      46.404   3.979  15.099  0.00  0.00    +0.000 OA
ATOM     31  C   UNL     1      48.271   5.199  15.897  0.00  0.00    +0.000 A 
ATOM     32  H   UNL     1      46.851   2.425  16.952  0.00  0.00    +0.000 HD
ENDBRANCH  19  22
ENDBRANCH  17  18
ENDBRANCH   4  17
TORSDOF 7
ENDMDL
MODEL 3
REMARK VINA RESULT:    -6.687      1.639      2.068
REMARK INTER + INTRA:         -10.513
REMARK INTER:                  -9.386
REMARK INTRA:                  -1.126
REMARK UNBOUND:                -1.284
REMARK  Name = 
REMARK  7 active torsions:
REMARK  status: ('A' for Active; 'I' for Inactive)
REMARK    1  A    between atoms: N_1  and  C_2
REMARK    2  A    between atoms: C_2  and  C_3
REMARK    3  A    between atoms: C_6  and  C_7
REMARK    4  A    between atoms: C_7  and  C_8
REMARK    5  A    between atoms: C_11  and  C_12
REMARK    6  A    between atoms: C_12  and  N_13
REMARK    7  A    between atoms: C_14  and  C_16
REMARK                            x       y       z     vdW  Elec       q    Type
REMARK                         _______ _______ _______ _____ _____    ______ ____
ROOT
ATOM      1  C   UNL     1      44.993   6.102  11.614  0.00  0.00    +0.000 A 
ATOM      2  C   UNL     1      44.621   7.429  11.860  0.00  0.00    +0.000 A 
ATOM      3  C   UNL     1      45.458   8.286  12.580  0.00  0.00    +0.000 A 
ATOM      4  C   UNL     1      46.679   7.830  13.089  0.00  0.00    +0.000 A 
ATOM      5  C   UNL     1      47.006   6.477  12.928  0.00  0.00    +0.000 A 
ATOM      6  C   UNL     1      46.177   5.623  12.191  0.00  0.00    +0.000 A 
ENDROOT
BRANCH   1   7
ATOM      7  C   UNL     1      44.145   5.217  10.720  0.00  0.00    +0.000 C 
BRANCH   7  11
ATOM      8  C   UNL     1      45.071   2.890   7.853  0.00  0.00    +0.000 C 
ATOM      9  C   UNL     1      44.788   1.971   9.044  0.00  0.00    +0.000 C 
ATOM     10  C   UNL     1      45.034   2.830  10.288  0.00  0.00    +0.000 C 
ATOM     11  C   UNL     1      44.992   4.298   9.820  0.00  0.00    +0.000 C 
ATOM     12  C   UNL     1      44.510   4.225   8.367  0.00  0.00    +0.000 C 
BRANCH   8  13
ATOM     13  C   UNL     1      46.574   2.882   7.520  0.00  0.00    +0.000 C 
BRANCH  13  14
ATOM     14  N   UNL     1      47.001   4.074   6.798  0.00  0.00    +0.000 NA
ATOM     15  H   UNL     1      48.016   4.157   6.869  0.00  0.00    +0.000 HD
ATOM     16  H   UNL     1      46.624   4.905   7.249  0.00  0.00    +0.000 HD
ENDBRANCH  13  14
ENDBRANCH   8  13
ENDBRANCH   7  11
ENDBRANCH   1   7
BRANCH   4  17
ATOM     17  C   UNL     1      47.610   8.772  13.806  0.00  0.00    +0.000 C 
BRANCH  17  18
ATOM     18  N   UNL     1      47.899   8.315  15.141  0.00  0.00    +0.000 N 
ATOM     19  C   UNL     1      49.184   8.297  15.627  0.00  0.00    +0.000 C 
ATOM     20  O   UNL     1      50.136   8.708  14.975  0.00  0.00    +0.000 OA
ATOM     21  H   UNL     1      47.176   7.777  15.607  0.00  0.00    +0.000 HD
BRANCH  19  22
ATOM     22  C   UNL     1      49.345   7.818  17.007  0.00  0.00    +0.000 A 
ATOM     23  C   UNL     1      49.802   8.687  17.989  0.00  0.00    +0.000 A 
ATOM     24  S   UNL     1      49.895   7.982  19.540  0.00  0.00    +0.000 S 
ATOM     25  C   UNL     1      49.374   6.475  18.944  0.00  0.00    +0.000 A 
ATOM     26  N   UNL     1      49.263   5.398  19.768  0.00  0.00    +0.000 NA
ATOM     27  C   UNL     1      48.885   4.313  19.180  0.00  0.00    +0.000 A 
ATOM     28  N   UNL     1      48.598   4.209  17.843  0.00  0.00    +0.000 N 
ATOM     29  C   UNL     1      48.663   5.277  16.981  0.00  0.00    +0.000 A 
ATOM     30  O   UNL     1      48.345   5.161  15.801  0.00  0.00    +0.000 OA
ATOM     31  C   UNL     1      49.107   6.517  17.587  0.00  0.00    +0.000 A 
ATOM     32  H   UNL     1      48.286   3.334  17.446  0.00  0.00    +0.000 HD
ENDBRANCH  19  22
ENDBRANCH  17  18
ENDBRANCH   4  17
TORSDOF 7
ENDMDL
MODEL 4
REMARK VINA RESULT:    -6.457      2.772      3.761
REMARK INTER + INTRA:         -10.195
REMARK INTER:                  -9.619
REMARK INTRA:                  -0.576
REMARK UNBOUND:                -1.284
REMARK  Name = 
REMARK  7 active torsions:
REMARK  status: ('A' for Active; 'I' for Inactive)
REMARK    1  A    between atoms: N_1  and  C_2
REMARK    2  A    between atoms: C_2  and  C_3
REMARK    3  A    between atoms: C_6  and  C_7
REMARK    4  A    between atoms: C_7  and  C_8
REMARK    5  A    between atoms: C_11  and  C_12
REMARK    6  A    between atoms: C_12  and  N_13
REMARK    7  A    between atoms: C_14  and  C_16
REMARK                            x       y       z     vdW  Elec       q    Type
REMARK                         _______ _______ _______ _____ _____    ______ ____
ROOT
ATOM      1  C   UNL     1      44.336   3.150  10.383  0.00  0.00    +0.000 A 
ATOM      2  C   UNL     1      43.675   4.383  10.313  0.00  0.00    +0.000 A 
ATOM      3  C   UNL     1      43.926   5.385  11.254  0.00  0.00    +0.000 A 
ATOM      4  C   UNL     1      44.831   5.172  12.300  0.00  0.00    +0.000 A 
ATOM      5  C   UNL     1      45.419   3.906  12.427  0.00  0.00    +0.000 A 
ATOM      6  C   UNL     1      45.182   2.908  11.474  0.00  0.00    +0.000 A 
ENDROOT
BRANCH   1   7
ATOM      7  C   UNL     1      44.160   2.119   9.285  0.00  0.00    +0.000 C 
BRANCH   7  11
ATOM      8  C   UNL     1      47.273   2.610   7.150  0.00  0.00    +0.000 C 
ATOM      9  C   UNL     1      46.824   4.021   7.541  0.00  0.00    +0.000 C 
ATOM     10  C   UNL     1      45.325   3.905   7.827  0.00  0.00    +0.000 C 
ATOM     11  C   UNL     1      45.037   2.409   8.052  0.00  0.00    +0.000 C 
ATOM     12  C   UNL     1      46.422   1.753   8.098  0.00  0.00    +0.000 C 
BRANCH   8  13
ATOM     13  C   UNL     1      47.039   2.375   5.646  0.00  0.00    +0.000 C 
BRANCH  13  14
ATOM     14  N   UNL     1      48.279   2.300   4.884  0.00  0.00    +0.000 NA
ATOM     15  H   UNL     1      48.106   2.644   3.939  0.00  0.00    +0.000 HD
ATOM     16  H   UNL     1      48.561   1.328   4.778  0.00  0.00    +0.000 HD
ENDBRANCH  13  14
ENDBRANCH   8  13
ENDBRANCH   7  11
ENDBRANCH   1   7
BRANCH   4  17
ATOM     17  C   UNL     1      45.153   6.276  13.273  0.00  0.00    +0.000 C 
BRANCH  17  18
ATOM     18  N   UNL     1      46.416   6.897  12.967  0.00  0.00    +0.000 N 
ATOM     19  C   UNL     1      47.587   6.442  13.521  0.00  0.00    +0.000 C 
ATOM     20  O   UNL     1      47.626   5.465  14.260  0.00  0.00    +0.000 OA
ATOM     21  H   UNL     1      46.383   7.819  12.544  0.00  0.00    +0.000 HD
BRANCH  19  22
ATOM     22  C   UNL     1      48.810   7.153  13.121  0.00  0.00    +0.000 A 
ATOM     23  C   UNL     1      49.000   7.501  11.790  0.00  0.00    +0.000 A 
ATOM     24  S   UNL     1      50.450   8.354  11.505  0.00  0.00    +0.000 S 
ATOM     25  C   UNL     1      50.899   8.244  13.143  0.00  0.00    +0.000 A 
ATOM     26  N   UNL     1      52.080   8.759  13.580  0.00  0.00    +0.000 NA
ATOM     27  C   UNL     1      52.307   8.581  14.839  0.00  0.00    +0.000 A 
ATOM     28  N   UNL     1      51.454   7.944  15.702  0.00  0.00    +0.000 N 
ATOM     29  C   UNL     1      50.237   7.439  15.312  0.00  0.00    +0.000 A 
ATOM     30  O   UNL     1      49.473   6.923  16.124  0.00  0.00    +0.000 OA
ATOM     31  C   UNL     1      49.944   7.590  13.901  0.00  0.00    +0.000 A 
ATOM     32  H   UNL     1      51.680   7.854  16.683  0.00  0.00    +0.000 HD
ENDBRANCH  19  22
ENDBRANCH  17  18
ENDBRANCH   4  17
TORSDOF 7
ENDMDL
MODEL 5
REMARK VINA RESULT:    -6.421      2.709      3.767
REMARK INTER + INTRA:         -10.145
REMARK INTER:                  -9.515
REMARK INTRA:                  -0.630
REMARK UNBOUND:                -1.284
REMARK  Name = 
REMARK  7 active torsions:
REMARK  status: ('A' for Active; 'I' for Inactive)
REMARK    1  A    between atoms: N_1  and  C_2
REMARK    2  A    between atoms: C_2  and  C_3
REMARK    3  A    between atoms: C_6  and  C_7
REMARK    4  A    between atoms: C_7  and  C_8
REMARK    5  A    between atoms: C_11  and  C_12
REMARK    6  A    between atoms: C_12  and  N_13
REMARK    7  A    between atoms: C_14  and  C_16
REMARK                            x       y       z     vdW  Elec       q    Type
REMARK                         _______ _______ _______ _____ _____    ______ ____
ROOT
ATOM      1  C   UNL     1      44.695   4.318   9.764  0.00  0.00    +0.000 A 
ATOM      2  C   UNL     1      45.463   5.454  10.047  0.00  0.00    +0.000 A 
ATOM      3  C   UNL     1      45.963   5.680  11.333  0.00  0.00    +0.000 A 
ATOM      4  C   UNL     1      45.690   4.783  12.372  0.00  0.00    +0.000 A 
ATOM      5  C   UNL     1      44.841   3.699  12.113  0.00  0.00    +0.000 A 
ATOM      6  C   UNL     1      44.355   3.463  10.821  0.00  0.00    +0.000 A 
ENDROOT
BRANCH   1   7
ATOM      7  C   UNL     1      44.269   4.010   8.342  0.00  0.00    +0.000 C 
BRANCH   7  11
ATOM      8  C   UNL     1      47.161   1.593   7.805  0.00  0.00    +0.000 C 
ATOM      9  C   UNL     1      47.509   2.830   6.973  0.00  0.00    +0.000 C 
ATOM     10  C   UNL     1      46.169   3.504   6.665  0.00  0.00    +0.000 C 
ATOM     11  C   UNL     1      45.153   2.938   7.676  0.00  0.00    +0.000 C 
ATOM     12  C   UNL     1      46.002   2.126   8.661  0.00  0.00    +0.000 C 
BRANCH   8  13
ATOM     13  C   UNL     1      46.819   0.410   6.880  0.00  0.00    +0.000 C 
BRANCH  13  14
ATOM     14  N   UNL     1      46.741  -0.860   7.590  0.00  0.00    +0.000 NA
ATOM     15  H   UNL     1      47.656  -1.312   7.558  0.00  0.00    +0.000 HD
ATOM     16  H   UNL     1      46.105  -1.489   7.105  0.00  0.00    +0.000 HD
ENDBRANCH  13  14
ENDBRANCH   8  13
ENDBRANCH   7  11
ENDBRANCH   1   7
BRANCH   4  17
ATOM     17  C   UNL     1      46.285   4.992  13.740  0.00  0.00    +0.000 C 
BRANCH  17  18
ATOM     18  N   UNL     1      46.713   6.354  13.927  0.00  0.00    +0.000 N 
ATOM     19  C   UNL     1      48.012   6.734  13.692  0.00  0.00    +0.000 C 
ATOM     20  O   UNL     1      48.856   5.952  13.271  0.00  0.00    +0.000 OA
ATOM     21  H   UNL     1      46.102   6.955  14.472  0.00  0.00    +0.000 HD
BRANCH  19  22
ATOM     22  C   UNL     1      48.318   8.155  13.909  0.00  0.00    +0.000 A 
ATOM     23  C   UNL     1      48.279   9.039  12.839  0.00  0.00    +0.000 A 
ATOM     24  S   UNL     1      48.623  10.653  13.272  0.00  0.00    +0.000 S 
ATOM     25  C   UNL     1      48.886  10.219  14.896  0.00  0.00    +0.000 A 
ATOM     26  N   UNL     1      49.252  11.149  15.819  0.00  0.00    +0.000 NA
ATOM     27  C   UNL     1      49.446  10.678  17.005  0.00  0.00    +0.000 A 
ATOM     28  N   UNL     1      49.295   9.361  17.354  0.00  0.00    +0.000 N 
ATOM     29  C   UNL     1      48.894   8.393  16.465  0.00  0.00    +0.000 A 
ATOM     30  O   UNL     1      48.716   7.233  16.825  0.00  0.00    +0.000 OA
ATOM     31  C   UNL     1      48.687   8.866  15.111  0.00  0.00    +0.000 A 
ATOM     32  H   UNL     1      49.442   9.057  18.307  0.00  0.00    +0.000 HD
ENDBRANCH  19  22
ENDBRANCH  17  18
ENDBRANCH   4  17
TORSDOF 7
ENDMDL
MODEL 6
REMARK VINA RESULT:    -6.406      1.784      2.493
REMARK INTER + INTRA:         -10.124
REMARK INTER:                  -9.313
REMARK INTRA:                  -0.811
REMARK UNBOUND:                -1.284
REMARK  Name = 
REMARK  7 active torsions:
REMARK  status: ('A' for Active; 'I' for Inactive)
REMARK    1  A    between atoms: N_1  and  C_2
REMARK    2  A    between atoms: C_2  and  C_3
REMARK    3  A    between atoms: C_6  and  C_7
REMARK    4  A    between atoms: C_7  and  C_8
REMARK    5  A    between atoms: C_11  and  C_12
REMARK    6  A    between atoms: C_12  and  N_13
REMARK    7  A    between atoms: C_14  and  C_16
REMARK                            x       y       z     vdW  Elec       q    Type
REMARK                         _______ _______ _______ _____ _____    ______ ____
ROOT
ATOM      1  C   UNL     1      45.303   5.241  10.678  0.00  0.00    +0.000 A 
ATOM      2  C   UNL     1      46.311   6.172  10.398  0.00  0.00    +0.000 A 
ATOM      3  C   UNL     1      46.940   6.879  11.427  0.00  0.00    +0.000 A 
ATOM      4  C   UNL     1      46.562   6.686  12.760  0.00  0.00    +0.000 A 
ATOM      5  C   UNL     1      45.488   5.828  13.033  0.00  0.00    +0.000 A 
ATOM      6  C   UNL     1      44.870   5.106  12.004  0.00  0.00    +0.000 A 
ENDROOT
BRANCH   1   7
ATOM      7  C   UNL     1      44.720   4.382   9.573  0.00  0.00    +0.000 C 
BRANCH   7  11
ATOM      8  C   UNL     1      46.398   2.398   6.792  0.00  0.00    +0.000 C 
ATOM      9  C   UNL     1      45.874   1.349   7.777  0.00  0.00    +0.000 C 
ATOM     10  C   UNL     1      45.779   2.069   9.125  0.00  0.00    +0.000 C 
ATOM     11  C   UNL     1      45.794   3.579   8.816  0.00  0.00    +0.000 C 
ATOM     12  C   UNL     1      45.678   3.660   7.289  0.00  0.00    +0.000 C 
BRANCH   8  13
ATOM     13  C   UNL     1      47.937   2.446   6.835  0.00  0.00    +0.000 C 
BRANCH  13  14
ATOM     14  N   UNL     1      48.556   1.810   5.679  0.00  0.00    +0.000 NA
ATOM     15  H   UNL     1      48.665   0.814   5.870  0.00  0.00    +0.000 HD
ATOM     16  H   UNL     1      49.499   2.172   5.551  0.00  0.00    +0.000 HD
ENDBRANCH  13  14
ENDBRANCH   8  13
ENDBRANCH   7  11
ENDBRANCH   1   7
BRANCH   4  17
ATOM     17  C   UNL     1      47.287   7.397  13.873  0.00  0.00    +0.000 C 
BRANCH  17  18
ATOM     18  N   UNL     1      47.876   6.464  14.799  0.00  0.00    +0.000 N 
ATOM     19  C   UNL     1      48.649   6.893  15.850  0.00  0.00    +0.000 C 
ATOM     20  O   UNL     1      48.838   8.081  16.081  0.00  0.00    +0.000 OA
ATOM     21  H   UNL     1      47.915   5.492  14.508  0.00  0.00    +0.000 HD
BRANCH  19  22
ATOM     22  C   UNL     1      49.183   5.844  16.729  0.00  0.00    +0.000 A 
ATOM     23  C   UNL     1      48.310   5.001  17.406  0.00  0.00    +0.000 A 
ATOM     24  S   UNL     1      49.094   3.818  18.352  0.00  0.00    +0.000 S 
ATOM     25  C   UNL     1      50.629   4.421  17.930  0.00  0.00    +0.000 A 
ATOM     26  N   UNL     1      51.762   3.865  18.437  0.00  0.00    +0.000 NA
ATOM     27  C   UNL     1      52.854   4.438  18.056  0.00  0.00    +0.000 A 
ATOM     28  N   UNL     1      52.917   5.512  17.206  0.00  0.00    +0.000 N 
ATOM     29  C   UNL     1      51.801   6.084  16.644  0.00  0.00    +0.000 A 
ATOM     30  O   UNL     1      51.897   7.010  15.843  0.00  0.00    +0.000 OA
ATOM     31  C   UNL     1      50.544   5.493  17.059  0.00  0.00    +0.000 A 
ATOM     32  H   UNL     1      53.806   5.904  16.930  0.00  0.00    +0.000 HD
ENDBRANCH  19  22
ENDBRANCH  17  18
ENDBRANCH   4  17
TORSDOF 7
ENDMDL
MODEL 7
REMARK VINA RESULT:    -6.403      2.804      3.408
REMARK INTER + INTRA:         -10.120
REMARK INTER:                  -9.105
REMARK INTRA:                  -1.015
REMARK UNBOUND:                -1.284
REMARK  Name = 
REMARK  7 active torsions:
REMARK  status: ('A' for Active; 'I' for Inactive)
REMARK    1  A    between atoms: N_1  and  C_2
REMARK    2  A    between atoms: C_2  and  C_3
REMARK    3  A    between atoms: C_6  and  C_7
REMARK    4  A    between atoms: C_7  and  C_8
REMARK    5  A    between atoms: C_11  and  C_12
REMARK    6  A    between atoms: C_12  and  N_13
REMARK    7  A    between atoms: C_14  and  C_16
REMARK                            x       y       z     vdW  Elec       q    Type
REMARK                         _______ _______ _______ _____ _____    ______ ____
ROOT
ATOM      1  C   UNL     1      45.658   5.533  11.793  0.00  0.00    +0.000 A 
ATOM      2  C   UNL     1      46.277   6.764  11.545  0.00  0.00    +0.000 A 
ATOM      3  C   UNL     1      47.273   7.251  12.395  0.00  0.00    +0.000 A 
ATOM      4  C   UNL     1      47.663   6.525  13.526  0.00  0.00    +0.000 A 
ATOM      5  C   UNL     1      46.977   5.341  13.830  0.00  0.00    +0.000 A 
ATOM      6  C   UNL     1      45.991   4.845  12.968  0.00  0.00    +0.000 A 
ENDROOT
BRANCH   1   7
ATOM      7  C   UNL     1      44.675   4.949  10.797  0.00  0.00    +0.000 C 
BRANCH   7  11
ATOM      8  C   UNL     1      45.455   3.035   7.600  0.00  0.00    +0.000 C 
ATOM      9  C   UNL     1      44.486   2.141   8.380  0.00  0.00    +0.000 C 
ATOM     10  C   UNL     1      44.652   2.546   9.847  0.00  0.00    +0.000 C 
ATOM     11  C   UNL     1      45.330   3.930   9.845  0.00  0.00    +0.000 C 
ATOM     12  C   UNL     1      45.329   4.356   8.372  0.00  0.00    +0.000 C 
BRANCH   8  13
ATOM     13  C   UNL     1      46.860   2.404   7.580  0.00  0.00    +0.000 C 
BRANCH  13  14
ATOM     14  N   UNL     1      47.781   3.103   6.692  0.00  0.00    +0.000 NA
ATOM     15  H   UNL     1      48.531   3.511   7.251  0.00  0.00    +0.000 HD
ATOM     16  H   UNL     1      47.307   3.888   6.251  0.00  0.00    +0.000 HD
ENDBRANCH  13  14
ENDBRANCH   8  13
ENDBRANCH   7  11
ENDBRANCH   1   7
BRANCH   4  17
ATOM     17  C   UNL     1      48.784   7.017  14.404  0.00  0.00    +0.000 C 
BRANCH  17  18
ATOM     18  N   UNL     1      48.392   7.057  15.789  0.00  0.00    +0.000 N 
ATOM     19  C   UNL     1      49.092   6.368  16.749  0.00  0.00    +0.000 C 
ATOM     20  O   UNL     1      50.104   5.728  16.489  0.00  0.00    +0.000 OA
ATOM     21  H   UNL     1      47.454   7.390  15.990  0.00  0.00    +0.000 HD
BRANCH  19  22
ATOM     22  C   UNL     1      48.597   6.499  18.127  0.00  0.00    +0.000 A 
ATOM     23  C   UNL     1      48.533   5.378  18.945  0.00  0.00    +0.000 A 
ATOM     24  S   UNL     1      47.972   5.712  20.522  0.00  0.00    +0.000 S 
ATOM     25  C   UNL     1      47.746   7.358  20.151  0.00  0.00    +0.000 A 
ATOM     26  N   UNL     1      47.247   8.221  21.076  0.00  0.00    +0.000 NA
ATOM     27  C   UNL     1      47.100   9.432  20.652  0.00  0.00    +0.000 A 
ATOM     28  N   UNL     1      47.419   9.860  19.389  0.00  0.00    +0.000 N 
ATOM     29  C   UNL     1      47.957   9.032  18.434  0.00  0.00    +0.000 A 
ATOM     30  O   UNL     1      48.283   9.462  17.331  0.00  0.00    +0.000 OA
ATOM     31  C   UNL     1      48.119   7.653  18.851  0.00  0.00    +0.000 A 
ATOM     32  H   UNL     1      47.300  10.828  19.125  0.00  0.00    +0.000 HD
ENDBRANCH  19  22
ENDBRANCH  17  18
ENDBRANCH   4  17
TORSDOF 7
ENDMDL
MODEL 8
REMARK VINA RESULT:    -6.392      3.068      4.386
REMARK INTER + INTRA:         -10.105
REMARK INTER:                  -8.926
REMARK INTRA:                  -1.180
REMARK UNBOUND:                -1.284
REMARK  Name = 
REMARK  7 active torsions:
REMARK  status: ('A' for Active; 'I' for Inactive)
REMARK    1  A    between atoms: N_1  and  C_2
REMARK    2  A    between atoms: C_2  and  C_3
REMARK    3  A    between atoms: C_6  and  C_7
REMARK    4  A    between atoms: C_7  and  C_8
REMARK    5  A    between atoms: C_11  and  C_12
REMARK    6  A    between atoms: C_12  and  N_13
REMARK    7  A    between atoms: C_14  and  C_16
REMARK                            x       y       z     vdW  Elec       q    Type
REMARK                         _______ _______ _______ _____ _____    ______ ____
ROOT
ATOM      1  C   UNL     1      47.165   6.940  12.712  0.00  0.00    +0.000 A 
ATOM      2  C   UNL     1      47.355   8.242  13.190  0.00  0.00    +0.000 A 
ATOM      3  C   UNL     1      48.035   8.474  14.389  0.00  0.00    +0.000 A 
ATOM      4  C   UNL     1      48.526   7.406  15.148  0.00  0.00    +0.000 A 
ATOM      5  C   UNL     1      48.252   6.100  14.721  0.00  0.00    +0.000 A 
ATOM      6  C   UNL     1      47.587   5.868  13.511  0.00  0.00    +0.000 A 
ENDROOT
BRANCH   1   7
ATOM      7  C   UNL     1      46.546   6.703  11.348  0.00  0.00    +0.000 C 
BRANCH   7  11
ATOM      8  C   UNL     1      43.970   4.190  10.105  0.00  0.00    +0.000 C 
ATOM      9  C   UNL     1      43.211   5.101  11.073  0.00  0.00    +0.000 C 
ATOM     10  C   UNL     1      44.275   5.668  12.017  0.00  0.00    +0.000 C 
ATOM     11  C   UNL     1      45.633   5.462  11.319  0.00  0.00    +0.000 C 
ATOM     12  C   UNL     1      45.272   4.982   9.908  0.00  0.00    +0.000 C 
BRANCH   8  13
ATOM     13  C   UNL     1      44.130   2.784  10.712  0.00  0.00    +0.000 C 
BRANCH  13  14
ATOM     14  N   UNL     1      42.988   2.386  11.526  0.00  0.00    +0.000 NA
ATOM     15  H   UNL     1      43.311   2.189  12.474  0.00  0.00    +0.000 HD
ATOM     16  H   UNL     1      42.605   1.509  11.177  0.00  0.00    +0.000 HD
ENDBRANCH  13  14
ENDBRANCH   8  13
ENDBRANCH   7  11
ENDBRANCH   1   7
BRANCH   4  17
ATOM     17  C   UNL     1      49.319   7.659  16.404  0.00  0.00    +0.000 C 
BRANCH  17  18
ATOM     18  N   UNL     1      50.227   6.576  16.682  0.00  0.00    +0.000 N 
ATOM     19  C   UNL     1      50.572   6.247  17.970  0.00  0.00    +0.000 C 
ATOM     20  O   UNL     1      50.096   6.819  18.942  0.00  0.00    +0.000 OA
ATOM     21  H   UNL     1      50.790   6.240  15.907  0.00  0.00    +0.000 HD
BRANCH  19  22
ATOM     22  C   UNL     1      51.498   5.115  18.120  0.00  0.00    +0.000 A 
ATOM     23  C   UNL     1      52.770   5.329  18.635  0.00  0.00    +0.000 A 
ATOM     24  S   UNL     1      53.700   3.906  18.778  0.00  0.00    +0.000 S 
ATOM     25  C   UNL     1      52.453   2.960  18.110  0.00  0.00    +0.000 A 
ATOM     26  N   UNL     1      52.615   1.623  17.920  0.00  0.00    +0.000 NA
ATOM     27  C   UNL     1      51.602   1.033  17.380  0.00  0.00    +0.000 A 
ATOM     28  N   UNL     1      50.436   1.659  17.021  0.00  0.00    +0.000 N 
ATOM     29  C   UNL     1      50.215   3.000  17.224  0.00  0.00    +0.000 A 
ATOM     30  O   UNL     1      49.138   3.517  16.942  0.00  0.00    +0.000 OA
ATOM     31  C   UNL     1      51.333   3.715  17.807  0.00  0.00    +0.000 A 
ATOM     32  H   UNL     1      49.670   1.137  16.619  0.00  0.00    +0.000 HD
ENDBRANCH  19  22
ENDBRANCH  17  18
ENDBRANCH   4  17
TORSDOF 7
ENDMDL
MODEL 9
REMARK VINA RESULT:    -6.196      4.644      7.231
REMARK INTER + INTRA:          -9.834
REMARK INTER:                  -8.783
REMARK INTRA:                  -1.051
REMARK UNBOUND:                -1.284
REMARK  Name = 
REMARK  7 active torsions:
REMARK  status: ('A' for Active; 'I' for Inactive)
REMARK    1  A    between atoms: N_1  and  C_2
REMARK    2  A    between atoms: C_2  and  C_3
REMARK    3  A    between atoms: C_6  and  C_7
REMARK    4  A    between atoms: C_7  and  C_8
REMARK    5  A    between atoms: C_11  and  C_12
REMARK    6  A    between atoms: C_12  and  N_13
REMARK    7  A    between atoms: C_14  and  C_16
REMARK                            x       y       z     vdW  Elec       q    Type
REMARK                         _______ _______ _______ _____ _____    ______ ____
ROOT
ATOM      1  C   UNL     1      50.933   8.200  11.916  0.00  0.00    +0.000 A 
ATOM      2  C   UNL     1      49.872   7.863  11.067  0.00  0.00    +0.000 A 
ATOM      3  C   UNL     1      48.585   7.660  11.574  0.00  0.00    +0.000 A 
ATOM      4  C   UNL     1      48.333   7.773  12.946  0.00  0.00    +0.000 A 
ATOM      5  C   UNL     1      49.412   8.014  13.806  0.00  0.00    +0.000 A 
ATOM      6  C   UNL     1      50.698   8.234  13.297  0.00  0.00    +0.000 A 
ENDROOT
BRANCH   1   7
ATOM      7  C   UNL     1      52.295   8.549  11.346  0.00  0.00    +0.000 C 
BRANCH   7  11
ATOM      8  C   UNL     1      53.719   6.486   8.481  0.00  0.00    +0.000 C 
ATOM      9  C   UNL     1      54.417   7.845   8.386  0.00  0.00    +0.000 C 
ATOM     10  C   UNL     1      53.468   8.838   9.062  0.00  0.00    +0.000 C 
ATOM     11  C   UNL     1      52.499   8.001   9.921  0.00  0.00    +0.000 C 
ATOM     12  C   UNL     1      53.071   6.580   9.870  0.00  0.00    +0.000 C 
BRANCH   8  13
ATOM     13  C   UNL     1      52.745   6.305   7.302  0.00  0.00    +0.000 C 
BRANCH  13  14
ATOM     14  N   UNL     1      53.145   5.235   6.395  0.00  0.00    +0.000 NA
ATOM     15  H   UNL     1      53.582   5.649   5.571  0.00  0.00    +0.000 HD
ATOM     16  H   UNL     1      52.321   4.745   6.055  0.00  0.00    +0.000 HD
ENDBRANCH  13  14
ENDBRANCH   8  13
ENDBRANCH   7  11
ENDBRANCH   1   7
BRANCH   4  17
ATOM     17  C   UNL     1      46.933   7.622  13.482  0.00  0.00    +0.000 C 
BRANCH  17  18
ATOM     18  N   UNL     1      46.318   6.406  13.017  0.00  0.00    +0.000 N 
ATOM     19  C   UNL     1      45.255   6.430  12.148  0.00  0.00    +0.000 C 
ATOM     20  O   UNL     1      44.807   7.475  11.691  0.00  0.00    +0.000 OA
ATOM     21  H   UNL     1      46.523   5.560  13.540  0.00  0.00    +0.000 HD
BRANCH  19  22
ATOM     22  C   UNL     1      44.724   5.121  11.741  0.00  0.00    +0.000 A 
ATOM     23  C   UNL     1      43.972   4.373  12.637  0.00  0.00    +0.000 A 
ATOM     24  S   UNL     1      43.403   2.900  11.992  0.00  0.00    +0.000 S 
ATOM     25  C   UNL     1      44.184   3.187  10.507  0.00  0.00    +0.000 A 
ATOM     26  N   UNL     1      44.124   2.277   9.498  0.00  0.00    +0.000 NA
ATOM     27  C   UNL     1      44.784   2.608   8.439  0.00  0.00    +0.000 A 
ATOM     28  N   UNL     1      45.491   3.774   8.295  0.00  0.00    +0.000 N 
ATOM     29  C   UNL     1      45.553   4.736   9.274  0.00  0.00    +0.000 A 
ATOM     30  O   UNL     1      46.150   5.793   9.089  0.00  0.00    +0.000 OA
ATOM     31  C   UNL     1      44.847   4.402  10.495  0.00  0.00    +0.000 A 
ATOM     32  H   UNL     1      45.972   3.985   7.431  0.00  0.00    +0.000 HD
ENDBRANCH  19  22
ENDBRANCH  17  18
ENDBRANCH   4  17
TORSDOF 7
ENDMDL
