MODEL 1
REMARK VINA RESULT:    -8.739      0.000      0.000
REMARK INTER + INTRA:         -12.976
REMARK INTER:                 -12.315
REMARK INTRA:                  -0.661
REMARK UNBOUND:                -0.661
REMARK  Name = 
REMARK  8 active torsions:
REMARK  status: ('A' for Active; 'I' for Inactive)
REMARK    1  A    between atoms: C_1  and  C_2
REMARK    2  A    between atoms: C_2  and  N_3
REMARK    3  A    between atoms: C_2  and  C_16
REMARK    4  A    between atoms: C_4  and  C_6
REMARK    5  A    between atoms: C_19  and  C_20
REMARK    6  A    between atoms: C_20  and  N_21
REMARK    7  A    between atoms: N_21  and  C_22
REMARK    8  A    between atoms: C_22  and  C_23
REMARK                            x       y       z     vdW  Elec       q    Type
REMARK                         _______ _______ _______ _____ _____    ______ ____
ROOT
ATOM      1  C   UNL     1      48.049   8.748  12.143  0.00  0.00    +0.000 C 
ATOM      2  C   UNL     1      46.885   8.196  12.971  0.00  0.00    +0.000 C 
ENDROOT
BRANCH   2   3
ATOM      3  C   UNL     1      46.086   7.096  12.288  0.00  0.00    +0.000 A 
ATOM      4  C   UNL     1      45.019   6.504  12.982  0.00  0.00    +0.000 A 
ATOM      5  C   UNL     1      44.279   5.463  12.414  0.00  0.00    +0.000 A 
ATOM      6  C   UNL     1      44.587   4.980  11.135  0.00  0.00    +0.000 A 
ATOM      7  C   UNL     1      45.655   5.564  10.442  0.00  0.00    +0.000 A 
ATOM      8  C   UNL     1      46.401   6.602  11.015  0.00  0.00    +0.000 A 
BRANCH   6   9
ATOM      9  C   UNL     1      43.807   3.833  10.538  0.00  0.00    +0.000 C 
BRANCH   9  10
ATOM     10  N   UNL     1      44.608   2.615  10.487  0.00  0.00    +0.000 NA
ATOM     11  H   UNL     1      44.318   1.980  11.231  0.00  0.00    +0.000 HD
BRANCH  10  12
ATOM     12  C   UNL     1      44.432   1.914   9.203  0.00  0.00    +0.000 C 
BRANCH  12  13
ATOM     13  C   UNL     1      45.651   2.014   8.299  0.00  0.00    +0.000 A 
ATOM     14  N   UNL     1      45.945   3.228   7.778  0.00  0.00    +0.000 NA
ATOM     15  C   UNL     1      47.024   3.288   6.976  0.00  0.00    +0.000 A 
ATOM     16  C   UNL     1      47.818   2.204   6.687  0.00  0.00    +0.000 A 
ATOM     17  C   UNL     1      47.443   1.020   7.275  0.00  0.00    +0.000 A 
ATOM     18  N   UNL     1      46.376   0.896   8.084  0.00  0.00    +0.000 NA
ENDBRANCH  12  13
ENDBRANCH  10  12
ENDBRANCH   9  10
ENDBRANCH   6   9
ENDBRANCH   2   3
BRANCH   2  19
ATOM     19  N   UNL     1      47.358   7.713  14.255  0.00  0.00    +0.000 N 
ATOM     20  C   UNL     1      48.312   6.733  14.360  0.00  0.00    +0.000 C 
ATOM     21  O   UNL     1      48.882   6.261  13.381  0.00  0.00    +0.000 OA
ATOM     22  H   UNL     1      46.808   7.965  15.069  0.00  0.00    +0.000 HD
BRANCH  20  23
ATOM     23  C   UNL     1      48.666   6.313  15.720  0.00  0.00    +0.000 A 
ATOM     24  C   UNL     1      49.565   7.066  16.463  0.00  0.00    +0.000 A 
ATOM     25  S   UNL     1      49.865   6.435  18.018  0.00  0.00    +0.000 S 
ATOM     26  C   UNL     1      48.841   5.103  17.732  0.00  0.00    +0.000 A 
ATOM     27  N   UNL     1      48.683   4.132  18.670  0.00  0.00    +0.000 NA
ATOM     28  C   UNL     1      47.914   3.160  18.306  0.00  0.00    +0.000 A 
ATOM     29  N   UNL     1      47.279   3.081  17.093  0.00  0.00    +0.000 N 
ATOM     30  C   UNL     1      47.365   4.065  16.137  0.00  0.00    +0.000 A 
ATOM     31  O   UNL     1      46.710   4.009  15.101  0.00  0.00    +0.000 OA
ATOM     32  C   UNL     1      48.252   5.161  16.482  0.00  0.00    +0.000 A 
ATOM     33  H   UNL     1      46.671   2.303  16.880  0.00  0.00    +0.000 HD
ENDBRANCH  20  23
ENDBRANCH   2  19
TORSDOF 7
ENDMDL
MODEL 2
REMARK VINA RESULT:    -8.004      1.763      2.201
REMARK INTER + INTRA:         -11.940
REMARK INTER:                 -10.886
REMARK INTRA:                  -1.054
REMARK UNBOUND:                -0.661
REMARK  Name = 
REMARK  8 active torsions:
REMARK  status: ('A' for Active; 'I' for Inactive)
REMARK    1  A    between atoms: C_1  and  C_2
REMARK    2  A    between atoms: C_2  and  N_3
REMARK    3  A    between atoms: C_2  and  C_16
REMARK    4  A    between atoms: C_4  and  C_6
REMARK    5  A    between atoms: C_19  and  C_20
REMARK    6  A    between atoms: C_20  and  N_21
REMARK    7  A    between atoms: N_21  and  C_22
REMARK    8  A    between atoms: C_22  and  C_23
REMARK                            x       y       z     vdW  Elec       q    Type
REMARK                         _______ _______ _______ _____ _____    ______ ____
ROOT
ATOM      1  C   UNL     1      49.444   7.358  12.867  0.00  0.00    +0.000 C 
ATOM      2  C   UNL     1      48.021   7.556  13.399  0.00  0.00    +0.000 C 
ENDROOT
BRANCH   2   3
ATOM      3  C   UNL     1      46.990   6.598  12.823  0.00  0.00    +0.000 A 
ATOM      4  C   UNL     1      46.617   5.472  13.574  0.00  0.00    +0.000 A 
ATOM      5  C   UNL     1      45.703   4.540  13.073  0.00  0.00    +0.000 A 
ATOM      6  C   UNL     1      45.136   4.706  11.803  0.00  0.00    +0.000 A 
ATOM      7  C   UNL     1      45.511   5.824  11.046  0.00  0.00    +0.000 A 
ATOM      8  C   UNL     1      46.431   6.753  11.546  0.00  0.00    +0.000 A 
BRANCH   6   9
ATOM      9  C   UNL     1      44.175   3.681  11.250  0.00  0.00    +0.000 C 
BRANCH   9  10
ATOM     10  N   UNL     1      44.877   2.494  10.777  0.00  0.00    +0.000 NA
ATOM     11  H   UNL     1      44.639   1.694  11.366  0.00  0.00    +0.000 HD
BRANCH  10  12
ATOM     12  C   UNL     1      44.494   2.163   9.393  0.00  0.00    +0.000 C 
BRANCH  12  13
ATOM     13  C   UNL     1      45.669   2.194   8.428  0.00  0.00    +0.000 A 
ATOM     14  N   UNL     1      46.278   1.019   8.148  0.00  0.00    +0.000 NA
ATOM     15  C   UNL     1      47.320   1.074   7.297  0.00  0.00    +0.000 A 
ATOM     16  C   UNL     1      47.764   2.236   6.712  0.00  0.00    +0.000 A 
ATOM     17  C   UNL     1      47.070   3.373   7.051  0.00  0.00    +0.000 A 
ATOM     18  N   UNL     1      46.023   3.383   7.896  0.00  0.00    +0.000 NA
ENDBRANCH  12  13
ENDBRANCH  10  12
ENDBRANCH   9  10
ENDBRANCH   6   9
ENDBRANCH   2   3
BRANCH   2  19
ATOM     19  N   UNL     1      48.002   7.462  14.847  0.00  0.00    +0.000 N 
ATOM     20  C   UNL     1      48.427   8.490  15.650  0.00  0.00    +0.000 C 
ATOM     21  O   UNL     1      48.772   9.578  15.200  0.00  0.00    +0.000 OA
ATOM     22  H   UNL     1      47.872   6.538  15.243  0.00  0.00    +0.000 HD
BRANCH  20  23
ATOM     23  C   UNL     1      48.392   8.243  17.095  0.00  0.00    +0.000 A 
ATOM     24  C   UNL     1      47.975   9.249  17.957  0.00  0.00    +0.000 A 
ATOM     25  S   UNL     1      47.998   8.796  19.600  0.00  0.00    +0.000 S 
ATOM     26  C   UNL     1      48.616   7.253  19.220  0.00  0.00    +0.000 A 
ATOM     27  N   UNL     1      48.912   6.361  20.200  0.00  0.00    +0.000 NA
ATOM     28  C   UNL     1      49.413   5.248  19.775  0.00  0.00    +0.000 A 
ATOM     29  N   UNL     1      49.631   4.946  18.455  0.00  0.00    +0.000 N 
ATOM     30  C   UNL     1      49.296   5.796  17.427  0.00  0.00    +0.000 A 
ATOM     31  O   UNL     1      49.417   5.458  16.254  0.00  0.00    +0.000 OA
ATOM     32  C   UNL     1      48.767   7.077  17.856  0.00  0.00    +0.000 A 
ATOM     33  H   UNL     1      50.005   4.047  18.188  0.00  0.00    +0.000 HD
ENDBRANCH  20  23
ENDBRANCH   2  19
TORSDOF 7
ENDMDL
MODEL 3
REMARK VINA RESULT:    -7.830      2.048      2.866
REMARK INTER + INTRA:         -11.695
REMARK INTER:                 -10.632
REMARK INTRA:                  -1.063
REMARK UNBOUND:                -0.661
REMARK  Name = 
REMARK  8 active torsions:
REMARK  status: ('A' for Active; 'I' for Inactive)
REMARK    1  A    between atoms: C_1  and  C_2
REMARK    2  A    between atoms: C_2  and  N_3
REMARK    3  A    between atoms: C_2  and  C_16
REMARK    4  A    between atoms: C_4  and  C_6
REMARK    5  A    between atoms: C_19  and  C_20
REMARK    6  A    between atoms: C_20  and  N_21
REMARK    7  A    between atoms: N_21  and  C_22
REMARK    8  A    between atoms: C_22  and  C_23
REMARK                            x       y       z     vdW  Elec       q    Type
REMARK                         _______ _______ _______ _____ _____    ______ ____
ROOT
ATOM      1  C   UNL     1      48.382   7.860  12.227  0.00  0.00    +0.000 C 
ATOM      2  C   UNL     1      47.451   7.183  13.238  0.00  0.00    +0.000 C 
ENDROOT
BRANCH   2   3
ATOM      3  C   UNL     1      46.433   6.234  12.627  0.00  0.00    +0.000 A 
ATOM      4  C   UNL     1      45.970   5.153  13.393  0.00  0.00    +0.000 A 
ATOM      5  C   UNL     1      45.064   4.229  12.863  0.00  0.00    +0.000 A 
ATOM      6  C   UNL     1      44.596   4.358  11.549  0.00  0.00    +0.000 A 
ATOM      7  C   UNL     1      45.062   5.431  10.778  0.00  0.00    +0.000 A 
ATOM      8  C   UNL     1      45.975   6.352  11.307  0.00  0.00    +0.000 A 
BRANCH   6   9
ATOM      9  C   UNL     1      43.644   3.340  10.968  0.00  0.00    +0.000 C 
BRANCH   9  10
ATOM     10  N   UNL     1      43.861   3.163   9.537  0.00  0.00    +0.000 NA
ATOM     11  H   UNL     1      44.414   3.941   9.173  0.00  0.00    +0.000 HD
BRANCH  10  12
ATOM     12  C   UNL     1      44.599   1.918   9.259  0.00  0.00    +0.000 C 
BRANCH  12  13
ATOM     13  C   UNL     1      45.767   2.118   8.306  0.00  0.00    +0.000 A 
ATOM     14  N   UNL     1      46.520   1.036   8.005  0.00  0.00    +0.000 NA
ATOM     15  C   UNL     1      47.552   1.241   7.165  0.00  0.00    +0.000 A 
ATOM     16  C   UNL     1      47.851   2.463   6.612  0.00  0.00    +0.000 A 
ATOM     17  C   UNL     1      47.018   3.496   6.970  0.00  0.00    +0.000 A 
ATOM     18  N   UNL     1      45.972   3.355   7.805  0.00  0.00    +0.000 NA
ENDBRANCH  12  13
ENDBRANCH  10  12
ENDBRANCH   9  10
ENDBRANCH   6   9
ENDBRANCH   2   3
BRANCH   2  19
ATOM     19  N   UNL     1      48.222   6.474  14.243  0.00  0.00    +0.000 N 
ATOM     20  C   UNL     1      48.733   7.103  15.350  0.00  0.00    +0.000 C 
ATOM     21  O   UNL     1      48.506   8.283  15.601  0.00  0.00    +0.000 OA
ATOM     22  H   UNL     1      48.555   5.549  13.994  0.00  0.00    +0.000 HD
BRANCH  20  23
ATOM     23  C   UNL     1      49.528   6.272  16.261  0.00  0.00    +0.000 A 
ATOM     24  C   UNL     1      48.889   5.388  17.120  0.00  0.00    +0.000 A 
ATOM     25  S   UNL     1      49.959   4.504  18.111  0.00  0.00    +0.000 S 
ATOM     26  C   UNL     1      51.312   5.312  17.459  0.00  0.00    +0.000 A 
ATOM     27  N   UNL     1      52.565   5.051  17.915  0.00  0.00    +0.000 NA
ATOM     28  C   UNL     1      53.491   5.764  17.366  0.00  0.00    +0.000 A 
ATOM     29  N   UNL     1      53.276   6.705  16.392  0.00  0.00    +0.000 N 
ATOM     30  C   UNL     1      52.034   6.962  15.861  0.00  0.00    +0.000 A 
ATOM     31  O   UNL     1      51.888   7.743  14.925  0.00  0.00    +0.000 OA
ATOM     32  C   UNL     1      50.952   6.215  16.476  0.00  0.00    +0.000 A 
ATOM     33  H   UNL     1      54.048   7.213  15.987  0.00  0.00    +0.000 HD
ENDBRANCH  20  23
ENDBRANCH   2  19
TORSDOF 7
ENDMDL
MODEL 4
REMARK VINA RESULT:    -7.698      2.636      3.624
REMARK INTER + INTRA:         -11.509
REMARK INTER:                 -10.246
REMARK INTRA:                  -1.262
REMARK UNBOUND:                -0.661
REMARK  Name = 
REMARK  8 active torsions:
REMARK  status: ('A' for Active; 'I' for Inactive)
REMARK    1  A    between atoms: C_1  and  C_2
REMARK    2  A    between atoms: C_2  and  N_3
REMARK    3  A    between atoms: C_2  and  C_16
REMARK    4  A    between atoms: C_4  and  C_6
REMARK    5  A    between atoms: C_19  and  C_20
REMARK    6  A    between atoms: C_20  and  N_21
REMARK    7  A    between atoms: N_21  and  C_22
REMARK    8  A    between atoms: C_22  and  C_23
REMARK                            x       y       z     vdW  Elec       q    Type
REMARK                         _______ _______ _______ _____ _____    ______ ____
ROOT
ATOM      1  C   UNL     1      47.525   4.045  16.021  0.00  0.00    +0.000 C 
ATOM      2  C   UNL     1      47.698   4.988  14.826  0.00  0.00    +0.000 C 
ENDROOT
BRANCH   2   3
ATOM      3  C   UNL     1      46.646   4.835  13.739  0.00  0.00    +0.000 A 
ATOM      4  C   UNL     1      46.008   5.985  13.247  0.00  0.00    +0.000 A 
ATOM      5  C   UNL     1      45.006   5.894  12.276  0.00  0.00    +0.000 A 
ATOM      6  C   UNL     1      44.611   4.649  11.770  0.00  0.00    +0.000 A 
ATOM      7  C   UNL     1      45.239   3.499  12.263  0.00  0.00    +0.000 A 
ATOM      8  C   UNL     1      46.237   3.590  13.241  0.00  0.00    +0.000 A 
BRANCH   6   9
ATOM      9  C   UNL     1      43.505   4.552  10.745  0.00  0.00    +0.000 C 
BRANCH   9  10
ATOM     10  N   UNL     1      43.845   3.614   9.682  0.00  0.00    +0.000 NA
ATOM     11  H   UNL     1      42.993   3.284   9.226  0.00  0.00    +0.000 HD
BRANCH  10  12
ATOM     12  C   UNL     1      44.687   4.254   8.656  0.00  0.00    +0.000 C 
BRANCH  12  13
ATOM     13  C   UNL     1      45.635   3.280   7.973  0.00  0.00    +0.000 A 
ATOM     14  N   UNL     1      45.731   2.034   8.491  0.00  0.00    +0.000 NA
ATOM     15  C   UNL     1      46.582   1.194   7.874  0.00  0.00    +0.000 A 
ATOM     16  C   UNL     1      47.321   1.538   6.767  0.00  0.00    +0.000 A 
ATOM     17  C   UNL     1      47.142   2.821   6.309  0.00  0.00    +0.000 A 
ATOM     18  N   UNL     1      46.308   3.707   6.884  0.00  0.00    +0.000 NA
ENDBRANCH  12  13
ENDBRANCH  10  12
ENDBRANCH   9  10
ENDBRANCH   6   9
ENDBRANCH   2   3
BRANCH   2  19
ATOM     19  N   UNL     1      47.728   6.370  15.269  0.00  0.00    +0.000 N 
ATOM     20  C   UNL     1      48.903   7.057  15.438  0.00  0.00    +0.000 C 
ATOM     21  O   UNL     1      49.995   6.575  15.150  0.00  0.00    +0.000 OA
ATOM     22  H   UNL     1      46.869   6.743  15.658  0.00  0.00    +0.000 HD
BRANCH  20  23
ATOM     23  C   UNL     1      48.787   8.433  15.931  0.00  0.00    +0.000 A 
ATOM     24  C   UNL     1      49.202   9.489  15.131  0.00  0.00    +0.000 A 
ATOM     25  S   UNL     1      49.000  11.018  15.857  0.00  0.00    +0.000 S 
ATOM     26  C   UNL     1      48.397  10.317  17.289  0.00  0.00    +0.000 A 
ATOM     27  N   UNL     1      48.066  11.089  18.356  0.00  0.00    +0.000 NA
ATOM     28  C   UNL     1      47.664  10.425  19.389  0.00  0.00    +0.000 A 
ATOM     29  N   UNL     1      47.553   9.060  19.443  0.00  0.00    +0.000 N 
ATOM     30  C   UNL     1      47.823   8.243  18.370  0.00  0.00    +0.000 A 
ATOM     31  O   UNL     1      47.623   7.034  18.422  0.00  0.00    +0.000 OA
ATOM     32  C   UNL     1      48.319   8.939  17.197  0.00  0.00    +0.000 A 
ATOM     33  H   UNL     1      47.209   8.603  20.276  0.00  0.00    +0.000 HD
ENDBRANCH  20  23
ENDBRANCH   2  19
TORSDOF 7
ENDMDL
MODEL 5
REMARK VINA RESULT:    -7.596      2.622      3.839
REMARK INTER + INTRA:         -11.366
REMARK INTER:                 -10.301
REMARK INTRA:                  -1.064
REMARK UNBOUND:                -0.661
REMARK  Name = 
REMARK  8 active torsions:
REMARK  status: ('A' for Active; 'I' for Inactive)
REMARK    1  A    between atoms: C_1  and  C_2
REMARK    2  A    between atoms: C_2  and  N_3
REMARK    3  A    between atoms: C_2  and  C_16
REMARK    4  A    between atoms: C_4  and  C_6
REMARK    5  A    between atoms: C_19  and  C_20
REMARK    6  A    between atoms: C_20  and  N_21
REMARK    7  A    between atoms: N_21  and  C_22
REMARK    8  A    between atoms: C_22  and  C_23
REMARK                            x       y       z     vdW  Elec       q    Type
REMARK                         _______ _______ _______ _____ _____    ______ ____
ROOT
ATOM      1  C   UNL     1      47.576   3.282  16.032  0.00  0.00    +0.000 C 
ATOM      2  C   UNL     1      47.887   4.658  15.435  0.00  0.00    +0.000 C 
ENDROOT
BRANCH   2   3
ATOM      3  C   UNL     1      47.074   5.012  14.200  0.00  0.00    +0.000 A 
ATOM      4  C   UNL     1      46.164   4.069  13.694  0.00  0.00    +0.000 A 
ATOM      5  C   UNL     1      45.422   4.331  12.539  0.00  0.00    +0.000 A 
ATOM      6  C   UNL     1      45.569   5.544  11.853  0.00  0.00    +0.000 A 
ATOM      7  C   UNL     1      46.480   6.484  12.350  0.00  0.00    +0.000 A 
ATOM      8  C   UNL     1      47.229   6.219  13.503  0.00  0.00    +0.000 A 
BRANCH   6   9
ATOM      9  C   UNL     1      44.790   5.810  10.586  0.00  0.00    +0.000 C 
BRANCH   9  10
ATOM     10  N   UNL     1      45.482   5.283   9.416  0.00  0.00    +0.000 NA
ATOM     11  H   UNL     1      46.437   5.023   9.667  0.00  0.00    +0.000 HD
BRANCH  10  12
ATOM     12  C   UNL     1      44.810   4.078   8.897  0.00  0.00    +0.000 C 
BRANCH  12  13
ATOM     13  C   UNL     1      45.720   3.214   8.037  0.00  0.00    +0.000 A 
ATOM     14  N   UNL     1      46.260   3.781   6.934  0.00  0.00    +0.000 NA
ATOM     15  C   UNL     1      47.055   2.993   6.186  0.00  0.00    +0.000 A 
ATOM     16  C   UNL     1      47.340   1.685   6.498  0.00  0.00    +0.000 A 
ATOM     17  C   UNL     1      46.753   1.207   7.645  0.00  0.00    +0.000 A 
ATOM     18  N   UNL     1      45.949   1.944   8.433  0.00  0.00    +0.000 NA
ENDBRANCH  12  13
ENDBRANCH  10  12
ENDBRANCH   9  10
ENDBRANCH   6   9
ENDBRANCH   2   3
BRANCH   2  19
ATOM     19  N   UNL     1      47.714   5.697  16.434  0.00  0.00    +0.000 N 
ATOM     20  C   UNL     1      48.717   6.049  17.301  0.00  0.00    +0.000 C 
ATOM     21  O   UNL     1      49.844   5.567  17.236  0.00  0.00    +0.000 OA
ATOM     22  H   UNL     1      46.765   6.002  16.616  0.00  0.00    +0.000 HD
BRANCH  20  23
ATOM     23  C   UNL     1      48.390   7.085  18.287  0.00  0.00    +0.000 A 
ATOM     24  C   UNL     1      48.255   6.744  19.626  0.00  0.00    +0.000 A 
ATOM     25  S   UNL     1      47.871   8.065  20.633  0.00  0.00    +0.000 S 
ATOM     26  C   UNL     1      47.822   9.131  19.304  0.00  0.00    +0.000 A 
ATOM     27  N   UNL     1      47.499  10.440  19.472  0.00  0.00    +0.000 NA
ATOM     28  C   UNL     1      47.457  11.123  18.376  0.00  0.00    +0.000 A 
ATOM     29  N   UNL     1      47.723  10.616  17.131  0.00  0.00    +0.000 N 
ATOM     30  C   UNL     1      48.109   9.313  16.920  0.00  0.00    +0.000 A 
ATOM     31  O   UNL     1      48.431   8.915  15.804  0.00  0.00    +0.000 OA
ATOM     32  C   UNL     1      48.130   8.493  18.116  0.00  0.00    +0.000 A 
ATOM     33  H   UNL     1      47.695  11.211  16.316  0.00  0.00    +0.000 HD
ENDBRANCH  20  23
ENDBRANCH   2  19
TORSDOF 7
ENDMDL
MODEL 6
REMARK VINA RESULT:    -7.130      2.266      4.001
REMARK INTER + INTRA:         -10.709
REMARK INTER:                  -9.858
REMARK INTRA:                  -0.851
REMARK UNBOUND:                -0.661
REMARK  Name = 
REMARK  8 active torsions:
REMARK  status: ('A' for Active; 'I' for Inactive)
REMARK    1  A    between atoms: C_1  and  C_2
REMARK    2  A    between atoms: C_2  and  N_3
REMARK    3  A    between atoms: C_2  and  C_16
REMARK    4  A    between atoms: C_4  and  C_6
REMARK    5  A    between atoms: C_19  and  C_20
REMARK    6  A    between atoms: C_20  and  N_21
REMARK    7  A    between atoms: N_21  and  C_22
REMARK    8  A    between atoms: C_22  and  C_23
REMARK                            x       y       z     vdW  Elec       q    Type
REMARK                         _______ _______ _______ _____ _____    ______ ____
ROOT
ATOM      1  C   UNL     1      47.218   3.932  16.039  0.00  0.00    +0.000 C 
ATOM      2  C   UNL     1      47.520   4.818  14.827  0.00  0.00    +0.000 C 
ENDROOT
BRANCH   2   3
ATOM      3  C   UNL     1      46.425   4.847  13.773  0.00  0.00    +0.000 A 
ATOM      4  C   UNL     1      45.961   3.632  13.245  0.00  0.00    +0.000 A 
ATOM      5  C   UNL     1      44.984   3.606  12.246  0.00  0.00    +0.000 A 
ATOM      6  C   UNL     1      44.443   4.797  11.743  0.00  0.00    +0.000 A 
ATOM      7  C   UNL     1      44.908   6.012  12.262  0.00  0.00    +0.000 A 
ATOM      8  C   UNL     1      45.892   6.037  13.257  0.00  0.00    +0.000 A 
BRANCH   6   9
ATOM      9  C   UNL     1      43.411   4.767  10.639  0.00  0.00    +0.000 C 
BRANCH   9  10
ATOM     10  N   UNL     1      43.798   3.850   9.574  0.00  0.00    +0.000 NA
ATOM     11  H   UNL     1      43.013   3.708   8.937  0.00  0.00    +0.000 HD
BRANCH  10  12
ATOM     12  C   UNL     1      44.923   4.389   8.788  0.00  0.00    +0.000 C 
BRANCH  12  13
ATOM     13  C   UNL     1      45.786   3.304   8.163  0.00  0.00    +0.000 A 
ATOM     14  N   UNL     1      46.680   3.682   7.221  0.00  0.00    +0.000 NA
ATOM     15  C   UNL     1      47.426   2.702   6.678  0.00  0.00    +0.000 A 
ATOM     16  C   UNL     1      47.327   1.380   7.042  0.00  0.00    +0.000 A 
ATOM     17  C   UNL     1      46.399   1.101   8.016  0.00  0.00    +0.000 A 
ATOM     18  N   UNL     1      45.623   2.035   8.595  0.00  0.00    +0.000 NA
ENDBRANCH  12  13
ENDBRANCH  10  12
ENDBRANCH   9  10
ENDBRANCH   6   9
ENDBRANCH   2   3
BRANCH   2  19
ATOM     19  N   UNL     1      47.810   6.176  15.251  0.00  0.00    +0.000 N 
ATOM     20  C   UNL     1      48.954   6.498  15.937  0.00  0.00    +0.000 C 
ATOM     21  O   UNL     1      49.838   5.678  16.165  0.00  0.00    +0.000 OA
ATOM     22  H   UNL     1      47.044   6.839  15.217  0.00  0.00    +0.000 HD
BRANCH  20  23
ATOM     23  C   UNL     1      49.098   7.901  16.339  0.00  0.00    +0.000 A 
ATOM     24  C   UNL     1      48.696   8.299  17.608  0.00  0.00    +0.000 A 
ATOM     25  S   UNL     1      48.930   9.960  17.910  0.00  0.00    +0.000 S 
ATOM     26  C   UNL     1      49.529  10.215  16.334  0.00  0.00    +0.000 A 
ATOM     27  N   UNL     1      49.882  11.459  15.916  0.00  0.00    +0.000 NA
ATOM     28  C   UNL     1      50.278  11.516  14.688  0.00  0.00    +0.000 A 
ATOM     29  N   UNL     1      50.365  10.437  13.846  0.00  0.00    +0.000 N 
ATOM     30  C   UNL     1      50.074   9.153  14.243  0.00  0.00    +0.000 A 
ATOM     31  O   UNL     1      50.252   8.197  13.494  0.00  0.00    +0.000 OA
ATOM     32  C   UNL     1      49.583   9.042  15.604  0.00  0.00    +0.000 A 
ATOM     33  H   UNL     1      50.706  10.546  12.902  0.00  0.00    +0.000 HD
ENDBRANCH  20  23
ENDBRANCH   2  19
TORSDOF 7
ENDMDL
MODEL 7
REMARK VINA RESULT:    -7.126      2.615      3.209
REMARK INTER + INTRA:         -10.702
REMARK INTER:                  -9.841
REMARK INTRA:                  -0.862
REMARK UNBOUND:                -0.661
REMARK  Name = 
REMARK  8 active torsions:
REMARK  status: ('A' for Active; 'I' for Inactive)
REMARK    1  A    between atoms: C_1  and  C_2
REMARK    2  A    between atoms: C_2  and  N_3
REMARK    3  A    between atoms: C_2  and  C_16
REMARK    4  A    between atoms: C_4  and  C_6
REMARK    5  A    between atoms: C_19  and  C_20
REMARK    6  A    between atoms: C_20  and  N_21
REMARK    7  A    between atoms: N_21  and  C_22
REMARK    8  A    between atoms: C_22  and  C_23
REMARK                            x       y       z     vdW  Elec       q    Type
REMARK                         _______ _______ _______ _____ _____    ______ ____
ROOT
ATOM      1  C   UNL     1      45.909   9.814  11.982  0.00  0.00    +0.000 C 
ATOM      2  C   UNL     1      46.291   8.723  12.987  0.00  0.00    +0.000 C 
ENDROOT
BRANCH   2   3
ATOM      3  C   UNL     1      45.680   7.359  12.706  0.00  0.00    +0.000 A 
ATOM      4  C   UNL     1      46.345   6.211  13.166  0.00  0.00    +0.000 A 
ATOM      5  C   UNL     1      45.846   4.933  12.899  0.00  0.00    +0.000 A 
ATOM      6  C   UNL     1      44.666   4.764  12.163  0.00  0.00    +0.000 A 
ATOM      7  C   UNL     1      44.003   5.907  11.696  0.00  0.00    +0.000 A 
ATOM      8  C   UNL     1      44.508   7.186  11.957  0.00  0.00    +0.000 A 
BRANCH   6   9
ATOM      9  C   UNL     1      44.147   3.381  11.848  0.00  0.00    +0.000 C 
BRANCH   9  10
ATOM     10  N   UNL     1      45.016   2.689  10.904  0.00  0.00    +0.000 NA
ATOM     11  H   UNL     1      45.133   1.716  11.190  0.00  0.00    +0.000 HD
BRANCH  10  12
ATOM     12  C   UNL     1      44.440   2.692   9.547  0.00  0.00    +0.000 C 
BRANCH  12  13
ATOM     13  C   UNL     1      45.481   2.483   8.458  0.00  0.00    +0.000 A 
ATOM     14  N   UNL     1      45.725   3.517   7.621  0.00  0.00    +0.000 NA
ATOM     15  C   UNL     1      46.645   3.305   6.662  0.00  0.00    +0.000 A 
ATOM     16  C   UNL     1      47.331   2.123   6.514  0.00  0.00    +0.000 A 
ATOM     17  C   UNL     1      47.020   1.139   7.422  0.00  0.00    +0.000 A 
ATOM     18  N   UNL     1      46.110   1.290   8.402  0.00  0.00    +0.000 NA
ENDBRANCH  12  13
ENDBRANCH  10  12
ENDBRANCH   9  10
ENDBRANCH   6   9
ENDBRANCH   2   3
BRANCH   2  19
ATOM     19  N   UNL     1      47.734   8.591  13.069  0.00  0.00    +0.000 N 
ATOM     20  C   UNL     1      48.427   8.864  14.222  0.00  0.00    +0.000 C 
ATOM     21  O   UNL     1      47.867   9.158  15.273  0.00  0.00    +0.000 OA
ATOM     22  H   UNL     1      48.236   8.502  12.192  0.00  0.00    +0.000 HD
BRANCH  20  23
ATOM     23  C   UNL     1      49.886   8.729  14.150  0.00  0.00    +0.000 A 
ATOM     24  C   UNL     1      50.595   9.416  13.175  0.00  0.00    +0.000 A 
ATOM     25  S   UNL     1      52.277   9.145  13.232  0.00  0.00    +0.000 S 
ATOM     26  C   UNL     1      52.109   8.057  14.533  0.00  0.00    +0.000 A 
ATOM     27  N   UNL     1      53.191   7.416  15.049  0.00  0.00    +0.000 NA
ATOM     28  C   UNL     1      52.916   6.588  16.002  0.00  0.00    +0.000 A 
ATOM     29  N   UNL     1      51.657   6.355  16.492  0.00  0.00    +0.000 N 
ATOM     30  C   UNL     1      50.542   7.020  16.039  0.00  0.00    +0.000 A 
ATOM     31  O   UNL     1      49.444   6.857  16.563  0.00  0.00    +0.000 OA
ATOM     32  C   UNL     1      50.793   7.932  14.939  0.00  0.00    +0.000 A 
ATOM     33  H   UNL     1      51.512   5.710  17.256  0.00  0.00    +0.000 HD
ENDBRANCH  20  23
ENDBRANCH   2  19
TORSDOF 7
ENDMDL
MODEL 8
REMARK VINA RESULT:    -7.045      2.021      2.592
REMARK INTER + INTRA:         -10.588
REMARK INTER:                  -9.380
REMARK INTRA:                  -1.208
REMARK UNBOUND:                -0.661
REMARK  Name = 
REMARK  8 active torsions:
REMARK  status: ('A' for Active; 'I' for Inactive)
REMARK    1  A    between atoms: C_1  and  C_2
REMARK    2  A    between atoms: C_2  and  N_3
REMARK    3  A    between atoms: C_2  and  C_16
REMARK    4  A    between atoms: C_4  and  C_6
REMARK    5  A    between atoms: C_19  and  C_20
REMARK    6  A    between atoms: C_20  and  N_21
REMARK    7  A    between atoms: N_21  and  C_22
REMARK    8  A    between atoms: C_22  and  C_23
REMARK                            x       y       z     vdW  Elec       q    Type
REMARK                         _______ _______ _______ _____ _____    ______ ____
ROOT
ATOM      1  C   UNL     1      50.014   7.765  11.342  0.00  0.00    +0.000 C 
ATOM      2  C   UNL     1      49.296   7.870  12.691  0.00  0.00    +0.000 C 
ENDROOT
BRANCH   2   3
ATOM      3  C   UNL     1      47.911   7.242  12.724  0.00  0.00    +0.000 A 
ATOM      4  C   UNL     1      47.780   5.914  13.163  0.00  0.00    +0.000 A 
ATOM      5  C   UNL     1      46.535   5.279  13.174  0.00  0.00    +0.000 A 
ATOM      6  C   UNL     1      45.384   5.951  12.743  0.00  0.00    +0.000 A 
ATOM      7  C   UNL     1      45.512   7.272  12.297  0.00  0.00    +0.000 A 
ATOM      8  C   UNL     1      46.760   7.906  12.279  0.00  0.00    +0.000 A 
BRANCH   6   9
ATOM      9  C   UNL     1      44.046   5.250  12.724  0.00  0.00    +0.000 C 
BRANCH   9  10
ATOM     10  N   UNL     1      43.596   4.998  11.361  0.00  0.00    +0.000 NA
ATOM     11  H   UNL     1      44.148   5.555  10.706  0.00  0.00    +0.000 HD
BRANCH  10  12
ATOM     12  C   UNL     1      43.764   3.580  10.997  0.00  0.00    +0.000 C 
BRANCH  12  13
ATOM     13  C   UNL     1      44.672   3.378   9.794  0.00  0.00    +0.000 A 
ATOM     14  N   UNL     1      45.164   4.484   9.190  0.00  0.00    +0.000 NA
ATOM     15  C   UNL     1      45.959   4.279   8.124  0.00  0.00    +0.000 A 
ATOM     16  C   UNL     1      46.289   3.032   7.649  0.00  0.00    +0.000 A 
ATOM     17  C   UNL     1      45.749   1.973   8.339  0.00  0.00    +0.000 A 
ATOM     18  N   UNL     1      44.947   2.113   9.411  0.00  0.00    +0.000 NA
ENDBRANCH  12  13
ENDBRANCH  10  12
ENDBRANCH   9  10
ENDBRANCH   6   9
ENDBRANCH   2   3
BRANCH   2  19
ATOM     19  N   UNL     1      50.107   7.289  13.745  0.00  0.00    +0.000 N 
ATOM     20  C   UNL     1      50.136   7.809  15.014  0.00  0.00    +0.000 C 
ATOM     21  O   UNL     1      49.420   8.745  15.359  0.00  0.00    +0.000 OA
ATOM     22  H   UNL     1      50.818   6.623  13.460  0.00  0.00    +0.000 HD
BRANCH  20  23
ATOM     23  C   UNL     1      51.033   7.148  15.968  0.00  0.00    +0.000 A 
ATOM     24  C   UNL     1      52.317   7.641  16.161  0.00  0.00    +0.000 A 
ATOM     25  S   UNL     1      53.225   6.754  17.300  0.00  0.00    +0.000 S 
ATOM     26  C   UNL     1      51.949   5.649  17.535  0.00  0.00    +0.000 A 
ATOM     27  N   UNL     1      52.091   4.589  18.373  0.00  0.00    +0.000 NA
ATOM     28  C   UNL     1      51.063   3.808  18.423  0.00  0.00    +0.000 A 
ATOM     29  N   UNL     1      49.902   4.002  17.721  0.00  0.00    +0.000 N 
ATOM     30  C   UNL     1      49.693   5.089  16.906  0.00  0.00    +0.000 A 
ATOM     31  O   UNL     1      48.608   5.283  16.364  0.00  0.00    +0.000 OA
ATOM     32  C   UNL     1      50.835   5.975  16.782  0.00  0.00    +0.000 A 
ATOM     33  H   UNL     1      49.125   3.365  17.824  0.00  0.00    +0.000 HD
ENDBRANCH  20  23
ENDBRANCH   2  19
TORSDOF 7
ENDMDL
MODEL 9
REMARK VINA RESULT:    -6.985      3.178      5.040
REMARK INTER + INTRA:         -10.505
REMARK INTER:                  -9.486
REMARK INTRA:                  -1.020
REMARK UNBOUND:                -0.661
REMARK  Name = 
REMARK  8 active torsions:
REMARK  status: ('A' for Active; 'I' for Inactive)
REMARK    1  A    between atoms: C_1  and  C_2
REMARK    2  A    between atoms: C_2  and  N_3
REMARK    3  A    between atoms: C_2  and  C_16
REMARK    4  A    between atoms: C_4  and  C_6
REMARK    5  A    between atoms: C_19  and  C_20
REMARK    6  A    between atoms: C_20  and  N_21
REMARK    7  A    between atoms: N_21  and  C_22
REMARK    8  A    between atoms: C_22  and  C_23
REMARK                            x       y       z     vdW  Elec       q    Type
REMARK                         _______ _______ _______ _____ _____    ______ ____
ROOT
ATOM      1  C   UNL     1      47.211   4.729  18.456  0.00  0.00    +0.000 C 
ATOM      2  C   UNL     1      47.799   3.898  17.311  0.00  0.00    +0.000 C 
ENDROOT
BRANCH   2   3
ATOM      3  C   UNL     1      47.660   4.527  15.934  0.00  0.00    +0.000 A 
ATOM      4  C   UNL     1      48.278   5.763  15.688  0.00  0.00    +0.000 A 
ATOM      5  C   UNL     1      48.147   6.402  14.452  0.00  0.00    +0.000 A 
ATOM      6  C   UNL     1      47.390   5.824  13.424  0.00  0.00    +0.000 A 
ATOM      7  C   UNL     1      46.765   4.594  13.668  0.00  0.00    +0.000 A 
ATOM      8  C   UNL     1      46.891   3.958  14.909  0.00  0.00    +0.000 A 
BRANCH   6   9
ATOM      9  C   UNL     1      47.222   6.532  12.100  0.00  0.00    +0.000 C 
BRANCH   9  10
ATOM     10  N   UNL     1      45.842   6.470  11.635  0.00  0.00    +0.000 NA
ATOM     11  H   UNL     1      45.355   7.333  11.882  0.00  0.00    +0.000 HD
BRANCH  10  12
ATOM     12  C   UNL     1      45.779   6.321  10.170  0.00  0.00    +0.000 C 
BRANCH  12  13
ATOM     13  C   UNL     1      45.398   4.915   9.731  0.00  0.00    +0.000 A 
ATOM     14  N   UNL     1      45.718   4.547   8.469  0.00  0.00    +0.000 NA
ATOM     15  C   UNL     1      45.363   3.302   8.102  0.00  0.00    +0.000 A 
ATOM     16  C   UNL     1      44.723   2.416   8.937  0.00  0.00    +0.000 A 
ATOM     17  C   UNL     1      44.455   2.882  10.202  0.00  0.00    +0.000 A 
ATOM     18  N   UNL     1      44.783   4.115  10.627  0.00  0.00    +0.000 NA
ENDBRANCH  12  13
ENDBRANCH  10  12
ENDBRANCH   9  10
ENDBRANCH   6   9
ENDBRANCH   2   3
BRANCH   2  19
ATOM     19  N   UNL     1      49.198   3.605  17.562  0.00  0.00    +0.000 N 
ATOM     20  C   UNL     1      49.833   2.530  16.992  0.00  0.00    +0.000 C 
ATOM     21  O   UNL     1      49.282   1.798  16.175  0.00  0.00    +0.000 OA
ATOM     22  H   UNL     1      49.634   4.089  18.340  0.00  0.00    +0.000 HD
BRANCH  20  23
ATOM     23  C   UNL     1      51.236   2.330  17.367  0.00  0.00    +0.000 A 
ATOM     24  C   UNL     1      51.721   1.043  17.560  0.00  0.00    +0.000 A 
ATOM     25  S   UNL     1      53.369   0.991  17.993  0.00  0.00    +0.000 S 
ATOM     26  C   UNL     1      53.478   2.692  17.988  0.00  0.00    +0.000 A 
ATOM     27  N   UNL     1      54.637   3.316  18.324  0.00  0.00    +0.000 NA
ATOM     28  C   UNL     1      54.567   4.606  18.321  0.00  0.00    +0.000 A 
ATOM     29  N   UNL     1      53.446   5.325  17.998  0.00  0.00    +0.000 N 
ATOM     30  C   UNL     1      52.269   4.737  17.597  0.00  0.00    +0.000 A 
ATOM     31  O   UNL     1      51.313   5.410  17.224  0.00  0.00    +0.000 OA
ATOM     32  C   UNL     1      52.283   3.287  17.625  0.00  0.00    +0.000 A 
ATOM     33  H   UNL     1      53.465   6.335  17.992  0.00  0.00    +0.000 HD
ENDBRANCH  20  23
ENDBRANCH   2  19
TORSDOF 7
ENDMDL
