MODEL 1
REMARK VINA RESULT:    -7.917      0.000      0.000
REMARK INTER + INTRA:         -11.174
REMARK INTER:                 -10.694
REMARK INTRA:                  -0.480
REMARK UNBOUND:                -0.480
REMARK  Name = 
REMARK  7 active torsions:
REMARK  status: ('A' for Active; 'I' for Inactive)
REMARK    1  A    between atoms: N_1  and  C_2
REMARK    2  A    between atoms: C_2  and  C_3
REMARK    3  A    between atoms: C_6  and  O_7
REMARK    4  A    between atoms: O_7  and  C_8
REMARK    5  A    between atoms: C_8  and  C_9
REMARK    6  A    between atoms: CA_13  and  C_14
REMARK    7  A    between atoms: C_14  and  OXT_16
REMARK                            x       y       z     vdW  Elec       q    Type
REMARK                         _______ _______ _______ _____ _____    ______ ____
ROOT
ATOM      1  O   UNL     1      43.627   4.225   9.946  0.00  0.00    +0.000 OA
ENDROOT
BRANCH   1   5
ATOM      2  C   UNL     1      46.493   2.269   7.612  0.00  0.00    +0.000 A 
ATOM      3  C   UNL     1      45.693   1.517   8.484  0.00  0.00    +0.000 A 
ATOM      4  C   UNL     1      44.723   2.135   9.282  0.00  0.00    +0.000 A 
ATOM      5  C   UNL     1      44.547   3.517   9.222  0.00  0.00    +0.000 A 
ATOM      6  C   UNL     1      45.314   4.268   8.332  0.00  0.00    +0.000 A 
ATOM      7  C   UNL     1      46.287   3.653   7.539  0.00  0.00    +0.000 A 
BRANCH   2   8
ATOM      8  C   UNL     1      47.571   1.607   6.792  0.00  0.00    +0.000 C 
BRANCH   8   9
ATOM      9  N   UNL     1      48.597   2.556   6.375  0.00  0.00    +0.000 NA
ATOM     10  H   UNL     1      49.423   2.425   6.955  0.00  0.00    +0.000 HD
ATOM     11  H   UNL     1      48.263   3.502   6.560  0.00  0.00    +0.000 HD
ENDBRANCH   8   9
ENDBRANCH   2   8
ENDBRANCH   1   5
BRANCH   1  12
ATOM     12  C   UNL     1      43.594   3.927  11.346  0.00  0.00    +0.000 C 
BRANCH  12  13
ATOM     13  C   UNL     1      44.703   4.681  12.053  0.00  0.00    +0.000 A 
ATOM     14  N   UNL     1      44.962   5.938  11.629  0.00  0.00    +0.000 NA
ATOM     15  C   UNL     1      45.946   6.616  12.249  0.00  0.00    +0.000 A 
ATOM     16  C   UNL     1      46.680   6.100  13.282  0.00  0.00    +0.000 A 
ATOM     17  CA  UNL     1      46.337   4.820  13.650  0.00  0.00    +0.000 A 
ATOM     18  N   UNL     1      45.354   4.080  13.070  0.00  0.00    +0.000 NA
BRANCH  17  19
ATOM     19  C   UNL     1      47.074   4.154  14.760  0.00  0.00    +0.000 C 
ATOM     20  O   UNL     1      47.563   3.039  14.699  0.00  0.00    +0.000 OA
BRANCH  19  21
ATOM     21  OXT UNL     1      47.130   4.955  15.850  0.00  0.00    +0.000 OA
ATOM     22  HXT UNL     1      46.716   5.824  15.632  0.00  0.00    +0.000 HD
ENDBRANCH  19  21
ENDBRANCH  17  19
ENDBRANCH  12  13
ENDBRANCH   1  12
TORSDOF 7
ENDMDL
MODEL 2
REMARK VINA RESULT:    -7.595      1.538      2.470
REMARK INTER + INTRA:         -10.739
REMARK INTER:                 -10.259
REMARK INTRA:                  -0.480
REMARK UNBOUND:                -0.480
REMARK  Name = 
REMARK  7 active torsions:
REMARK  status: ('A' for Active; 'I' for Inactive)
REMARK    1  A    between atoms: N_1  and  C_2
REMARK    2  A    between atoms: C_2  and  C_3
REMARK    3  A    between atoms: C_6  and  O_7
REMARK    4  A    between atoms: O_7  and  C_8
REMARK    5  A    between atoms: C_8  and  C_9
REMARK    6  A    between atoms: CA_13  and  C_14
REMARK    7  A    between atoms: C_14  and  OXT_16
REMARK                            x       y       z     vdW  Elec       q    Type
REMARK                         _______ _______ _______ _____ _____    ______ ____
ROOT
ATOM      1  O   UNL     1      43.605   3.771  10.111  0.00  0.00    +0.000 OA
ENDROOT
BRANCH   1   5
ATOM      2  C   UNL     1      46.554   2.305   7.534  0.00  0.00    +0.000 A 
ATOM      3  C   UNL     1      46.279   3.680   7.546  0.00  0.00    +0.000 A 
ATOM      4  C   UNL     1      45.300   4.209   8.394  0.00  0.00    +0.000 A 
ATOM      5  C   UNL     1      44.576   3.366   9.237  0.00  0.00    +0.000 A 
ATOM      6  C   UNL     1      44.868   2.002   9.256  0.00  0.00    +0.000 A 
ATOM      7  C   UNL     1      45.841   1.471   8.406  0.00  0.00    +0.000 A 
BRANCH   2   8
ATOM      8  C   UNL     1      47.573   1.731   6.582  0.00  0.00    +0.000 C 
BRANCH   8   9
ATOM      9  N   UNL     1      48.666   2.663   6.329  0.00  0.00    +0.000 NA
ATOM     10  H   UNL     1      49.426   2.466   6.976  0.00  0.00    +0.000 HD
ATOM     11  H   UNL     1      48.346   3.608   6.541  0.00  0.00    +0.000 HD
ENDBRANCH   8   9
ENDBRANCH   2   8
ENDBRANCH   1   5
BRANCH   1  12
ATOM     12  C   UNL     1      43.707   3.224  11.430  0.00  0.00    +0.000 C 
BRANCH  12  13
ATOM     13  C   UNL     1      44.784   3.959  12.204  0.00  0.00    +0.000 A 
ATOM     14  N   UNL     1      45.687   3.206  12.871  0.00  0.00    +0.000 NA
ATOM     15  C   UNL     1      46.646   3.848  13.564  0.00  0.00    +0.000 A 
ATOM     16  C   UNL     1      46.752   5.211  13.615  0.00  0.00    +0.000 A 
ATOM     17  CA  UNL     1      45.796   5.891  12.897  0.00  0.00    +0.000 A 
ATOM     18  N   UNL     1      44.802   5.307  12.174  0.00  0.00    +0.000 NA
BRANCH  17  19
ATOM     19  C   UNL     1      45.810   7.381  12.885  0.00  0.00    +0.000 C 
ATOM     20  O   UNL     1      45.079   8.077  12.201  0.00  0.00    +0.000 OA
BRANCH  19  21
ATOM     21  OXT UNL     1      46.744   7.860  13.739  0.00  0.00    +0.000 OA
ATOM     22  HXT UNL     1      46.295   8.202  14.549  0.00  0.00    +0.000 HD
ENDBRANCH  19  21
ENDBRANCH  17  19
ENDBRANCH  12  13
ENDBRANCH   1  12
TORSDOF 7
ENDMDL
MODEL 3
REMARK VINA RESULT:    -6.930      1.529      2.071
REMARK INTER + INTRA:          -9.841
REMARK INTER:                  -9.384
REMARK INTRA:                  -0.456
REMARK UNBOUND:                -0.480
REMARK  Name = 
REMARK  7 active torsions:
REMARK  status: ('A' for Active; 'I' for Inactive)
REMARK    1  A    between atoms: N_1  and  C_2
REMARK    2  A    between atoms: C_2  and  C_3
REMARK    3  A    between atoms: C_6  and  O_7
REMARK    4  A    between atoms: O_7  and  C_8
REMARK    5  A    between atoms: C_8  and  C_9
REMARK    6  A    between atoms: CA_13  and  C_14
REMARK    7  A    between atoms: C_14  and  OXT_16
REMARK                            x       y       z     vdW  Elec       q    Type
REMARK                         _______ _______ _______ _____ _____    ______ ____
ROOT
ATOM      1  O   UNL     1      43.923   3.868  10.424  0.00  0.00    +0.000 OA
ENDROOT
BRANCH   1   5
ATOM      2  C   UNL     1      46.471   2.429   7.437  0.00  0.00    +0.000 A 
ATOM      3  C   UNL     1      46.195   3.802   7.496  0.00  0.00    +0.000 A 
ATOM      4  C   UNL     1      45.348   4.323   8.481  0.00  0.00    +0.000 A 
ATOM      5  C   UNL     1      44.758   3.472   9.415  0.00  0.00    +0.000 A 
ATOM      6  C   UNL     1      45.055   2.109   9.385  0.00  0.00    +0.000 A 
ATOM      7  C   UNL     1      45.896   1.588   8.399  0.00  0.00    +0.000 A 
BRANCH   2   8
ATOM      8  C   UNL     1      47.344   1.865   6.345  0.00  0.00    +0.000 C 
BRANCH   8   9
ATOM      9  N   UNL     1      48.679   2.451   6.356  0.00  0.00    +0.000 NA
ATOM     10  H   UNL     1      49.237   2.015   5.626  0.00  0.00    +0.000 HD
ATOM     11  H   UNL     1      49.130   2.220   7.241  0.00  0.00    +0.000 HD
ENDBRANCH   8   9
ENDBRANCH   2   8
ENDBRANCH   1   5
BRANCH   1  12
ATOM     12  C   UNL     1      44.519   3.916  11.725  0.00  0.00    +0.000 C 
BRANCH  12  13
ATOM     13  C   UNL     1      45.112   5.290  11.963  0.00  0.00    +0.000 A 
ATOM     14  N   UNL     1      44.421   6.350  11.489  0.00  0.00    +0.000 NA
ATOM     15  C   UNL     1      44.940   7.576  11.693  0.00  0.00    +0.000 A 
ATOM     16  C   UNL     1      46.115   7.794  12.359  0.00  0.00    +0.000 A 
ATOM     17  CA  UNL     1      46.739   6.656  12.814  0.00  0.00    +0.000 A 
ATOM     18  N   UNL     1      46.271   5.390  12.645  0.00  0.00    +0.000 NA
BRANCH  17  19
ATOM     19  C   UNL     1      48.031   6.772  13.548  0.00  0.00    +0.000 C 
ATOM     20  O   UNL     1      48.172   7.337  14.620  0.00  0.00    +0.000 OA
BRANCH  19  21
ATOM     21  OXT UNL     1      49.029   6.164  12.866  0.00  0.00    +0.000 OA
ATOM     22  HXT UNL     1      49.043   5.206  13.101  0.00  0.00    +0.000 HD
ENDBRANCH  19  21
ENDBRANCH  17  19
ENDBRANCH  12  13
ENDBRANCH   1  12
TORSDOF 7
ENDMDL
MODEL 4
REMARK VINA RESULT:    -6.858      2.684      6.325
REMARK INTER + INTRA:          -9.744
REMARK INTER:                  -9.477
REMARK INTRA:                  -0.267
REMARK UNBOUND:                -0.480
REMARK  Name = 
REMARK  7 active torsions:
REMARK  status: ('A' for Active; 'I' for Inactive)
REMARK    1  A    between atoms: N_1  and  C_2
REMARK    2  A    between atoms: C_2  and  C_3
REMARK    3  A    between atoms: C_6  and  O_7
REMARK    4  A    between atoms: O_7  and  C_8
REMARK    5  A    between atoms: C_8  and  C_9
REMARK    6  A    between atoms: CA_13  and  C_14
REMARK    7  A    between atoms: C_14  and  OXT_16
REMARK                            x       y       z     vdW  Elec       q    Type
REMARK                         _______ _______ _______ _____ _____    ______ ____
ROOT
ATOM      1  O   UNL     1      44.716   3.238  11.853  0.00  0.00    +0.000 OA
ENDROOT
BRANCH   1   5
ATOM      2  C   UNL     1      45.607   7.218  12.775  0.00  0.00    +0.000 A 
ATOM      3  C   UNL     1      44.330   6.898  12.291  0.00  0.00    +0.000 A 
ATOM      4  C   UNL     1      43.993   5.578  11.971  0.00  0.00    +0.000 A 
ATOM      5  C   UNL     1      44.935   4.561  12.124  0.00  0.00    +0.000 A 
ATOM      6  C   UNL     1      46.196   4.866  12.637  0.00  0.00    +0.000 A 
ATOM      7  C   UNL     1      46.535   6.184  12.951  0.00  0.00    +0.000 A 
BRANCH   2   8
ATOM      8  C   UNL     1      45.983   8.648  13.069  0.00  0.00    +0.000 C 
BRANCH   8   9
ATOM      9  N   UNL     1      44.870   9.563  12.839  0.00  0.00    +0.000 NA
ATOM     10  H   UNL     1      44.190   9.449  13.587  0.00  0.00    +0.000 HD
ATOM     11  H   UNL     1      44.397   9.292  11.977  0.00  0.00    +0.000 HD
ENDBRANCH   8   9
ENDBRANCH   2   8
ENDBRANCH   1   5
BRANCH   1  12
ATOM     12  C   UNL     1      43.984   2.976  10.651  0.00  0.00    +0.000 C 
BRANCH  12  13
ATOM     13  C   UNL     1      44.917   3.056   9.459  0.00  0.00    +0.000 A 
ATOM     14  N   UNL     1      45.111   4.275   8.908  0.00  0.00    +0.000 NA
ATOM     15  C   UNL     1      45.937   4.357   7.848  0.00  0.00    +0.000 A 
ATOM     16  C   UNL     1      46.587   3.278   7.315  0.00  0.00    +0.000 A 
ATOM     17  CA  UNL     1      46.336   2.083   7.950  0.00  0.00    +0.000 A 
ATOM     18  N   UNL     1      45.517   1.929   9.025  0.00  0.00    +0.000 NA
BRANCH  17  19
ATOM     19  C   UNL     1      46.985   0.838   7.452  0.00  0.00    +0.000 C 
ATOM     20  O   UNL     1      46.717  -0.287   7.836  0.00  0.00    +0.000 OA
BRANCH  19  21
ATOM     21  OXT UNL     1      47.916   1.124   6.511  0.00  0.00    +0.000 OA
ATOM     22  HXT UNL     1      48.811   0.915   6.869  0.00  0.00    +0.000 HD
ENDBRANCH  19  21
ENDBRANCH  17  19
ENDBRANCH  12  13
ENDBRANCH   1  12
TORSDOF 7
ENDMDL
MODEL 5
REMARK VINA RESULT:    -6.025      2.968      7.799
REMARK INTER + INTRA:          -8.618
REMARK INTER:                  -8.303
REMARK INTRA:                  -0.315
REMARK UNBOUND:                -0.480
REMARK  Name = 
REMARK  7 active torsions:
REMARK  status: ('A' for Active; 'I' for Inactive)
REMARK    1  A    between atoms: N_1  and  C_2
REMARK    2  A    between atoms: C_2  and  C_3
REMARK    3  A    between atoms: C_6  and  O_7
REMARK    4  A    between atoms: O_7  and  C_8
REMARK    5  A    between atoms: C_8  and  C_9
REMARK    6  A    between atoms: CA_13  and  C_14
REMARK    7  A    between atoms: C_14  and  OXT_16
REMARK                            x       y       z     vdW  Elec       q    Type
REMARK                         _______ _______ _______ _____ _____    ______ ____
ROOT
ATOM      1  O   UNL     1      46.730   3.863  14.662  0.00  0.00    +0.000 OA
ENDROOT
BRANCH   1   5
ATOM      2  C   UNL     1      48.564   4.468  18.371  0.00  0.00    +0.000 A 
ATOM      3  C   UNL     1      48.543   5.516  17.440  0.00  0.00    +0.000 A 
ATOM      4  C   UNL     1      47.939   5.354  16.188  0.00  0.00    +0.000 A 
ATOM      5  C   UNL     1      47.355   4.134  15.849  0.00  0.00    +0.000 A 
ATOM      6  C   UNL     1      47.341   3.097  16.782  0.00  0.00    +0.000 A 
ATOM      7  C   UNL     1      47.948   3.257  18.030  0.00  0.00    +0.000 A 
BRANCH   2   8
ATOM      8  C   UNL     1      49.260   4.631  19.699  0.00  0.00    +0.000 C 
BRANCH   8   9
ATOM      9  N   UNL     1      48.555   3.940  20.772  0.00  0.00    +0.000 NA
ATOM     10  H   UNL     1      49.074   4.059  21.638  0.00  0.00    +0.000 HD
ATOM     11  H   UNL     1      48.554   2.940  20.572  0.00  0.00    +0.000 HD
ENDBRANCH   8   9
ENDBRANCH   2   8
ENDBRANCH   1   5
BRANCH   1  12
ATOM     12  C   UNL     1      46.565   4.987  13.791  0.00  0.00    +0.000 C 
BRANCH  12  13
ATOM     13  C   UNL     1      45.305   4.811  12.966  0.00  0.00    +0.000 A 
ATOM     14  N   UNL     1      44.142   5.212  13.525  0.00  0.00    +0.000 NA
ATOM     15  C   UNL     1      43.016   5.058  12.803  0.00  0.00    +0.000 A 
ATOM     16  C   UNL     1      42.999   4.531  11.540  0.00  0.00    +0.000 A 
ATOM     17  CA  UNL     1      44.231   4.164  11.053  0.00  0.00    +0.000 A 
ATOM     18  N   UNL     1      45.406   4.293  11.726  0.00  0.00    +0.000 NA
BRANCH  17  19
ATOM     19  C   UNL     1      44.333   3.572   9.689  0.00  0.00    +0.000 C 
ATOM     20  O   UNL     1      44.788   2.468   9.443  0.00  0.00    +0.000 OA
BRANCH  19  21
ATOM     21  OXT UNL     1      43.849   4.426   8.756  0.00  0.00    +0.000 OA
ATOM     22  HXT UNL     1      43.624   5.283   9.190  0.00  0.00    +0.000 HD
ENDBRANCH  19  21
ENDBRANCH  17  19
ENDBRANCH  12  13
ENDBRANCH   1  12
TORSDOF 7
ENDMDL
MODEL 6
REMARK VINA RESULT:    -5.939      2.560      4.095
REMARK INTER + INTRA:          -8.502
REMARK INTER:                  -8.175
REMARK INTRA:                  -0.328
REMARK UNBOUND:                -0.480
REMARK  Name = 
REMARK  7 active torsions:
REMARK  status: ('A' for Active; 'I' for Inactive)
REMARK    1  A    between atoms: N_1  and  C_2
REMARK    2  A    between atoms: C_2  and  C_3
REMARK    3  A    between atoms: C_6  and  O_7
REMARK    4  A    between atoms: O_7  and  C_8
REMARK    5  A    between atoms: C_8  and  C_9
REMARK    6  A    between atoms: CA_13  and  C_14
REMARK    7  A    between atoms: C_14  and  OXT_16
REMARK                            x       y       z     vdW  Elec       q    Type
REMARK                         _______ _______ _______ _____ _____    ______ ____
ROOT
ATOM      1  O   UNL     1      45.495   4.149  13.645  0.00  0.00    +0.000 OA
ENDROOT
BRANCH   1   5
ATOM      2  C   UNL     1      44.924   4.008   9.505  0.00  0.00    +0.000 A 
ATOM      3  C   UNL     1      44.585   2.890  10.280  0.00  0.00    +0.000 A 
ATOM      4  C   UNL     1      44.761   2.897  11.669  0.00  0.00    +0.000 A 
ATOM      5  C   UNL     1      45.288   4.025  12.298  0.00  0.00    +0.000 A 
ATOM      6  C   UNL     1      45.595   5.154  11.539  0.00  0.00    +0.000 A 
ATOM      7  C   UNL     1      45.426   5.144  10.152  0.00  0.00    +0.000 A 
BRANCH   2   8
ATOM      8  C   UNL     1      44.782   3.976   8.004  0.00  0.00    +0.000 C 
BRANCH   8   9
ATOM      9  N   UNL     1      46.076   4.013   7.333  0.00  0.00    +0.000 NA
ATOM     10  H   UNL     1      46.325   3.070   7.044  0.00  0.00    +0.000 HD
ATOM     11  H   UNL     1      46.785   4.304   8.006  0.00  0.00    +0.000 HD
ENDBRANCH   8   9
ENDBRANCH   2   8
ENDBRANCH   1   5
BRANCH   1  12
ATOM     12  C   UNL     1      46.709   4.811  14.015  0.00  0.00    +0.000 C 
BRANCH  12  13
ATOM     13  C   UNL     1      47.257   4.196  15.288  0.00  0.00    +0.000 A 
ATOM     14  N   UNL     1      47.846   2.984  15.182  0.00  0.00    +0.000 NA
ATOM     15  C   UNL     1      48.335   2.427  16.306  0.00  0.00    +0.000 A 
ATOM     16  C   UNL     1      48.271   3.029  17.533  0.00  0.00    +0.000 A 
ATOM     17  CA  UNL     1      47.664   4.263  17.538  0.00  0.00    +0.000 A 
ATOM     18  N   UNL     1      47.151   4.885  16.442  0.00  0.00    +0.000 NA
BRANCH  17  19
ATOM     19  C   UNL     1      47.532   5.009  18.822  0.00  0.00    +0.000 C 
ATOM     20  O   UNL     1      48.417   5.125  19.652  0.00  0.00    +0.000 OA
BRANCH  19  21
ATOM     21  OXT UNL     1      46.294   5.545  18.942  0.00  0.00    +0.000 OA
ATOM     22  HXT UNL     1      46.133   6.158  18.186  0.00  0.00    +0.000 HD
ENDBRANCH  19  21
ENDBRANCH  17  19
ENDBRANCH  12  13
ENDBRANCH   1  12
TORSDOF 7
ENDMDL
MODEL 7
REMARK VINA RESULT:    -5.901      4.201      5.705
REMARK INTER + INTRA:          -8.451
REMARK INTER:                  -8.052
REMARK INTRA:                  -0.398
REMARK UNBOUND:                -0.480
REMARK  Name = 
REMARK  7 active torsions:
REMARK  status: ('A' for Active; 'I' for Inactive)
REMARK    1  A    between atoms: N_1  and  C_2
REMARK    2  A    between atoms: C_2  and  C_3
REMARK    3  A    between atoms: C_6  and  O_7
REMARK    4  A    between atoms: O_7  and  C_8
REMARK    5  A    between atoms: C_8  and  C_9
REMARK    6  A    between atoms: CA_13  and  C_14
REMARK    7  A    between atoms: C_14  and  OXT_16
REMARK                            x       y       z     vdW  Elec       q    Type
REMARK                         _______ _______ _______ _____ _____    ______ ____
ROOT
ATOM      1  O   UNL     1      48.303   5.920  13.330  0.00  0.00    +0.000 OA
ENDROOT
BRANCH   1   5
ATOM      2  C   UNL     1      44.458   5.383  11.775  0.00  0.00    +0.000 A 
ATOM      3  C   UNL     1      45.249   6.437  11.294  0.00  0.00    +0.000 A 
ATOM      4  C   UNL     1      46.541   6.649  11.789  0.00  0.00    +0.000 A 
ATOM      5  C   UNL     1      47.055   5.813  12.779  0.00  0.00    +0.000 A 
ATOM      6  C   UNL     1      46.288   4.742  13.238  0.00  0.00    +0.000 A 
ATOM      7  C   UNL     1      44.996   4.532  12.749  0.00  0.00    +0.000 A 
BRANCH   2   8
ATOM      8  C   UNL     1      43.049   5.188  11.276  0.00  0.00    +0.000 C 
BRANCH   8   9
ATOM      9  N   UNL     1      42.161   6.255  11.723  0.00  0.00    +0.000 NA
ATOM     10  H   UNL     1      42.244   7.043  11.086  0.00  0.00    +0.000 HD
ATOM     11  H   UNL     1      42.481   6.587  12.634  0.00  0.00    +0.000 HD
ENDBRANCH   8   9
ENDBRANCH   2   8
ENDBRANCH   1   5
BRANCH   1  12
ATOM     12  C   UNL     1      48.393   6.777  14.473  0.00  0.00    +0.000 C 
BRANCH  12  13
ATOM     13  C   UNL     1      48.911   5.990  15.660  0.00  0.00    +0.000 A 
ATOM     14  N   UNL     1      50.155   6.283  16.098  0.00  0.00    +0.000 NA
ATOM     15  C   UNL     1      50.627   5.588  17.151  0.00  0.00    +0.000 A 
ATOM     16  C   UNL     1      49.907   4.620  17.796  0.00  0.00    +0.000 A 
ATOM     17  CA  UNL     1      48.649   4.401  17.286  0.00  0.00    +0.000 A 
ATOM     18  N   UNL     1      48.110   5.066  16.229  0.00  0.00    +0.000 NA
BRANCH  17  19
ATOM     19  C   UNL     1      47.776   3.364  17.906  0.00  0.00    +0.000 C 
ATOM     20  O   UNL     1      46.735   2.954  17.424  0.00  0.00    +0.000 OA
BRANCH  19  21
ATOM     21  OXT UNL     1      48.298   2.935  19.079  0.00  0.00    +0.000 OA
ATOM     22  HXT UNL     1      49.028   2.298  18.893  0.00  0.00    +0.000 HD
ENDBRANCH  19  21
ENDBRANCH  17  19
ENDBRANCH  12  13
ENDBRANCH   1  12
TORSDOF 7
ENDMDL
MODEL 8
REMARK VINA RESULT:    -5.892      2.321      3.494
REMARK INTER + INTRA:          -8.439
REMARK INTER:                  -8.039
REMARK INTRA:                  -0.400
REMARK UNBOUND:                -0.480
REMARK  Name = 
REMARK  7 active torsions:
REMARK  status: ('A' for Active; 'I' for Inactive)
REMARK    1  A    between atoms: N_1  and  C_2
REMARK    2  A    between atoms: C_2  and  C_3
REMARK    3  A    between atoms: C_6  and  O_7
REMARK    4  A    between atoms: O_7  and  C_8
REMARK    5  A    between atoms: C_8  and  C_9
REMARK    6  A    between atoms: CA_13  and  C_14
REMARK    7  A    between atoms: C_14  and  OXT_16
REMARK                            x       y       z     vdW  Elec       q    Type
REMARK                         _______ _______ _______ _____ _____    ______ ____
ROOT
ATOM      1  O   UNL     1      45.773   5.889  12.969  0.00  0.00    +0.000 OA
ENDROOT
BRANCH   1   5
ATOM      2  C   UNL     1      45.124   4.060   9.264  0.00  0.00    +0.000 A 
ATOM      3  C   UNL     1      44.750   3.385  10.434  0.00  0.00    +0.000 A 
ATOM      4  C   UNL     1      44.950   3.963  11.693  0.00  0.00    +0.000 A 
ATOM      5  C   UNL     1      45.537   5.224  11.796  0.00  0.00    +0.000 A 
ATOM      6  C   UNL     1      45.881   5.917  10.636  0.00  0.00    +0.000 A 
ATOM      7  C   UNL     1      45.687   5.338   9.379  0.00  0.00    +0.000 A 
BRANCH   2   8
ATOM      8  C   UNL     1      44.954   3.412   7.913  0.00  0.00    +0.000 C 
BRANCH   8   9
ATOM      9  N   UNL     1      46.065   3.719   7.019  0.00  0.00    +0.000 NA
ATOM     10  H   UNL     1      46.630   4.455   7.434  0.00  0.00    +0.000 HD
ATOM     11  H   UNL     1      45.689   4.100   6.150  0.00  0.00    +0.000 HD
ENDBRANCH   8   9
ENDBRANCH   2   8
ENDBRANCH   1   5
BRANCH   1  12
ATOM     12  C   UNL     1      47.076   6.469  13.088  0.00  0.00    +0.000 C 
BRANCH  12  13
ATOM     13  C   UNL     1      47.688   6.078  14.418  0.00  0.00    +0.000 A 
ATOM     14  N   UNL     1      48.470   6.995  15.030  0.00  0.00    +0.000 NA
ATOM     15  C   UNL     1      49.021   6.658  16.212  0.00  0.00    +0.000 A 
ATOM     16  C   UNL     1      48.818   5.448  16.818  0.00  0.00    +0.000 A 
ATOM     17  CA  UNL     1      48.000   4.587  16.126  0.00  0.00    +0.000 A 
ATOM     18  N   UNL     1      47.410   4.862  14.931  0.00  0.00    +0.000 NA
BRANCH  17  19
ATOM     19  C   UNL     1      47.714   3.237  16.688  0.00  0.00    +0.000 C 
ATOM     20  O   UNL     1      46.760   2.968  17.399  0.00  0.00    +0.000 OA
BRANCH  19  21
ATOM     21  OXT UNL     1      48.656   2.345  16.303  0.00  0.00    +0.000 OA
ATOM     22  HXT UNL     1      49.384   2.825  15.840  0.00  0.00    +0.000 HD
ENDBRANCH  19  21
ENDBRANCH  17  19
ENDBRANCH  12  13
ENDBRANCH   1  12
TORSDOF 7
ENDMDL
MODEL 9
REMARK VINA RESULT:    -5.634      2.601      6.500
REMARK INTER + INTRA:          -8.089
REMARK INTER:                  -7.633
REMARK INTRA:                  -0.456
REMARK UNBOUND:                -0.480
REMARK  Name = 
REMARK  7 active torsions:
REMARK  status: ('A' for Active; 'I' for Inactive)
REMARK    1  A    between atoms: N_1  and  C_2
REMARK    2  A    between atoms: C_2  and  C_3
REMARK    3  A    between atoms: C_6  and  O_7
REMARK    4  A    between atoms: O_7  and  C_8
REMARK    5  A    between atoms: C_8  and  C_9
REMARK    6  A    between atoms: CA_13  and  C_14
REMARK    7  A    between atoms: C_14  and  OXT_16
REMARK                            x       y       z     vdW  Elec       q    Type
REMARK                         _______ _______ _______ _____ _____    ______ ____
ROOT
ATOM      1  O   UNL     1      44.401   5.189  12.282  0.00  0.00    +0.000 OA
ENDROOT
BRANCH   1   5
ATOM      2  C   UNL     1      47.390   7.865  13.460  0.00  0.00    +0.000 A 
ATOM      3  C   UNL     1      47.622   6.488  13.577  0.00  0.00    +0.000 A 
ATOM      4  C   UNL     1      46.647   5.559  13.193  0.00  0.00    +0.000 A 
ATOM      5  C   UNL     1      45.422   6.001  12.695  0.00  0.00    +0.000 A 
ATOM      6  C   UNL     1      45.196   7.369  12.543  0.00  0.00    +0.000 A 
ATOM      7  C   UNL     1      46.167   8.296  12.931  0.00  0.00    +0.000 A 
BRANCH   2   8
ATOM      8  C   UNL     1      48.423   8.862  13.922  0.00  0.00    +0.000 C 
BRANCH   8   9
ATOM      9  N   UNL     1      48.681   9.885  12.916  0.00  0.00    +0.000 NA
ATOM     10  H   UNL     1      49.133  10.680  13.361  0.00  0.00    +0.000 HD
ATOM     11  H   UNL     1      47.788  10.226  12.559  0.00  0.00    +0.000 HD
ENDBRANCH   8   9
ENDBRANCH   2   8
ENDBRANCH   1   5
BRANCH   1  12
ATOM     12  C   UNL     1      43.958   5.403  10.938  0.00  0.00    +0.000 C 
BRANCH  12  13
ATOM     13  C   UNL     1      44.369   4.229  10.072  0.00  0.00    +0.000 A 
ATOM     14  N   UNL     1      43.897   3.011  10.421  0.00  0.00    +0.000 NA
ATOM     15  C   UNL     1      44.258   1.960   9.661  0.00  0.00    +0.000 A 
ATOM     16  C   UNL     1      45.062   2.069   8.560  0.00  0.00    +0.000 A 
ATOM     17  CA  UNL     1      45.483   3.348   8.278  0.00  0.00    +0.000 A 
ATOM     18  N   UNL     1      45.156   4.453   9.000  0.00  0.00    +0.000 NA
BRANCH  17  19
ATOM     19  C   UNL     1      46.369   3.586   7.104  0.00  0.00    +0.000 C 
ATOM     20  O   UNL     1      46.399   2.889   6.104  0.00  0.00    +0.000 OA
BRANCH  19  21
ATOM     21  OXT UNL     1      47.137   4.684   7.296  0.00  0.00    +0.000 OA
ATOM     22  HXT UNL     1      47.070   5.267   6.502  0.00  0.00    +0.000 HD
ENDBRANCH  19  21
ENDBRANCH  17  19
ENDBRANCH  12  13
ENDBRANCH   1  12
TORSDOF 7
ENDMDL
