MODEL 1
REMARK VINA RESULT:    -8.597      0.000      0.000
REMARK INTER + INTRA:         -11.858
REMARK INTER:                 -11.110
REMARK INTRA:                  -0.748
REMARK UNBOUND:                -0.748
REMARK  Name = 
REMARK  5 active torsions:
REMARK  status: ('A' for Active; 'I' for Inactive)
REMARK    1  A    between atoms: C_2  and  C_4
REMARK    2  A    between atoms: C_7  and  N_8
REMARK    3  A    between atoms: N_8  and  C_9
REMARK    4  A    between atoms: C_9  and  C_10
REMARK    5  A    between atoms: C_15  and  C_16
REMARK                            x       y       z     vdW  Elec       q    Type
REMARK                         _______ _______ _______ _____ _____    ______ ____
ROOT
ATOM      1  C   UNL     1      43.590   4.653  11.123  0.00  0.00    +0.000 C 
ENDROOT
BRANCH   1   2
ATOM      2  C   UNL     1      44.813   5.047  11.926  0.00  0.00    +0.000 A 
ATOM      3  C   UNL     1      45.334   4.190  12.894  0.00  0.00    +0.000 A 
ATOM      4  C   UNL     1      46.416   4.597  13.671  0.00  0.00    +0.000 A 
ATOM      5  C   UNL     1      46.994   5.865  13.495  0.00  0.00    +0.000 A 
ATOM      6 CL   UNL     1      48.232   6.272  14.640  0.00  0.00    +0.000 Cl
ATOM      7  C   UNL     1      46.536   6.748  12.490  0.00  0.00    +0.000 A 
ATOM      8  C   UNL     1      45.428   6.301  11.729  0.00  0.00    +0.000 A 
BRANCH   7   9
ATOM      9  C   UNL     1      47.130   8.081  12.191  0.00  0.00    +0.000 A 
ATOM     10  C   UNL     1      48.461   8.259  11.783  0.00  0.00    +0.000 A 
ATOM     11  C   UNL     1      48.971   9.531  11.510  0.00  0.00    +0.000 A 
ATOM     12  C   UNL     1      48.121  10.614  11.604  0.00  0.00    +0.000 A 
ATOM     13  N   UNL     1      46.827  10.508  11.961  0.00  0.00    +0.000 NA
ATOM     14  C   UNL     1      46.376   9.260  12.251  0.00  0.00    +0.000 A 
ENDBRANCH   7   9
ENDBRANCH   1   2
BRANCH   1  15
ATOM     15  N   UNL     1      43.837   4.925   9.712  0.00  0.00    +0.000 N 
ATOM     16  H   UNL     1      44.202   5.864   9.574  0.00  0.00    +0.000 HD
BRANCH  15  20
ATOM     17  C   UNL     1      46.225   2.075   7.962  0.00  0.00    +0.000 A 
ATOM     18  C   UNL     1      46.371   3.411   7.633  0.00  0.00    +0.000 A 
ATOM     19  N   UNL     1      45.597   4.389   8.182  0.00  0.00    +0.000 NA
ATOM     20  C   UNL     1      44.660   3.989   9.069  0.00  0.00    +0.000 A 
ATOM     21  C   UNL     1      44.536   2.630   9.394  0.00  0.00    +0.000 A 
ATOM     22  N   UNL     1      45.294   1.640   8.854  0.00  0.00    +0.000 NA
BRANCH  17  24
ATOM     23  N   UNL     1      46.826  -0.248   7.654  0.00  0.00    +0.000 N 
ATOM     24  C   UNL     1      47.108   1.051   7.336  0.00  0.00    +0.000 C 
ATOM     25  O   UNL     1      48.028   1.353   6.586  0.00  0.00    +0.000 OA
ATOM     26  H   UNL     1      47.403  -0.990   7.280  0.00  0.00    +0.000 HD
ATOM     27  H   UNL     1      46.067  -0.459   8.293  0.00  0.00    +0.000 HD
ENDBRANCH  17  24
ENDBRANCH  15  20
ENDBRANCH   1  15
TORSDOF 5
ENDMDL
MODEL 2
REMARK VINA RESULT:    -8.367      2.096      3.767
REMARK INTER + INTRA:         -11.561
REMARK INTER:                 -10.880
REMARK INTRA:                  -0.681
REMARK UNBOUND:                -0.748
REMARK  Name = 
REMARK  5 active torsions:
REMARK  status: ('A' for Active; 'I' for Inactive)
REMARK    1  A    between atoms: C_2  and  C_4
REMARK    2  A    between atoms: C_7  and  N_8
REMARK    3  A    between atoms: N_8  and  C_9
REMARK    4  A    between atoms: C_9  and  C_10
REMARK    5  A    between atoms: C_15  and  C_16
REMARK                            x       y       z     vdW  Elec       q    Type
REMARK                         _______ _______ _______ _____ _____    ______ ____
ROOT
ATOM      1  C   UNL     1      43.728   4.767  11.161  0.00  0.00    +0.000 C 
ENDROOT
BRANCH   1   2
ATOM      2  C   UNL     1      44.981   5.355  11.778  0.00  0.00    +0.000 A 
ATOM      3  C   UNL     1      45.597   6.470  11.210  0.00  0.00    +0.000 A 
ATOM      4  C   UNL     1      46.786   6.954  11.748  0.00  0.00    +0.000 A 
ATOM      5  C   UNL     1      47.380   6.335  12.861  0.00  0.00    +0.000 A 
ATOM      6 CL   UNL     1      48.929   6.970  13.313  0.00  0.00    +0.000 Cl
ATOM      7  C   UNL     1      46.765   5.238  13.505  0.00  0.00    +0.000 A 
ATOM      8  C   UNL     1      45.563   4.768  12.920  0.00  0.00    +0.000 A 
BRANCH   7   9
ATOM      9  C   UNL     1      47.289   4.562  14.725  0.00  0.00    +0.000 A 
ATOM     10  C   UNL     1      47.468   5.218  15.953  0.00  0.00    +0.000 A 
ATOM     11  C   UNL     1      47.959   4.541  17.072  0.00  0.00    +0.000 A 
ATOM     12  C   UNL     1      48.222   3.190  16.958  0.00  0.00    +0.000 A 
ATOM     13  N   UNL     1      48.043   2.496  15.819  0.00  0.00    +0.000 NA
ATOM     14  C   UNL     1      47.597   3.196  14.743  0.00  0.00    +0.000 A 
ENDBRANCH   7   9
ENDBRANCH   1   2
BRANCH   1  15
ATOM     15  N   UNL     1      43.795   4.914   9.713  0.00  0.00    +0.000 N 
ATOM     16  H   UNL     1      44.056   5.860   9.447  0.00  0.00    +0.000 HD
BRANCH  15  20
ATOM     17  C   UNL     1      46.210   2.091   7.956  0.00  0.00    +0.000 A 
ATOM     18  C   UNL     1      46.313   3.424   7.599  0.00  0.00    +0.000 A 
ATOM     19  N   UNL     1      45.529   4.392   8.149  0.00  0.00    +0.000 NA
ATOM     20  C   UNL     1      44.625   3.987   9.067  0.00  0.00    +0.000 A 
ATOM     21  C   UNL     1      44.544   2.632   9.420  0.00  0.00    +0.000 A 
ATOM     22  N   UNL     1      45.314   1.651   8.880  0.00  0.00    +0.000 NA
BRANCH  17  24
ATOM     23  N   UNL     1      46.834  -0.225   7.642  0.00  0.00    +0.000 N 
ATOM     24  C   UNL     1      47.103   1.077   7.328  0.00  0.00    +0.000 C 
ATOM     25  O   UNL     1      48.020   1.390   6.579  0.00  0.00    +0.000 OA
ATOM     26  H   UNL     1      47.418  -0.961   7.266  0.00  0.00    +0.000 HD
ATOM     27  H   UNL     1      46.077  -0.445   8.281  0.00  0.00    +0.000 HD
ENDBRANCH  17  24
ENDBRANCH  15  20
ENDBRANCH   1  15
TORSDOF 5
ENDMDL
MODEL 3
REMARK VINA RESULT:    -7.807      2.018      2.668
REMARK INTER + INTRA:         -10.836
REMARK INTER:                 -10.113
REMARK INTRA:                  -0.723
REMARK UNBOUND:                -0.748
REMARK  Name = 
REMARK  5 active torsions:
REMARK  status: ('A' for Active; 'I' for Inactive)
REMARK    1  A    between atoms: C_2  and  C_4
REMARK    2  A    between atoms: C_7  and  N_8
REMARK    3  A    between atoms: N_8  and  C_9
REMARK    4  A    between atoms: C_9  and  C_10
REMARK    5  A    between atoms: C_15  and  C_16
REMARK                            x       y       z     vdW  Elec       q    Type
REMARK                         _______ _______ _______ _____ _____    ______ ____
ROOT
ATOM      1  C   UNL     1      44.383   3.493  11.598  0.00  0.00    +0.000 C 
ENDROOT
BRANCH   1   2
ATOM      2  C   UNL     1      44.715   4.963  11.759  0.00  0.00    +0.000 A 
ATOM      3  C   UNL     1      43.747   5.939  11.526  0.00  0.00    +0.000 A 
ATOM      4  C   UNL     1      44.088   7.287  11.610  0.00  0.00    +0.000 A 
ATOM      5  C   UNL     1      45.398   7.681  11.928  0.00  0.00    +0.000 A 
ATOM      6 CL   UNL     1      45.690   9.389  11.847  0.00  0.00    +0.000 Cl
ATOM      7  C   UNL     1      46.400   6.730  12.227  0.00  0.00    +0.000 A 
ATOM      8  C   UNL     1      46.016   5.370  12.119  0.00  0.00    +0.000 A 
BRANCH   7   9
ATOM      9  C   UNL     1      47.794   7.058  12.636  0.00  0.00    +0.000 A 
ATOM     10  C   UNL     1      48.712   7.706  11.796  0.00  0.00    +0.000 A 
ATOM     11  C   UNL     1      50.009   7.996  12.226  0.00  0.00    +0.000 A 
ATOM     12  C   UNL     1      50.359   7.672  13.522  0.00  0.00    +0.000 A 
ATOM     13  N   UNL     1      49.517   7.078  14.387  0.00  0.00    +0.000 NA
ATOM     14  C   UNL     1      48.276   6.780  13.922  0.00  0.00    +0.000 A 
ENDBRANCH   7   9
ENDBRANCH   1   2
BRANCH   1  15
ATOM     15  N   UNL     1      43.843   3.270  10.263  0.00  0.00    +0.000 N 
ATOM     16  H   UNL     1      43.249   4.040   9.969  0.00  0.00    +0.000 HD
BRANCH  15  20
ATOM     17  C   UNL     1      46.594   2.606   7.284  0.00  0.00    +0.000 A 
ATOM     18  C   UNL     1      46.243   1.589   8.154  0.00  0.00    +0.000 A 
ATOM     19  N   UNL     1      45.342   1.766   9.161  0.00  0.00    +0.000 NA
ATOM     20  C   UNL     1      44.804   2.999   9.279  0.00  0.00    +0.000 A 
ATOM     21  C   UNL     1      45.169   4.012   8.380  0.00  0.00    +0.000 A 
ATOM     22  N   UNL     1      46.068   3.858   7.373  0.00  0.00    +0.000 NA
BRANCH  17  24
ATOM     23  N   UNL     1      47.524   3.211   5.134  0.00  0.00    +0.000 N 
ATOM     24  C   UNL     1      47.578   2.351   6.195  0.00  0.00    +0.000 C 
ATOM     25  O   UNL     1      48.383   1.430   6.245  0.00  0.00    +0.000 OA
ATOM     26  H   UNL     1      48.150   3.078   4.350  0.00  0.00    +0.000 HD
ATOM     27  H   UNL     1      46.831   3.952   5.118  0.00  0.00    +0.000 HD
ENDBRANCH  17  24
ENDBRANCH  15  20
ENDBRANCH   1  15
TORSDOF 5
ENDMDL
MODEL 4
REMARK VINA RESULT:    -6.806      3.947      7.181
REMARK INTER + INTRA:          -9.544
REMARK INTER:                  -9.684
REMARK INTRA:                   0.140
REMARK UNBOUND:                -0.748
REMARK  Name = 
REMARK  5 active torsions:
REMARK  status: ('A' for Active; 'I' for Inactive)
REMARK    1  A    between atoms: C_2  and  C_4
REMARK    2  A    between atoms: C_7  and  N_8
REMARK    3  A    between atoms: N_8  and  C_9
REMARK    4  A    between atoms: C_9  and  C_10
REMARK    5  A    between atoms: C_15  and  C_16
REMARK                            x       y       z     vdW  Elec       q    Type
REMARK                         _______ _______ _______ _____ _____    ______ ____
ROOT
ATOM      1  C   UNL     1      45.377   6.529  11.278  0.00  0.00    +0.000 C 
ENDROOT
BRANCH   1   2
ATOM      2  C   UNL     1      44.981   5.211  10.644  0.00  0.00    +0.000 A 
ATOM      3  C   UNL     1      43.918   4.469  11.155  0.00  0.00    +0.000 A 
ATOM      4  C   UNL     1      43.612   3.227  10.604  0.00  0.00    +0.000 A 
ATOM      5  C   UNL     1      44.361   2.707   9.535  0.00  0.00    +0.000 A 
ATOM      6 CL   UNL     1      43.944   1.090   9.066  0.00  0.00    +0.000 Cl
ATOM      7  C   UNL     1      45.413   3.446   8.948  0.00  0.00    +0.000 A 
ATOM      8  C   UNL     1      45.700   4.699   9.544  0.00  0.00    +0.000 A 
BRANCH   7   9
ATOM      9  C   UNL     1      46.216   3.002   7.774  0.00  0.00    +0.000 A 
ATOM     10  C   UNL     1      46.414   3.792   6.631  0.00  0.00    +0.000 A 
ATOM     11  C   UNL     1      47.178   3.333   5.556  0.00  0.00    +0.000 A 
ATOM     12  C   UNL     1      47.781   2.095   5.660  0.00  0.00    +0.000 A 
ATOM     13  N   UNL     1      47.656   1.302   6.740  0.00  0.00    +0.000 NA
ATOM     14  C   UNL     1      46.877   1.767   7.751  0.00  0.00    +0.000 A 
ENDBRANCH   7   9
ENDBRANCH   1   2
BRANCH   1  15
ATOM     15  N   UNL     1      46.779   6.466  11.672  0.00  0.00    +0.000 N 
ATOM     16  H   UNL     1      47.217   7.383  11.634  0.00  0.00    +0.000 HD
BRANCH  15  20
ATOM     17  C   UNL     1      47.316   4.635  15.311  0.00  0.00    +0.000 A 
ATOM     18  C   UNL     1      47.896   5.864  15.052  0.00  0.00    +0.000 A 
ATOM     19  N   UNL     1      47.752   6.504  13.858  0.00  0.00    +0.000 NA
ATOM     20  C   UNL     1      47.012   5.872  12.921  0.00  0.00    +0.000 A 
ATOM     21  C   UNL     1      46.426   4.631  13.209  0.00  0.00    +0.000 A 
ATOM     22  N   UNL     1      46.562   3.975  14.391  0.00  0.00    +0.000 NA
BRANCH  17  24
ATOM     23  N   UNL     1      48.761   4.055  17.163  0.00  0.00    +0.000 N 
ATOM     24  C   UNL     1      47.500   3.987  16.641  0.00  0.00    +0.000 C 
ATOM     25  O   UNL     1      46.582   3.429  17.228  0.00  0.00    +0.000 OA
ATOM     26  H   UNL     1      48.958   3.615  18.052  0.00  0.00    +0.000 HD
ATOM     27  H   UNL     1      49.502   4.510  16.639  0.00  0.00    +0.000 HD
ENDBRANCH  17  24
ENDBRANCH  15  20
ENDBRANCH   1  15
TORSDOF 5
ENDMDL
MODEL 5
REMARK VINA RESULT:    -6.663      4.362      7.405
REMARK INTER + INTRA:          -9.358
REMARK INTER:                  -9.087
REMARK INTRA:                  -0.271
REMARK UNBOUND:                -0.748
REMARK  Name = 
REMARK  5 active torsions:
REMARK  status: ('A' for Active; 'I' for Inactive)
REMARK    1  A    between atoms: C_2  and  C_4
REMARK    2  A    between atoms: C_7  and  N_8
REMARK    3  A    between atoms: N_8  and  C_9
REMARK    4  A    between atoms: C_9  and  C_10
REMARK    5  A    between atoms: C_15  and  C_16
REMARK                            x       y       z     vdW  Elec       q    Type
REMARK                         _______ _______ _______ _____ _____    ______ ____
ROOT
ATOM      1  C   UNL     1      48.860   7.287  12.974  0.00  0.00    +0.000 C 
ENDROOT
BRANCH   1   2
ATOM      2  C   UNL     1      47.450   7.316  12.419  0.00  0.00    +0.000 A 
ATOM      3  C   UNL     1      46.606   8.395  12.682  0.00  0.00    +0.000 A 
ATOM      4  C   UNL     1      45.291   8.374  12.223  0.00  0.00    +0.000 A 
ATOM      5  C   UNL     1      44.798   7.277  11.496  0.00  0.00    +0.000 A 
ATOM      6 CL   UNL     1      43.104   7.344  11.129  0.00  0.00    +0.000 Cl
ATOM      7  C   UNL     1      45.630   6.186  11.158  0.00  0.00    +0.000 A 
ATOM      8  C   UNL     1      46.957   6.240  11.653  0.00  0.00    +0.000 A 
BRANCH   7   9
ATOM      9  C   UNL     1      45.211   5.016  10.338  0.00  0.00    +0.000 A 
ATOM     10  C   UNL     1      45.616   4.820   9.008  0.00  0.00    +0.000 A 
ATOM     11  C   UNL     1      45.199   3.703   8.280  0.00  0.00    +0.000 A 
ATOM     12  C   UNL     1      44.412   2.762   8.914  0.00  0.00    +0.000 A 
ATOM     13  N   UNL     1      44.014   2.875  10.195  0.00  0.00    +0.000 NA
ATOM     14  C   UNL     1      44.411   3.991  10.860  0.00  0.00    +0.000 A 
ENDBRANCH   7   9
ENDBRANCH   1   2
BRANCH   1  15
ATOM     15  N   UNL     1      48.819   7.600  14.397  0.00  0.00    +0.000 N 
ATOM     16  H   UNL     1      48.214   8.395  14.585  0.00  0.00    +0.000 HD
BRANCH  15  20
ATOM     17  C   UNL     1      47.931   4.486  16.928  0.00  0.00    +0.000 A 
ATOM     18  C   UNL     1      47.539   4.446  15.601  0.00  0.00    +0.000 A 
ATOM     19  N   UNL     1      47.805   5.458  14.728  0.00  0.00    +0.000 NA
ATOM     20  C   UNL     1      48.471   6.523  15.225  0.00  0.00    +0.000 A 
ATOM     21  C   UNL     1      48.865   6.538  16.571  0.00  0.00    +0.000 A 
ATOM     22  N   UNL     1      48.607   5.542  17.457  0.00  0.00    +0.000 NA
BRANCH  17  24
ATOM     23  N   UNL     1      48.439   3.211  18.920  0.00  0.00    +0.000 N 
ATOM     24  C   UNL     1      47.622   3.344  17.833  0.00  0.00    +0.000 C 
ATOM     25  O   UNL     1      46.696   2.573  17.617  0.00  0.00    +0.000 OA
ATOM     26  H   UNL     1      48.297   2.442  19.561  0.00  0.00    +0.000 HD
ATOM     27  H   UNL     1      49.209   3.859  19.056  0.00  0.00    +0.000 HD
ENDBRANCH  17  24
ENDBRANCH  15  20
ENDBRANCH   1  15
TORSDOF 5
ENDMDL
MODEL 6
REMARK VINA RESULT:    -6.419      6.082      8.233
REMARK INTER + INTRA:          -9.044
REMARK INTER:                  -8.401
REMARK INTRA:                  -0.642
REMARK UNBOUND:                -0.748
REMARK  Name = 
REMARK  5 active torsions:
REMARK  status: ('A' for Active; 'I' for Inactive)
REMARK    1  A    between atoms: C_2  and  C_4
REMARK    2  A    between atoms: C_7  and  N_8
REMARK    3  A    between atoms: N_8  and  C_9
REMARK    4  A    between atoms: C_9  and  C_10
REMARK    5  A    between atoms: C_15  and  C_16
REMARK                            x       y       z     vdW  Elec       q    Type
REMARK                         _______ _______ _______ _____ _____    ______ ____
ROOT
ATOM      1  C   UNL     1      48.097   4.256  17.077  0.00  0.00    +0.000 C 
ENDROOT
BRANCH   1   2
ATOM      2  C   UNL     1      47.822   4.976  15.772  0.00  0.00    +0.000 A 
ATOM      3  C   UNL     1      48.600   6.066  15.385  0.00  0.00    +0.000 A 
ATOM      4  C   UNL     1      48.289   6.759  14.217  0.00  0.00    +0.000 A 
ATOM      5  C   UNL     1      47.199   6.376  13.419  0.00  0.00    +0.000 A 
ATOM      6 CL   UNL     1      46.861   7.431  12.084  0.00  0.00    +0.000 Cl
ATOM      7  C   UNL     1      46.415   5.245  13.740  0.00  0.00    +0.000 A 
ATOM      8  C   UNL     1      46.755   4.574  14.941  0.00  0.00    +0.000 A 
BRANCH   7   9
ATOM      9  C   UNL     1      45.284   4.730  12.919  0.00  0.00    +0.000 A 
ATOM     10  C   UNL     1      45.361   3.562  12.145  0.00  0.00    +0.000 A 
ATOM     11  C   UNL     1      44.272   3.116  11.393  0.00  0.00    +0.000 A 
ATOM     12  C   UNL     1      43.090   3.827  11.465  0.00  0.00    +0.000 A 
ATOM     13  N   UNL     1      42.940   4.936  12.211  0.00  0.00    +0.000 NA
ATOM     14  C   UNL     1      44.032   5.359  12.901  0.00  0.00    +0.000 A 
ENDBRANCH   7   9
ENDBRANCH   1   2
BRANCH   1  15
ATOM     15  N   UNL     1      49.394   4.679  17.590  0.00  0.00    +0.000 N 
ATOM     16  H   UNL     1      49.310   5.089  18.516  0.00  0.00    +0.000 HD
BRANCH  15  20
ATOM     17  C   UNL     1      52.153   1.633  17.609  0.00  0.00    +0.000 A 
ATOM     18  C   UNL     1      52.508   2.905  18.023  0.00  0.00    +0.000 A 
ATOM     19  N   UNL     1      51.629   3.946  18.026  0.00  0.00    +0.000 NA
ATOM     20  C   UNL     1      50.378   3.680  17.593  0.00  0.00    +0.000 A 
ATOM     21  C   UNL     1      50.038   2.382  17.186  0.00  0.00    +0.000 A 
ATOM     22  N   UNL     1      50.900   1.332  17.171  0.00  0.00    +0.000 NA
BRANCH  17  24
ATOM     23  N   UNL     1      52.852  -0.524  18.453  0.00  0.00    +0.000 N 
ATOM     24  C   UNL     1      53.155   0.531  17.638  0.00  0.00    +0.000 C 
ATOM     25  O   UNL     1      54.184   0.567  16.976  0.00  0.00    +0.000 OA
ATOM     26  H   UNL     1      53.502  -1.294  18.535  0.00  0.00    +0.000 HD
ATOM     27  H   UNL     1      51.998  -0.510  19.001  0.00  0.00    +0.000 HD
ENDBRANCH  17  24
ENDBRANCH  15  20
ENDBRANCH   1  15
TORSDOF 5
ENDMDL
MODEL 7
REMARK VINA RESULT:    -6.387      5.372      7.863
REMARK INTER + INTRA:          -9.002
REMARK INTER:                  -8.342
REMARK INTRA:                  -0.660
REMARK UNBOUND:                -0.748
REMARK  Name = 
REMARK  5 active torsions:
REMARK  status: ('A' for Active; 'I' for Inactive)
REMARK    1  A    between atoms: C_2  and  C_4
REMARK    2  A    between atoms: C_7  and  N_8
REMARK    3  A    between atoms: N_8  and  C_9
REMARK    4  A    between atoms: C_9  and  C_10
REMARK    5  A    between atoms: C_15  and  C_16
REMARK                            x       y       z     vdW  Elec       q    Type
REMARK                         _______ _______ _______ _____ _____    ______ ____
ROOT
ATOM      1  C   UNL     1      48.812   6.875  15.204  0.00  0.00    +0.000 C 
ENDROOT
BRANCH   1   2
ATOM      2  C   UNL     1      47.763   7.173  14.152  0.00  0.00    +0.000 A 
ATOM      3  C   UNL     1      47.565   8.475  13.697  0.00  0.00    +0.000 A 
ATOM      4  C   UNL     1      46.549   8.742  12.781  0.00  0.00    +0.000 A 
ATOM      5  C   UNL     1      45.717   7.715  12.307  0.00  0.00    +0.000 A 
ATOM      6 CL   UNL     1      44.413   8.239  11.290  0.00  0.00    +0.000 Cl
ATOM      7  C   UNL     1      45.914   6.371  12.696  0.00  0.00    +0.000 A 
ATOM      8  C   UNL     1      46.949   6.143  13.637  0.00  0.00    +0.000 A 
BRANCH   7   9
ATOM      9  C   UNL     1      45.124   5.212  12.195  0.00  0.00    +0.000 A 
ATOM     10  C   UNL     1      45.086   4.830  10.845  0.00  0.00    +0.000 A 
ATOM     11  C   UNL     1      44.332   3.732  10.423  0.00  0.00    +0.000 A 
ATOM     12  C   UNL     1      43.656   2.995  11.375  0.00  0.00    +0.000 A 
ATOM     13  N   UNL     1      43.675   3.290  12.688  0.00  0.00    +0.000 NA
ATOM     14  C   UNL     1      44.392   4.384  13.056  0.00  0.00    +0.000 A 
ENDBRANCH   7   9
ENDBRANCH   1   2
BRANCH   1  15
ATOM     15  N   UNL     1      48.222   6.042  16.244  0.00  0.00    +0.000 N 
ATOM     16  H   UNL     1      47.304   5.702  15.971  0.00  0.00    +0.000 HD
BRANCH  15  20
ATOM     17  C   UNL     1      50.715   3.002  17.438  0.00  0.00    +0.000 A 
ATOM     18  C   UNL     1      49.400   2.739  17.099  0.00  0.00    +0.000 A 
ATOM     19  N   UNL     1      48.536   3.716  16.705  0.00  0.00    +0.000 NA
ATOM     20  C   UNL     1      49.025   4.974  16.668  0.00  0.00    +0.000 A 
ATOM     21  C   UNL     1      50.364   5.216  17.009  0.00  0.00    +0.000 A 
ATOM     22  N   UNL     1      51.239   4.258  17.408  0.00  0.00    +0.000 NA
BRANCH  17  24
ATOM     23  N   UNL     1      52.693   2.253  18.613  0.00  0.00    +0.000 N 
ATOM     24  C   UNL     1      51.617   1.891  17.852  0.00  0.00    +0.000 C 
ATOM     25  O   UNL     1      51.410   0.728  17.530  0.00  0.00    +0.000 OA
ATOM     26  H   UNL     1      53.357   1.548  18.907  0.00  0.00    +0.000 HD
ATOM     27  H   UNL     1      52.843   3.229  18.845  0.00  0.00    +0.000 HD
ENDBRANCH  17  24
ENDBRANCH  15  20
ENDBRANCH   1  15
TORSDOF 5
ENDMDL
MODEL 8
REMARK VINA RESULT:    -6.326      5.392      7.641
REMARK INTER + INTRA:          -8.924
REMARK INTER:                  -8.209
REMARK INTRA:                  -0.715
REMARK UNBOUND:                -0.748
REMARK  Name = 
REMARK  5 active torsions:
REMARK  status: ('A' for Active; 'I' for Inactive)
REMARK    1  A    between atoms: C_2  and  C_4
REMARK    2  A    between atoms: C_7  and  N_8
REMARK    3  A    between atoms: N_8  and  C_9
REMARK    4  A    between atoms: C_9  and  C_10
REMARK    5  A    between atoms: C_15  and  C_16
REMARK                            x       y       z     vdW  Elec       q    Type
REMARK                         _______ _______ _______ _____ _____    ______ ____
ROOT
ATOM      1  C   UNL     1      48.710   7.563  15.315  0.00  0.00    +0.000 C 
ENDROOT
BRANCH   1   2
ATOM      2  C   UNL     1      49.003   6.846  16.617  0.00  0.00    +0.000 A 
ATOM      3  C   UNL     1      48.579   7.382  17.833  0.00  0.00    +0.000 A 
ATOM      4  C   UNL     1      48.916   6.747  19.025  0.00  0.00    +0.000 A 
ATOM      5  C   UNL     1      49.682   5.569  19.024  0.00  0.00    +0.000 A 
ATOM      6 CL   UNL     1      50.138   4.990  20.594  0.00  0.00    +0.000 Cl
ATOM      7  C   UNL     1      50.088   4.958  17.816  0.00  0.00    +0.000 A 
ATOM      8  C   UNL     1      49.735   5.641  16.626  0.00  0.00    +0.000 A 
BRANCH   7   9
ATOM      9  C   UNL     1      50.844   3.679  17.719  0.00  0.00    +0.000 A 
ATOM     10  C   UNL     1      52.194   3.550  18.081  0.00  0.00    +0.000 A 
ATOM     11  C   UNL     1      52.860   2.327  17.976  0.00  0.00    +0.000 A 
ATOM     12  C   UNL     1      52.145   1.225  17.548  0.00  0.00    +0.000 A 
ATOM     13  N   UNL     1      50.842   1.274  17.215  0.00  0.00    +0.000 NA
ATOM     14  C   UNL     1      50.237   2.488  17.298  0.00  0.00    +0.000 A 
ENDBRANCH   7   9
ENDBRANCH   1   2
BRANCH   1  15
ATOM     15  N   UNL     1      48.677   6.588  14.231  0.00  0.00    +0.000 N 
ATOM     16  H   UNL     1      49.305   5.810  14.413  0.00  0.00    +0.000 HD
BRANCH  15  20
ATOM     17  C   UNL     1      44.991   5.026  13.303  0.00  0.00    +0.000 A 
ATOM     18  C   UNL     1      45.325   6.313  12.919  0.00  0.00    +0.000 A 
ATOM     19  N   UNL     1      46.532   6.874  13.211  0.00  0.00    +0.000 NA
ATOM     20  C   UNL     1      47.398   6.111  13.911  0.00  0.00    +0.000 A 
ATOM     21  C   UNL     1      47.041   4.806  14.283  0.00  0.00    +0.000 A 
ATOM     22  N   UNL     1      45.843   4.230  14.004  0.00  0.00    +0.000 NA
BRANCH  17  24
ATOM     23  N   UNL     1      42.669   5.376  12.720  0.00  0.00    +0.000 N 
ATOM     24  C   UNL     1      43.660   4.461  12.945  0.00  0.00    +0.000 C 
ATOM     25  O   UNL     1      43.464   3.256  12.858  0.00  0.00    +0.000 OA
ATOM     26  H   UNL     1      41.736   5.057  12.496  0.00  0.00    +0.000 HD
ATOM     27  H   UNL     1      42.864   6.367  12.819  0.00  0.00    +0.000 HD
ENDBRANCH  17  24
ENDBRANCH  15  20
ENDBRANCH   1  15
TORSDOF 5
ENDMDL
MODEL 9
REMARK VINA RESULT:    -6.234      5.754      7.527
REMARK INTER + INTRA:          -8.805
REMARK INTER:                  -8.455
REMARK INTRA:                  -0.350
REMARK UNBOUND:                -0.748
REMARK  Name = 
REMARK  5 active torsions:
REMARK  status: ('A' for Active; 'I' for Inactive)
REMARK    1  A    between atoms: C_2  and  C_4
REMARK    2  A    between atoms: C_7  and  N_8
REMARK    3  A    between atoms: N_8  and  C_9
REMARK    4  A    between atoms: C_9  and  C_10
REMARK    5  A    between atoms: C_15  and  C_16
REMARK                            x       y       z     vdW  Elec       q    Type
REMARK                         _______ _______ _______ _____ _____    ______ ____
ROOT
ATOM      1  C   UNL     1      47.051   4.032  16.258  0.00  0.00    +0.000 C 
ENDROOT
BRANCH   1   2
ATOM      2  C   UNL     1      48.159   4.218  17.275  0.00  0.00    +0.000 A 
ATOM      3  C   UNL     1      48.003   5.103  18.341  0.00  0.00    +0.000 A 
ATOM      4  C   UNL     1      49.057   5.313  19.227  0.00  0.00    +0.000 A 
ATOM      5  C   UNL     1      50.282   4.646  19.062  0.00  0.00    +0.000 A 
ATOM      6 CL   UNL     1      51.534   5.132  20.160  0.00  0.00    +0.000 Cl
ATOM      7  C   UNL     1      50.470   3.699  18.030  0.00  0.00    +0.000 A 
ATOM      8  C   UNL     1      49.378   3.522  17.144  0.00  0.00    +0.000 A 
BRANCH   7   9
ATOM      9  C   UNL     1      51.709   2.900  17.820  0.00  0.00    +0.000 A 
ATOM     10  C   UNL     1      53.000   3.446  17.887  0.00  0.00    +0.000 A 
ATOM     11  C   UNL     1      54.134   2.655  17.686  0.00  0.00    +0.000 A 
ATOM     12  C   UNL     1      53.960   1.303  17.466  0.00  0.00    +0.000 A 
ATOM     13  N   UNL     1      52.752   0.712  17.420  0.00  0.00    +0.000 NA
ATOM     14  C   UNL     1      51.672   1.519  17.585  0.00  0.00    +0.000 A 
ENDBRANCH   7   9
ENDBRANCH   1   2
BRANCH   1  15
ATOM     15  N   UNL     1      47.269   4.945  15.143  0.00  0.00    +0.000 N 
ATOM     16  H   UNL     1      48.255   5.008  14.902  0.00  0.00    +0.000 HD
BRANCH  15  20
ATOM     17  C   UNL     1      44.956   4.269  11.814  0.00  0.00    +0.000 A 
ATOM     18  C   UNL     1      45.576   3.216  12.464  0.00  0.00    +0.000 A 
ATOM     19  N   UNL     1      46.358   3.394  13.566  0.00  0.00    +0.000 NA
ATOM     20  C   UNL     1      46.510   4.665  13.998  0.00  0.00    +0.000 A 
ATOM     21  C   UNL     1      45.866   5.715  13.329  0.00  0.00    +0.000 A 
ATOM     22  N   UNL     1      45.086   5.559  12.227  0.00  0.00    +0.000 NA
BRANCH  17  24
ATOM     23  N   UNL     1      43.762   5.115   9.888  0.00  0.00    +0.000 N 
ATOM     24  C   UNL     1      44.104   4.012  10.619  0.00  0.00    +0.000 C 
ATOM     25  O   UNL     1      43.732   2.887  10.313  0.00  0.00    +0.000 OA
ATOM     26  H   UNL     1      43.166   5.011   9.077  0.00  0.00    +0.000 HD
ATOM     27  H   UNL     1      44.073   6.034  10.183  0.00  0.00    +0.000 HD
ENDBRANCH  17  24
ENDBRANCH  15  20
ENDBRANCH   1  15
TORSDOF 5
ENDMDL
