MODEL 1
REMARK VINA RESULT:    -7.428      0.000      0.000
REMARK INTER + INTRA:         -10.297
REMARK INTER:                  -9.600
REMARK INTRA:                  -0.697
REMARK UNBOUND:                -0.697
REMARK  Name = 
REMARK  5 active torsions:
REMARK  status: ('A' for Active; 'I' for Inactive)
REMARK    1  A    between atoms: C_2  and  C_3
REMARK    2  A    between atoms: C_6  and  N_7
REMARK    3  A    between atoms: N_7  and  C_8
REMARK    4  A    between atoms: C_8  and  C_9
REMARK    5  A    between atoms: C_9  and  C_12
REMARK                            x       y       z     vdW  Elec       q    Type
REMARK                         _______ _______ _______ _____ _____    ______ ____
ROOT
ATOM      1  N   UNL     1      43.784   4.652  10.072  0.00  0.00    +0.000 N 
ATOM      2  H   UNL     1      44.114   5.582  10.324  0.00  0.00    +0.000 HD
ENDROOT
BRANCH   1   6
ATOM      3  C   UNL     1      46.465   2.648   7.684  0.00  0.00    +0.000 A 
ATOM      4  C   UNL     1      46.325   4.023   7.594  0.00  0.00    +0.000 A 
ATOM      5  N   UNL     1      45.448   4.725   8.360  0.00  0.00    +0.000 NA
ATOM      6  C   UNL     1      44.688   4.013   9.219  0.00  0.00    +0.000 A 
ATOM      7  C   UNL     1      44.825   2.622   9.276  0.00  0.00    +0.000 A 
ATOM      8  N   UNL     1      45.707   1.908   8.526  0.00  0.00    +0.000 NA
BRANCH   3  10
ATOM      9  N   UNL     1      48.278   1.425   6.290  0.00  0.00    +0.000 NA
ATOM     10  C   UNL     1      47.451   1.954   6.907  0.00  0.00    +0.000 C 
ENDBRANCH   3  10
ENDBRANCH   1   6
BRANCH   1  11
ATOM     11  C   UNL     1      43.339   3.861  11.246  0.00  0.00    +0.000 C 
BRANCH  11  12
ATOM     12  C   UNL     1      43.387   4.676  12.562  0.00  0.00    +0.000 C 
ATOM     13  F   UNL     1      42.325   5.549  12.542  0.00  0.00    +0.000 F 
ATOM     14  F   UNL     1      43.117   3.835  13.613  0.00  0.00    +0.000 F 
BRANCH  12  15
ATOM     15  C   UNL     1      44.709   5.407  12.767  0.00  0.00    +0.000 A 
ATOM     16  C   UNL     1      45.766   4.724  13.372  0.00  0.00    +0.000 A 
ATOM     17  C   UNL     1      46.982   5.378  13.557  0.00  0.00    +0.000 A 
ATOM     18  C   UNL     1      47.118   6.693  13.132  0.00  0.00    +0.000 A 
ATOM     19  C   UNL     1      46.029   7.304  12.536  0.00  0.00    +0.000 A 
ATOM     20  N   UNL     1      44.836   6.697  12.349  0.00  0.00    +0.000 NA
ENDBRANCH  12  15
ENDBRANCH  11  12
ENDBRANCH   1  11
TORSDOF 5
ENDMDL
MODEL 2
REMARK VINA RESULT:    -6.759      2.347      6.260
REMARK INTER + INTRA:          -9.432
REMARK INTER:                  -9.042
REMARK INTRA:                  -0.390
REMARK UNBOUND:                -0.697
REMARK  Name = 
REMARK  5 active torsions:
REMARK  status: ('A' for Active; 'I' for Inactive)
REMARK    1  A    between atoms: C_2  and  C_3
REMARK    2  A    between atoms: C_6  and  N_7
REMARK    3  A    between atoms: N_7  and  C_8
REMARK    4  A    between atoms: C_8  and  C_9
REMARK    5  A    between atoms: C_9  and  C_12
REMARK                            x       y       z     vdW  Elec       q    Type
REMARK                         _______ _______ _______ _____ _____    ______ ____
ROOT
ATOM      1  N   UNL     1      44.952   5.617  10.659  0.00  0.00    +0.000 N 
ATOM      2  H   UNL     1      43.985   5.314  10.760  0.00  0.00    +0.000 HD
ENDROOT
BRANCH   1   6
ATOM      3  C   UNL     1      46.932   4.872  14.186  0.00  0.00    +0.000 A 
ATOM      4  C   UNL     1      47.383   5.846  13.311  0.00  0.00    +0.000 A 
ATOM      5  N   UNL     1      46.763   6.122  12.133  0.00  0.00    +0.000 NA
ATOM      6  C   UNL     1      45.676   5.381  11.831  0.00  0.00    +0.000 A 
ATOM      7  C   UNL     1      45.251   4.383  12.715  0.00  0.00    +0.000 A 
ATOM      8  N   UNL     1      45.853   4.105  13.903  0.00  0.00    +0.000 NA
BRANCH   3  10
ATOM      9  N   UNL     1      48.129   4.514  16.459  0.00  0.00    +0.000 NA
ATOM     10  C   UNL     1      47.574   4.659  15.450  0.00  0.00    +0.000 C 
ENDBRANCH   3  10
ENDBRANCH   1   6
BRANCH   1  11
ATOM     11  C   UNL     1      45.581   5.132   9.406  0.00  0.00    +0.000 C 
BRANCH  11  12
ATOM     12  C   UNL     1      44.858   3.894   8.821  0.00  0.00    +0.000 C 
ATOM     13  F   UNL     1      44.268   3.230   9.870  0.00  0.00    +0.000 F 
ATOM     14  F   UNL     1      43.805   4.319   8.051  0.00  0.00    +0.000 F 
BRANCH  12  15
ATOM     15  C   UNL     1      45.786   2.978   8.029  0.00  0.00    +0.000 A 
ATOM     16  C   UNL     1      46.455   3.497   6.920  0.00  0.00    +0.000 A 
ATOM     17  C   UNL     1      47.310   2.673   6.193  0.00  0.00    +0.000 A 
ATOM     18  C   UNL     1      47.484   1.353   6.590  0.00  0.00    +0.000 A 
ATOM     19  C   UNL     1      46.791   0.910   7.703  0.00  0.00    +0.000 A 
ATOM     20  N   UNL     1      45.950   1.684   8.423  0.00  0.00    +0.000 NA
ENDBRANCH  12  15
ENDBRANCH  11  12
ENDBRANCH   1  11
TORSDOF 5
ENDMDL
MODEL 3
REMARK VINA RESULT:    -6.234      2.322      5.872
REMARK INTER + INTRA:          -8.754
REMARK INTER:                  -7.971
REMARK INTRA:                  -0.783
REMARK UNBOUND:                -0.697
REMARK  Name = 
REMARK  5 active torsions:
REMARK  status: ('A' for Active; 'I' for Inactive)
REMARK    1  A    between atoms: C_2  and  C_3
REMARK    2  A    between atoms: C_6  and  N_7
REMARK    3  A    between atoms: N_7  and  C_8
REMARK    4  A    between atoms: C_8  and  C_9
REMARK    5  A    between atoms: C_9  and  C_12
REMARK                            x       y       z     vdW  Elec       q    Type
REMARK                         _______ _______ _______ _____ _____    ______ ____
ROOT
ATOM      1  N   UNL     1      45.339   3.856  12.920  0.00  0.00    +0.000 N 
ATOM      2  H   UNL     1      45.605   3.435  12.032  0.00  0.00    +0.000 HD
ENDROOT
BRANCH   1   6
ATOM      3  C   UNL     1      48.261   6.278  14.503  0.00  0.00    +0.000 A 
ATOM      4  C   UNL     1      47.727   6.536  13.252  0.00  0.00    +0.000 A 
ATOM      5  N   UNL     1      46.764   5.759  12.688  0.00  0.00    +0.000 NA
ATOM      6  C   UNL     1      46.350   4.691  13.402  0.00  0.00    +0.000 A 
ATOM      7  C   UNL     1      46.921   4.431  14.653  0.00  0.00    +0.000 A 
ATOM      8  N   UNL     1      47.875   5.206  15.236  0.00  0.00    +0.000 NA
BRANCH   3  10
ATOM      9  N   UNL     1      49.972   7.903  15.580  0.00  0.00    +0.000 NA
ATOM     10  C   UNL     1      49.226   7.160  15.092  0.00  0.00    +0.000 C 
ENDBRANCH   3  10
ENDBRANCH   1   6
BRANCH   1  11
ATOM     11  C   UNL     1      43.977   4.444  12.894  0.00  0.00    +0.000 C 
BRANCH  11  12
ATOM     12  C   UNL     1      43.577   4.952  11.487  0.00  0.00    +0.000 C 
ATOM     13  F   UNL     1      42.205   4.921  11.415  0.00  0.00    +0.000 F 
ATOM     14  F   UNL     1      43.893   6.284  11.392  0.00  0.00    +0.000 F 
BRANCH  12  15
ATOM     15  C   UNL     1      44.216   4.152  10.357  0.00  0.00    +0.000 A 
ATOM     16  C   UNL     1      45.049   4.814   9.454  0.00  0.00    +0.000 A 
ATOM     17  C   UNL     1      45.644   4.092   8.422  0.00  0.00    +0.000 A 
ATOM     18  C   UNL     1      45.400   2.729   8.316  0.00  0.00    +0.000 A 
ATOM     19  C   UNL     1      44.567   2.140   9.250  0.00  0.00    +0.000 A 
ATOM     20  N   UNL     1      43.971   2.816  10.258  0.00  0.00    +0.000 NA
ENDBRANCH  12  15
ENDBRANCH  11  12
ENDBRANCH   1  11
TORSDOF 5
ENDMDL
MODEL 4
REMARK VINA RESULT:    -6.171      2.182      5.438
REMARK INTER + INTRA:          -8.672
REMARK INTER:                  -8.101
REMARK INTRA:                  -0.571
REMARK UNBOUND:                -0.697
REMARK  Name = 
REMARK  5 active torsions:
REMARK  status: ('A' for Active; 'I' for Inactive)
REMARK    1  A    between atoms: C_2  and  C_3
REMARK    2  A    between atoms: C_6  and  N_7
REMARK    3  A    between atoms: N_7  and  C_8
REMARK    4  A    between atoms: C_8  and  C_9
REMARK    5  A    between atoms: C_9  and  C_12
REMARK                            x       y       z     vdW  Elec       q    Type
REMARK                         _______ _______ _______ _____ _____    ______ ____
ROOT
ATOM      1  N   UNL     1      44.858   4.710  12.843  0.00  0.00    +0.000 N 
ATOM      2  H   UNL     1      44.496   4.731  13.794  0.00  0.00    +0.000 HD
ENDROOT
BRANCH   1   6
ATOM      3  C   UNL     1      48.400   6.799  12.737  0.00  0.00    +0.000 A 
ATOM      4  C   UNL     1      47.400   7.050  11.813  0.00  0.00    +0.000 A 
ATOM      5  N   UNL     1      46.216   6.381  11.807  0.00  0.00    +0.000 NA
ATOM      6  C   UNL     1      46.055   5.426  12.748  0.00  0.00    +0.000 A 
ATOM      7  C   UNL     1      47.087   5.168  13.657  0.00  0.00    +0.000 A 
ATOM      8  N   UNL     1      48.271   5.838  13.682  0.00  0.00    +0.000 NA
BRANCH   3  10
ATOM      9  N   UNL     1      50.588   8.190  12.718  0.00  0.00    +0.000 NA
ATOM     10  C   UNL     1      49.605   7.574  12.751  0.00  0.00    +0.000 C 
ENDBRANCH   3  10
ENDBRANCH   1   6
BRANCH   1  11
ATOM     11  C   UNL     1      44.877   3.345  12.263  0.00  0.00    +0.000 C 
BRANCH  11  12
ATOM     12  C   UNL     1      44.038   3.241  10.965  0.00  0.00    +0.000 C 
ATOM     13  F   UNL     1      43.268   2.107  11.065  0.00  0.00    +0.000 F 
ATOM     14  F   UNL     1      43.130   4.269  10.942  0.00  0.00    +0.000 F 
BRANCH  12  15
ATOM     15  C   UNL     1      44.890   3.229   9.700  0.00  0.00    +0.000 A 
ATOM     16  C   UNL     1      45.268   2.000   9.158  0.00  0.00    +0.000 A 
ATOM     17  C   UNL     1      46.040   1.976   7.998  0.00  0.00    +0.000 A 
ATOM     18  C   UNL     1      46.412   3.175   7.404  0.00  0.00    +0.000 A 
ATOM     19  C   UNL     1      45.995   4.354   7.995  0.00  0.00    +0.000 A 
ATOM     20  N   UNL     1      45.253   4.408   9.123  0.00  0.00    +0.000 NA
ENDBRANCH  12  15
ENDBRANCH  11  12
ENDBRANCH   1  11
TORSDOF 5
ENDMDL
MODEL 5
REMARK VINA RESULT:    -6.170      2.849      6.453
REMARK INTER + INTRA:          -8.670
REMARK INTER:                  -8.069
REMARK INTRA:                  -0.601
REMARK UNBOUND:                -0.697
REMARK  Name = 
REMARK  5 active torsions:
REMARK  status: ('A' for Active; 'I' for Inactive)
REMARK    1  A    between atoms: C_2  and  C_3
REMARK    2  A    between atoms: C_6  and  N_7
REMARK    3  A    between atoms: N_7  and  C_8
REMARK    4  A    between atoms: C_8  and  C_9
REMARK    5  A    between atoms: C_9  and  C_12
REMARK                            x       y       z     vdW  Elec       q    Type
REMARK                         _______ _______ _______ _____ _____    ______ ____
ROOT
ATOM      1  N   UNL     1      45.969   3.990  13.046  0.00  0.00    +0.000 N 
ATOM      2  H   UNL     1      46.467   4.076  12.163  0.00  0.00    +0.000 HD
ENDROOT
BRANCH   1   6
ATOM      3  C   UNL     1      48.324   5.546  16.037  0.00  0.00    +0.000 A 
ATOM      4  C   UNL     1      47.548   4.420  16.258  0.00  0.00    +0.000 A 
ATOM      5  N   UNL     1      46.752   3.875  15.300  0.00  0.00    +0.000 NA
ATOM      6  C   UNL     1      46.730   4.498  14.103  0.00  0.00    +0.000 A 
ATOM      7  C   UNL     1      47.499   5.649  13.907  0.00  0.00    +0.000 A 
ATOM      8  N   UNL     1      48.311   6.198  14.850  0.00  0.00    +0.000 NA
BRANCH   3  10
ATOM      9  N   UNL     1      49.898   6.423  17.902  0.00  0.00    +0.000 NA
ATOM     10  C   UNL     1      49.203   6.049  17.052  0.00  0.00    +0.000 C 
ENDBRANCH   3  10
ENDBRANCH   1   6
BRANCH   1  11
ATOM     11  C   UNL     1      44.569   4.476  12.970  0.00  0.00    +0.000 C 
BRANCH  11  12
ATOM     12  C   UNL     1      43.746   3.745  11.880  0.00  0.00    +0.000 C 
ATOM     13  F   UNL     1      43.472   2.483  12.351  0.00  0.00    +0.000 F 
ATOM     14  F   UNL     1      42.517   4.345  11.777  0.00  0.00    +0.000 F 
BRANCH  12  15
ATOM     15  C   UNL     1      44.451   3.697  10.528  0.00  0.00    +0.000 A 
ATOM     16  C   UNL     1      44.465   2.494   9.821  0.00  0.00    +0.000 A 
ATOM     17  C   UNL     1      45.099   2.440   8.582  0.00  0.00    +0.000 A 
ATOM     18  C   UNL     1      45.698   3.585   8.074  0.00  0.00    +0.000 A 
ATOM     19  C   UNL     1      45.639   4.743   8.828  0.00  0.00    +0.000 A 
ATOM     20  N   UNL     1      45.038   4.824  10.036  0.00  0.00    +0.000 NA
ENDBRANCH  12  15
ENDBRANCH  11  12
ENDBRANCH   1  11
TORSDOF 5
ENDMDL
MODEL 6
REMARK VINA RESULT:    -6.094      3.099      6.689
REMARK INTER + INTRA:          -8.572
REMARK INTER:                  -7.904
REMARK INTRA:                  -0.668
REMARK UNBOUND:                -0.697
REMARK  Name = 
REMARK  5 active torsions:
REMARK  status: ('A' for Active; 'I' for Inactive)
REMARK    1  A    between atoms: C_2  and  C_3
REMARK    2  A    between atoms: C_6  and  N_7
REMARK    3  A    between atoms: N_7  and  C_8
REMARK    4  A    between atoms: C_8  and  C_9
REMARK    5  A    between atoms: C_9  and  C_12
REMARK                            x       y       z     vdW  Elec       q    Type
REMARK                         _______ _______ _______ _____ _____    ______ ____
ROOT
ATOM      1  N   UNL     1      45.928   4.121  13.260  0.00  0.00    +0.000 N 
ATOM      2  H   UNL     1      46.490   3.871  12.448  0.00  0.00    +0.000 HD
ENDROOT
BRANCH   1   6
ATOM      3  C   UNL     1      48.426   5.420  16.258  0.00  0.00    +0.000 A 
ATOM      4  C   UNL     1      47.590   4.333  16.452  0.00  0.00    +0.000 A 
ATOM      5  N   UNL     1      46.745   3.873  15.491  0.00  0.00    +0.000 NA
ATOM      6  C   UNL     1      46.738   4.542  14.319  0.00  0.00    +0.000 A 
ATOM      7  C   UNL     1      47.570   5.654  14.151  0.00  0.00    +0.000 A 
ATOM      8  N   UNL     1      48.429   6.118  15.097  0.00  0.00    +0.000 NA
BRANCH   3  10
ATOM      9  N   UNL     1      50.072   6.198  18.104  0.00  0.00    +0.000 NA
ATOM     10  C   UNL     1      49.352   5.831  17.272  0.00  0.00    +0.000 C 
ENDBRANCH   3  10
ENDBRANCH   1   6
BRANCH   1  11
ATOM     11  C   UNL     1      44.793   5.015  12.923  0.00  0.00    +0.000 C 
BRANCH  11  12
ATOM     12  C   UNL     1      44.894   5.586  11.487  0.00  0.00    +0.000 C 
ATOM     13  F   UNL     1      43.838   6.448  11.313  0.00  0.00    +0.000 F 
ATOM     14  F   UNL     1      46.005   6.387  11.407  0.00  0.00    +0.000 F 
BRANCH  12  15
ATOM     15  C   UNL     1      44.917   4.504  10.412  0.00  0.00    +0.000 A 
ATOM     16  C   UNL     1      45.480   4.803   9.171  0.00  0.00    +0.000 A 
ATOM     17  C   UNL     1      45.513   3.821   8.183  0.00  0.00    +0.000 A 
ATOM     18  C   UNL     1      44.991   2.564   8.457  0.00  0.00    +0.000 A 
ATOM     19  C   UNL     1      44.454   2.338   9.712  0.00  0.00    +0.000 A 
ATOM     20  N   UNL     1      44.401   3.273  10.686  0.00  0.00    +0.000 NA
ENDBRANCH  12  15
ENDBRANCH  11  12
ENDBRANCH   1  11
TORSDOF 5
ENDMDL
MODEL 7
REMARK VINA RESULT:    -5.781      1.789      2.232
REMARK INTER + INTRA:          -8.168
REMARK INTER:                  -7.774
REMARK INTRA:                  -0.393
REMARK UNBOUND:                -0.697
REMARK  Name = 
REMARK  5 active torsions:
REMARK  status: ('A' for Active; 'I' for Inactive)
REMARK    1  A    between atoms: C_2  and  C_3
REMARK    2  A    between atoms: C_6  and  N_7
REMARK    3  A    between atoms: N_7  and  C_8
REMARK    4  A    between atoms: C_8  and  C_9
REMARK    5  A    between atoms: C_9  and  C_12
REMARK                            x       y       z     vdW  Elec       q    Type
REMARK                         _______ _______ _______ _____ _____    ______ ____
ROOT
ATOM      1  N   UNL     1      44.896   5.624   9.892  0.00  0.00    +0.000 N 
ATOM      2  H   UNL     1      45.353   6.452   9.516  0.00  0.00    +0.000 HD
ENDROOT
BRANCH   1   6
ATOM      3  C   UNL     1      46.143   2.148   8.081  0.00  0.00    +0.000 A 
ATOM      4  C   UNL     1      46.474   3.384   7.550  0.00  0.00    +0.000 A 
ATOM      5  N   UNL     1      46.080   4.557   8.112  0.00  0.00    +0.000 NA
ATOM      6  C   UNL     1      45.319   4.471   9.224  0.00  0.00    +0.000 A 
ATOM      7  C   UNL     1      44.972   3.214   9.730  0.00  0.00    +0.000 A 
ATOM      8  N   UNL     1      45.370   2.033   9.186  0.00  0.00    +0.000 NA
BRANCH   3  10
ATOM      9  N   UNL     1      47.033  -0.065   7.064  0.00  0.00    +0.000 NA
ATOM     10  C   UNL     1      46.636   0.936   7.496  0.00  0.00    +0.000 C 
ENDBRANCH   3  10
ENDBRANCH   1   6
BRANCH   1  11
ATOM     11  C   UNL     1      44.942   5.561  11.374  0.00  0.00    +0.000 C 
BRANCH  11  12
ATOM     12  C   UNL     1      44.980   6.966  12.025  0.00  0.00    +0.000 C 
ATOM     13  F   UNL     1      44.109   7.766  11.325  0.00  0.00    +0.000 F 
ATOM     14  F   UNL     1      44.434   6.886  13.281  0.00  0.00    +0.000 F 
BRANCH  12  15
ATOM     15  C   UNL     1      46.381   7.568  12.070  0.00  0.00    +0.000 A 
ATOM     16  C   UNL     1      47.477   6.709  12.158  0.00  0.00    +0.000 A 
ATOM     17  C   UNL     1      48.762   7.247  12.192  0.00  0.00    +0.000 A 
ATOM     18  C   UNL     1      48.925   8.625  12.132  0.00  0.00    +0.000 A 
ATOM     19  C   UNL     1      47.791   9.413  12.040  0.00  0.00    +0.000 A 
ATOM     20  N   UNL     1      46.533   8.920  12.012  0.00  0.00    +0.000 NA
ENDBRANCH  12  15
ENDBRANCH  11  12
ENDBRANCH   1  11
TORSDOF 5
ENDMDL
MODEL 8
REMARK VINA RESULT:    -5.691      2.174      5.745
REMARK INTER + INTRA:          -8.051
REMARK INTER:                  -7.473
REMARK INTRA:                  -0.578
REMARK UNBOUND:                -0.697
REMARK  Name = 
REMARK  5 active torsions:
REMARK  status: ('A' for Active; 'I' for Inactive)
REMARK    1  A    between atoms: C_2  and  C_3
REMARK    2  A    between atoms: C_6  and  N_7
REMARK    3  A    between atoms: N_7  and  C_8
REMARK    4  A    between atoms: C_8  and  C_9
REMARK    5  A    between atoms: C_9  and  C_12
REMARK                            x       y       z     vdW  Elec       q    Type
REMARK                         _______ _______ _______ _____ _____    ______ ____
ROOT
ATOM      1  N   UNL     1      44.341   6.402  12.663  0.00  0.00    +0.000 N 
ATOM      2  H   UNL     1      44.415   5.731  13.424  0.00  0.00    +0.000 HD
ENDROOT
BRANCH   1   6
ATOM      3  C   UNL     1      47.774   8.598  12.109  0.00  0.00    +0.000 A 
ATOM      4  C   UNL     1      47.786   7.219  11.983  0.00  0.00    +0.000 A 
ATOM      5  N   UNL     1      46.676   6.453  12.162  0.00  0.00    +0.000 NA
ATOM      6  C   UNL     1      45.540   7.101  12.493  0.00  0.00    +0.000 A 
ATOM      7  C   UNL     1      45.554   8.492  12.643  0.00  0.00    +0.000 A 
ATOM      8  N   UNL     1      46.652   9.272  12.454  0.00  0.00    +0.000 NA
BRANCH   3  10
ATOM      9  N   UNL     1      49.897   9.992  11.584  0.00  0.00    +0.000 NA
ATOM     10  C   UNL     1      48.951   9.374  11.844  0.00  0.00    +0.000 C 
ENDBRANCH   3  10
ENDBRANCH   1   6
BRANCH   1  11
ATOM     11  C   UNL     1      43.759   5.816  11.431  0.00  0.00    +0.000 C 
BRANCH  11  12
ATOM     12  C   UNL     1      43.914   4.276  11.376  0.00  0.00    +0.000 C 
ATOM     13  F   UNL     1      44.572   3.890  12.520  0.00  0.00    +0.000 F 
ATOM     14  F   UNL     1      42.673   3.702  11.486  0.00  0.00    +0.000 F 
BRANCH  12  15
ATOM     15  C   UNL     1      44.637   3.791  10.124  0.00  0.00    +0.000 A 
ATOM     16  C   UNL     1      45.233   4.734   9.286  0.00  0.00    +0.000 A 
ATOM     17  C   UNL     1      45.902   4.303   8.143  0.00  0.00    +0.000 A 
ATOM     18  C   UNL     1      45.967   2.944   7.864  0.00  0.00    +0.000 A 
ATOM     19  C   UNL     1      45.357   2.068   8.743  0.00  0.00    +0.000 A 
ATOM     20  N   UNL     1      44.695   2.457   9.855  0.00  0.00    +0.000 NA
ENDBRANCH  12  15
ENDBRANCH  11  12
ENDBRANCH   1  11
TORSDOF 5
ENDMDL
MODEL 9
REMARK VINA RESULT:    -5.463      4.521      6.326
REMARK INTER + INTRA:          -7.757
REMARK INTER:                  -7.177
REMARK INTRA:                  -0.580
REMARK UNBOUND:                -0.697
REMARK  Name = 
REMARK  5 active torsions:
REMARK  status: ('A' for Active; 'I' for Inactive)
REMARK    1  A    between atoms: C_2  and  C_3
REMARK    2  A    between atoms: C_6  and  N_7
REMARK    3  A    between atoms: N_7  and  C_8
REMARK    4  A    between atoms: C_8  and  C_9
REMARK    5  A    between atoms: C_9  and  C_12
REMARK                            x       y       z     vdW  Elec       q    Type
REMARK                         _______ _______ _______ _____ _____    ______ ____
ROOT
ATOM      1  N   UNL     1      47.469   5.012  15.242  0.00  0.00    +0.000 N 
ATOM      2  H   UNL     1      48.463   4.835  15.112  0.00  0.00    +0.000 HD
ENDROOT
BRANCH   1   6
ATOM      3  C   UNL     1      45.339   4.636  11.744  0.00  0.00    +0.000 A 
ATOM      4  C   UNL     1      45.626   3.527  12.523  0.00  0.00    +0.000 A 
ATOM      5  N   UNL     1      46.331   3.604  13.683  0.00  0.00    +0.000 NA
ATOM      6  C   UNL     1      46.767   4.829  14.047  0.00  0.00    +0.000 A 
ATOM      7  C   UNL     1      46.491   5.933  13.234  0.00  0.00    +0.000 A 
ATOM      8  N   UNL     1      45.775   5.873  12.078  0.00  0.00    +0.000 NA
BRANCH   3  10
ATOM      9  N   UNL     1      43.846   4.415   9.635  0.00  0.00    +0.000 NA
ATOM     10  C   UNL     1      44.533   4.521  10.563  0.00  0.00    +0.000 C 
ENDBRANCH   3  10
ENDBRANCH   1   6
BRANCH   1  11
ATOM     11  C   UNL     1      46.910   4.319  16.429  0.00  0.00    +0.000 C 
BRANCH  11  12
ATOM     12  C   UNL     1      47.876   3.254  17.004  0.00  0.00    +0.000 C 
ATOM     13  F   UNL     1      47.146   2.450  17.846  0.00  0.00    +0.000 F 
ATOM     14  F   UNL     1      48.267   2.418  15.988  0.00  0.00    +0.000 F 
BRANCH  12  15
ATOM     15  C   UNL     1      49.082   3.860  17.714  0.00  0.00    +0.000 A 
ATOM     16  C   UNL     1      48.966   4.197  19.064  0.00  0.00    +0.000 A 
ATOM     17  C   UNL     1      50.063   4.744  19.725  0.00  0.00    +0.000 A 
ATOM     18  C   UNL     1      51.250   4.938  19.030  0.00  0.00    +0.000 A 
ATOM     19  C   UNL     1      51.292   4.575  17.696  0.00  0.00    +0.000 A 
ATOM     20  N   UNL     1      50.243   4.049  17.026  0.00  0.00    +0.000 NA
ENDBRANCH  12  15
ENDBRANCH  11  12
ENDBRANCH   1  11
TORSDOF 5
ENDMDL
