MODEL 1
REMARK VINA RESULT:    -8.424      0.000      0.000
REMARK INTER + INTRA:         -12.247
REMARK INTER:                 -11.379
REMARK INTRA:                  -0.868
REMARK UNBOUND:                -0.868
REMARK  Name = 
REMARK  6 active torsions:
REMARK  status: ('A' for Active; 'I' for Inactive)
REMARK    1  A    between atoms: C_2  and  C_3
REMARK    2  A    between atoms: N_7  and  C_8
REMARK    3  A    between atoms: C_8  and  C_9
REMARK    4  A    between atoms: C_9  and  C_12
REMARK    5  A    between atoms: C_16  and  N_17
REMARK    6  A    between atoms: N_17  and  C_18
REMARK                            x       y       z     vdW  Elec       q    Type
REMARK                         _______ _______ _______ _____ _____    ______ ____
ROOT
ATOM      1  C   UNL     1      43.617   4.720  12.306  0.00  0.00    +0.000 C 
ATOM      2  F   UNL     1      42.655   5.581  12.750  0.00  0.00    +0.000 F 
ATOM      3  F   UNL     1      43.384   3.548  12.976  0.00  0.00    +0.000 F 
ENDROOT
BRANCH   1   4
ATOM      4  C   UNL     1      45.014   5.253  12.564  0.00  0.00    +0.000 A 
ATOM      5  C   UNL     1      45.665   6.047  11.612  0.00  0.00    +0.000 A 
ATOM      6  C   UNL     1      46.954   6.524  11.855  0.00  0.00    +0.000 A 
ATOM      7  C   UNL     1      47.612   6.206  13.048  0.00  0.00    +0.000 A 
ATOM      8  C   UNL     1      46.980   5.428  14.017  0.00  0.00    +0.000 A 
ATOM      9  C   UNL     1      45.686   4.949  13.760  0.00  0.00    +0.000 A 
BRANCH   8  10
ATOM     10  N   UNL     1      47.586   5.063  15.237  0.00  0.00    +0.000 N 
ATOM     11  H   UNL     1      48.596   4.999  15.109  0.00  0.00    +0.000 HD
BRANCH  10  12
ATOM     12  C   UNL     1      47.089   4.111  16.194  0.00  0.00    +0.000 C 
ATOM     13  C   UNL     1      47.297   4.525  17.659  0.00  0.00    +0.000 C 
ATOM     14  O   UNL     1      48.001   3.289  17.949  0.00  0.00    +0.000 OA
ATOM     15  C   UNL     1      48.121   3.020  16.529  0.00  0.00    +0.000 C 
ENDBRANCH  10  12
ENDBRANCH   8  10
ENDBRANCH   1   4
BRANCH   1  16
ATOM     16  C   UNL     1      43.398   4.470  10.791  0.00  0.00    +0.000 C 
BRANCH  16  21
ATOM     17  C   UNL     1      46.667   2.425   7.380  0.00  0.00    +0.000 A 
ATOM     18  C   UNL     1      46.292   3.741   7.616  0.00  0.00    +0.000 A 
ATOM     19  C   UNL     1      45.352   4.012   8.613  0.00  0.00    +0.000 A 
ATOM     20  C   UNL     1      44.800   2.970   9.353  0.00  0.00    +0.000 A 
ATOM     21  N   UNL     1      43.864   3.163  10.328  0.00  0.00    +0.000 N 
ATOM     22  N   UNL     1      45.162   1.692   9.129  0.00  0.00    +0.000 NA
ATOM     23  C   UNL     1      46.079   1.444   8.158  0.00  0.00    +0.000 A 
ATOM     24  H   UNL     1      43.558   2.317  10.805  0.00  0.00    +0.000 HD
BRANCH  17  26
ATOM     25  N   UNL     1      48.390   1.835   5.541  0.00  0.00    +0.000 NA
ATOM     26  C   UNL     1      47.619   2.096   6.368  0.00  0.00    +0.000 C 
ENDBRANCH  17  26
ENDBRANCH  16  21
ENDBRANCH   1  16
TORSDOF 6
ENDMDL
MODEL 2
REMARK VINA RESULT:    -8.019      3.224      4.387
REMARK INTER + INTRA:         -11.700
REMARK INTER:                 -11.057
REMARK INTRA:                  -0.643
REMARK UNBOUND:                -0.868
REMARK  Name = 
REMARK  6 active torsions:
REMARK  status: ('A' for Active; 'I' for Inactive)
REMARK    1  A    between atoms: C_2  and  C_3
REMARK    2  A    between atoms: N_7  and  C_8
REMARK    3  A    between atoms: C_8  and  C_9
REMARK    4  A    between atoms: C_9  and  C_12
REMARK    5  A    between atoms: C_16  and  N_17
REMARK    6  A    between atoms: N_17  and  C_18
REMARK                            x       y       z     vdW  Elec       q    Type
REMARK                         _______ _______ _______ _____ _____    ______ ____
ROOT
ATOM      1  C   UNL     1      43.929   4.109  12.434  0.00  0.00    +0.000 C 
ATOM      2  F   UNL     1      42.939   4.160  13.374  0.00  0.00    +0.000 F 
ATOM      3  F   UNL     1      44.491   2.868  12.575  0.00  0.00    +0.000 F 
ENDROOT
BRANCH   1   4
ATOM      4  C   UNL     1      44.947   5.218  12.626  0.00  0.00    +0.000 A 
ATOM      5  C   UNL     1      46.287   4.921  12.902  0.00  0.00    +0.000 A 
ATOM      6  C   UNL     1      47.213   5.948  13.087  0.00  0.00    +0.000 A 
ATOM      7  C   UNL     1      46.810   7.286  13.008  0.00  0.00    +0.000 A 
ATOM      8  C   UNL     1      45.484   7.607  12.722  0.00  0.00    +0.000 A 
ATOM      9  C   UNL     1      44.560   6.566  12.543  0.00  0.00    +0.000 A 
BRANCH   8  10
ATOM     10  N   UNL     1      45.007   8.932  12.635  0.00  0.00    +0.000 N 
ATOM     11  H   UNL     1      44.172   9.031  13.213  0.00  0.00    +0.000 HD
BRANCH  10  12
ATOM     12  C   UNL     1      44.965   9.756  11.456  0.00  0.00    +0.000 C 
ATOM     13  C   UNL     1      44.947  11.265  11.745  0.00  0.00    +0.000 C 
ATOM     14  O   UNL     1      43.730  11.438  10.973  0.00  0.00    +0.000 OA
ATOM     15  C   UNL     1      43.528  10.002  10.962  0.00  0.00    +0.000 C 
ENDBRANCH  10  12
ENDBRANCH   8  10
ENDBRANCH   1   4
BRANCH   1  16
ATOM     16  C   UNL     1      43.282   4.197  11.028  0.00  0.00    +0.000 C 
BRANCH  16  21
ATOM     17  C   UNL     1      46.685   2.729   7.454  0.00  0.00    +0.000 A 
ATOM     18  C   UNL     1      46.001   2.005   8.421  0.00  0.00    +0.000 A 
ATOM     19  C   UNL     1      45.136   2.676   9.288  0.00  0.00    +0.000 A 
ATOM     20  C   UNL     1      44.969   4.054   9.179  0.00  0.00    +0.000 A 
ATOM     21  N   UNL     1      44.154   4.774  10.004  0.00  0.00    +0.000 N 
ATOM     22  N   UNL     1      45.629   4.760   8.240  0.00  0.00    +0.000 NA
ATOM     23  C   UNL     1      46.465   4.094   7.403  0.00  0.00    +0.000 A 
ATOM     24  H   UNL     1      44.109   5.772   9.803  0.00  0.00    +0.000 HD
BRANCH  17  26
ATOM     25  N   UNL     1      48.324   1.577   5.816  0.00  0.00    +0.000 NA
ATOM     26  C   UNL     1      47.585   2.091   6.549  0.00  0.00    +0.000 C 
ENDBRANCH  17  26
ENDBRANCH  16  21
ENDBRANCH   1  16
TORSDOF 6
ENDMDL
MODEL 3
REMARK VINA RESULT:    -7.350      2.163      2.468
REMARK INTER + INTRA:         -10.796
REMARK INTER:                 -10.075
REMARK INTRA:                  -0.721
REMARK UNBOUND:                -0.868
REMARK  Name = 
REMARK  6 active torsions:
REMARK  status: ('A' for Active; 'I' for Inactive)
REMARK    1  A    between atoms: C_2  and  C_3
REMARK    2  A    between atoms: N_7  and  C_8
REMARK    3  A    between atoms: C_8  and  C_9
REMARK    4  A    between atoms: C_9  and  C_12
REMARK    5  A    between atoms: C_16  and  N_17
REMARK    6  A    between atoms: N_17  and  C_18
REMARK                            x       y       z     vdW  Elec       q    Type
REMARK                         _______ _______ _______ _____ _____    ______ ____
ROOT
ATOM      1  C   UNL     1      43.775   5.106  12.357  0.00  0.00    +0.000 C 
ATOM      2  F   UNL     1      42.639   5.434  13.041  0.00  0.00    +0.000 F 
ATOM      3  F   UNL     1      44.223   3.952  12.942  0.00  0.00    +0.000 F 
ENDROOT
BRANCH   1   4
ATOM      4  C   UNL     1      44.810   6.214  12.420  0.00  0.00    +0.000 A 
ATOM      5  C   UNL     1      44.622   7.411  11.719  0.00  0.00    +0.000 A 
ATOM      6  C   UNL     1      45.586   8.419  11.775  0.00  0.00    +0.000 A 
ATOM      7  C   UNL     1      46.754   8.240  12.524  0.00  0.00    +0.000 A 
ATOM      8  C   UNL     1      46.958   7.062  13.242  0.00  0.00    +0.000 A 
ATOM      9  C   UNL     1      45.985   6.052  13.174  0.00  0.00    +0.000 A 
BRANCH   8  10
ATOM     10  N   UNL     1      48.113   6.811  14.011  0.00  0.00    +0.000 N 
ATOM     11  H   UNL     1      47.917   6.074  14.688  0.00  0.00    +0.000 HD
BRANCH  10  12
ATOM     12  C   UNL     1      49.043   7.789  14.511  0.00  0.00    +0.000 C 
ATOM     13  C   UNL     1      50.267   8.011  13.608  0.00  0.00    +0.000 C 
ATOM     14  O   UNL     1      51.175   7.717  14.702  0.00  0.00    +0.000 OA
ATOM     15  C   UNL     1      50.074   7.180  15.477  0.00  0.00    +0.000 C 
ENDBRANCH  10  12
ENDBRANCH   8  10
ENDBRANCH   1   4
BRANCH   1  16
ATOM     16  C   UNL     1      43.395   4.795  10.887  0.00  0.00    +0.000 C 
BRANCH  16  21
ATOM     17  C   UNL     1      46.581   2.528   7.537  0.00  0.00    +0.000 A 
ATOM     18  C   UNL     1      46.284   3.866   7.759  0.00  0.00    +0.000 A 
ATOM     19  C   UNL     1      45.349   4.202   8.740  0.00  0.00    +0.000 A 
ATOM     20  C   UNL     1      44.723   3.201   9.479  0.00  0.00    +0.000 A 
ATOM     21  N   UNL     1      43.787   3.458  10.438  0.00  0.00    +0.000 N 
ATOM     22  N   UNL     1      45.009   1.902   9.268  0.00  0.00    +0.000 NA
ATOM     23  C   UNL     1      45.922   1.591   8.313  0.00  0.00    +0.000 A 
ATOM     24  H   UNL     1      43.422   2.636  10.917  0.00  0.00    +0.000 HD
BRANCH  17  26
ATOM     25  N   UNL     1      48.288   1.805   5.731  0.00  0.00    +0.000 NA
ATOM     26  C   UNL     1      47.525   2.134   6.542  0.00  0.00    +0.000 C 
ENDBRANCH  17  26
ENDBRANCH  16  21
ENDBRANCH   1  16
TORSDOF 6
ENDMDL
MODEL 4
REMARK VINA RESULT:    -7.044      3.061      7.882
REMARK INTER + INTRA:         -10.382
REMARK INTER:                  -9.924
REMARK INTRA:                  -0.458
REMARK UNBOUND:                -0.868
REMARK  Name = 
REMARK  6 active torsions:
REMARK  status: ('A' for Active; 'I' for Inactive)
REMARK    1  A    between atoms: C_2  and  C_3
REMARK    2  A    between atoms: N_7  and  C_8
REMARK    3  A    between atoms: C_8  and  C_9
REMARK    4  A    between atoms: C_9  and  C_12
REMARK    5  A    between atoms: C_16  and  N_17
REMARK    6  A    between atoms: N_17  and  C_18
REMARK                            x       y       z     vdW  Elec       q    Type
REMARK                         _______ _______ _______ _____ _____    ______ ____
ROOT
ATOM      1  C   UNL     1      45.189   5.996  11.542  0.00  0.00    +0.000 C 
ATOM      2  F   UNL     1      44.153   6.151  12.417  0.00  0.00    +0.000 F 
ATOM      3  F   UNL     1      45.226   7.162  10.823  0.00  0.00    +0.000 F 
ENDROOT
BRANCH   1   4
ATOM      4  C   UNL     1      44.996   4.785  10.648  0.00  0.00    +0.000 A 
ATOM      5  C   UNL     1      44.198   3.711  11.060  0.00  0.00    +0.000 A 
ATOM      6  C   UNL     1      44.036   2.597  10.235  0.00  0.00    +0.000 A 
ATOM      7  C   UNL     1      44.676   2.537   8.993  0.00  0.00    +0.000 A 
ATOM      8  C   UNL     1      45.466   3.600   8.555  0.00  0.00    +0.000 A 
ATOM      9  C   UNL     1      45.627   4.713   9.395  0.00  0.00    +0.000 A 
BRANCH   8  10
ATOM     10  N   UNL     1      46.147   3.604   7.319  0.00  0.00    +0.000 N 
ATOM     11  H   UNL     1      45.851   4.413   6.772  0.00  0.00    +0.000 HD
BRANCH  10  12
ATOM     12  C   UNL     1      46.449   2.461   6.500  0.00  0.00    +0.000 C 
ATOM     13  C   UNL     1      47.552   1.554   7.069  0.00  0.00    +0.000 C 
ATOM     14  O   UNL     1      48.330   1.669   5.849  0.00  0.00    +0.000 OA
ATOM     15  C   UNL     1      47.497   2.775   5.417  0.00  0.00    +0.000 C 
ENDBRANCH  10  12
ENDBRANCH   8  10
ENDBRANCH   1   4
BRANCH   1  16
ATOM     16  C   UNL     1      46.507   5.877  12.349  0.00  0.00    +0.000 C 
BRANCH  16  21
ATOM     17  C   UNL     1      48.386   4.706  16.997  0.00  0.00    +0.000 A 
ATOM     18  C   UNL     1      48.561   5.823  16.191  0.00  0.00    +0.000 A 
ATOM     19  C   UNL     1      47.935   5.868  14.945  0.00  0.00    +0.000 A 
ATOM     20  C   UNL     1      47.148   4.800  14.520  0.00  0.00    +0.000 A 
ATOM     21  N   UNL     1      46.523   4.770  13.307  0.00  0.00    +0.000 N 
ATOM     22  N   UNL     1      46.973   3.715  15.299  0.00  0.00    +0.000 NA
ATOM     23  C   UNL     1      47.587   3.687  16.510  0.00  0.00    +0.000 A 
ATOM     24  H   UNL     1      45.963   3.938  13.130  0.00  0.00    +0.000 HD
BRANCH  17  26
ATOM     25  N   UNL     1      49.514   4.523  19.319  0.00  0.00    +0.000 NA
ATOM     26  C   UNL     1      49.011   4.609  18.277  0.00  0.00    +0.000 C 
ENDBRANCH  17  26
ENDBRANCH  16  21
ENDBRANCH   1  16
TORSDOF 6
ENDMDL
MODEL 5
REMARK VINA RESULT:    -6.888      2.356      3.259
REMARK INTER + INTRA:         -10.173
REMARK INTER:                  -9.791
REMARK INTRA:                  -0.382
REMARK UNBOUND:                -0.868
REMARK  Name = 
REMARK  6 active torsions:
REMARK  status: ('A' for Active; 'I' for Inactive)
REMARK    1  A    between atoms: C_2  and  C_3
REMARK    2  A    between atoms: N_7  and  C_8
REMARK    3  A    between atoms: C_8  and  C_9
REMARK    4  A    between atoms: C_9  and  C_12
REMARK    5  A    between atoms: C_16  and  N_17
REMARK    6  A    between atoms: N_17  and  C_18
REMARK                            x       y       z     vdW  Elec       q    Type
REMARK                         _______ _______ _______ _____ _____    ______ ____
ROOT
ATOM      1  C   UNL     1      43.519   3.914  12.450  0.00  0.00    +0.000 C 
ATOM      2  F   UNL     1      42.559   4.870  12.618  0.00  0.00    +0.000 F 
ATOM      3  F   UNL     1      43.181   2.913  13.322  0.00  0.00    +0.000 F 
ENDROOT
BRANCH   1   4
ATOM      4  C   UNL     1      44.910   4.458  12.721  0.00  0.00    +0.000 A 
ATOM      5  C   UNL     1      45.927   3.619  13.191  0.00  0.00    +0.000 A 
ATOM      6  C   UNL     1      47.200   4.131  13.447  0.00  0.00    +0.000 A 
ATOM      7  C   UNL     1      47.470   5.489  13.244  0.00  0.00    +0.000 A 
ATOM      8  C   UNL     1      46.477   6.341  12.764  0.00  0.00    +0.000 A 
ATOM      9  C   UNL     1      45.198   5.817  12.516  0.00  0.00    +0.000 A 
BRANCH   8  10
ATOM     10  N   UNL     1      46.676   7.720  12.545  0.00  0.00    +0.000 N 
ATOM     11  H   UNL     1      46.069   8.035  11.788  0.00  0.00    +0.000 HD
BRANCH  10  12
ATOM     12  C   UNL     1      47.931   8.424  12.577  0.00  0.00    +0.000 C 
ATOM     13  C   UNL     1      48.543   8.553  13.981  0.00  0.00    +0.000 C 
ATOM     14  O   UNL     1      48.615   9.997  13.859  0.00  0.00    +0.000 OA
ATOM     15  C   UNL     1      47.747   9.948  12.699  0.00  0.00    +0.000 C 
ENDBRANCH  10  12
ENDBRANCH   8  10
ENDBRANCH   1   4
BRANCH   1  16
ATOM     16  C   UNL     1      43.420   3.359  11.006  0.00  0.00    +0.000 C 
BRANCH  16  21
ATOM     17  C   UNL     1      46.834   2.534   7.242  0.00  0.00    +0.000 A 
ATOM     18  C   UNL     1      46.242   1.666   8.151  0.00  0.00    +0.000 A 
ATOM     19  C   UNL     1      45.347   2.175   9.094  0.00  0.00    +0.000 A 
ATOM     20  C   UNL     1      45.060   3.537   9.118  0.00  0.00    +0.000 A 
ATOM     21  N   UNL     1      44.210   4.104  10.024  0.00  0.00    +0.000 N 
ATOM     22  N   UNL     1      45.629   4.383   8.237  0.00  0.00    +0.000 NA
ATOM     23  C   UNL     1      46.496   3.873   7.325  0.00  0.00    +0.000 A 
ATOM     24  H   UNL     1      44.073   5.107   9.919  0.00  0.00    +0.000 HD
BRANCH  17  26
ATOM     25  N   UNL     1      48.506   1.677   5.462  0.00  0.00    +0.000 NA
ATOM     26  C   UNL     1      47.760   2.063   6.263  0.00  0.00    +0.000 C 
ENDBRANCH  17  26
ENDBRANCH  16  21
ENDBRANCH   1  16
TORSDOF 6
ENDMDL
MODEL 6
REMARK VINA RESULT:    -6.686      3.021      8.296
REMARK INTER + INTRA:          -9.900
REMARK INTER:                  -9.365
REMARK INTRA:                  -0.535
REMARK UNBOUND:                -0.868
REMARK  Name = 
REMARK  6 active torsions:
REMARK  status: ('A' for Active; 'I' for Inactive)
REMARK    1  A    between atoms: C_2  and  C_3
REMARK    2  A    between atoms: N_7  and  C_8
REMARK    3  A    between atoms: C_8  and  C_9
REMARK    4  A    between atoms: C_9  and  C_12
REMARK    5  A    between atoms: C_16  and  N_17
REMARK    6  A    between atoms: N_17  and  C_18
REMARK                            x       y       z     vdW  Elec       q    Type
REMARK                         _______ _______ _______ _____ _____    ______ ____
ROOT
ATOM      1  C   UNL     1      46.611   6.306  12.618  0.00  0.00    +0.000 C 
ATOM      2  F   UNL     1      46.190   7.438  13.255  0.00  0.00    +0.000 F 
ATOM      3  F   UNL     1      47.422   6.746  11.606  0.00  0.00    +0.000 F 
ENDROOT
BRANCH   1   4
ATOM      4  C   UNL     1      45.446   5.486  12.096  0.00  0.00    +0.000 A 
ATOM      5  C   UNL     1      44.523   4.910  12.978  0.00  0.00    +0.000 A 
ATOM      6  C   UNL     1      43.461   4.149  12.488  0.00  0.00    +0.000 A 
ATOM      7  C   UNL     1      43.312   3.945  11.112  0.00  0.00    +0.000 A 
ATOM      8  C   UNL     1      44.211   4.518  10.213  0.00  0.00    +0.000 A 
ATOM      9  C   UNL     1      45.279   5.277  10.717  0.00  0.00    +0.000 A 
BRANCH   8  10
ATOM     10  N   UNL     1      44.127   4.348   8.815  0.00  0.00    +0.000 N 
ATOM     11  H   UNL     1      43.229   4.701   8.484  0.00  0.00    +0.000 HD
BRANCH  10  12
ATOM     12  C   UNL     1      44.592   3.217   8.057  0.00  0.00    +0.000 C 
ATOM     13  C   UNL     1      45.289   2.138   8.901  0.00  0.00    +0.000 C 
ATOM     14  O   UNL     1      46.480   2.206   8.074  0.00  0.00    +0.000 OA
ATOM     15  C   UNL     1      46.000   3.437   7.476  0.00  0.00    +0.000 C 
ENDBRANCH  10  12
ENDBRANCH   8  10
ENDBRANCH   1   4
BRANCH   1  16
ATOM     16  C   UNL     1      47.468   5.472  13.605  0.00  0.00    +0.000 C 
BRANCH  16  21
ATOM     17  C   UNL     1      48.393   4.966  18.644  0.00  0.00    +0.000 A 
ATOM     18  C   UNL     1      47.779   4.116  17.734  0.00  0.00    +0.000 A 
ATOM     19  C   UNL     1      47.644   4.524  16.406  0.00  0.00    +0.000 A 
ATOM     20  C   UNL     1      48.118   5.771  16.008  0.00  0.00    +0.000 A 
ATOM     21  N   UNL     1      48.001   6.240  14.731  0.00  0.00    +0.000 N 
ATOM     22  N   UNL     1      48.716   6.599  16.886  0.00  0.00    +0.000 NA
ATOM     23  C   UNL     1      48.843   6.187  18.174  0.00  0.00    +0.000 A 
ATOM     24  H   UNL     1      48.408   7.160  14.570  0.00  0.00    +0.000 HD
BRANCH  17  26
ATOM     25  N   UNL     1      48.669   4.301  21.130  0.00  0.00    +0.000 NA
ATOM     26  C   UNL     1      48.550   4.598  20.014  0.00  0.00    +0.000 C 
ENDBRANCH  17  26
ENDBRANCH  16  21
ENDBRANCH   1  16
TORSDOF 6
ENDMDL
MODEL 7
REMARK VINA RESULT:    -6.332      3.449      8.075
REMARK INTER + INTRA:          -9.421
REMARK INTER:                  -8.753
REMARK INTRA:                  -0.668
REMARK UNBOUND:                -0.868
REMARK  Name = 
REMARK  6 active torsions:
REMARK  status: ('A' for Active; 'I' for Inactive)
REMARK    1  A    between atoms: C_2  and  C_3
REMARK    2  A    between atoms: N_7  and  C_8
REMARK    3  A    between atoms: C_8  and  C_9
REMARK    4  A    between atoms: C_9  and  C_12
REMARK    5  A    between atoms: C_16  and  N_17
REMARK    6  A    between atoms: N_17  and  C_18
REMARK                            x       y       z     vdW  Elec       q    Type
REMARK                         _______ _______ _______ _____ _____    ______ ____
ROOT
ATOM      1  C   UNL     1      45.186   6.212  11.480  0.00  0.00    +0.000 C 
ATOM      2  F   UNL     1      44.777   6.134  12.780  0.00  0.00    +0.000 F 
ATOM      3  F   UNL     1      44.480   7.257  10.946  0.00  0.00    +0.000 F 
ENDROOT
BRANCH   1   4
ATOM      4  C   UNL     1      44.935   4.916  10.731  0.00  0.00    +0.000 A 
ATOM      5  C   UNL     1      44.254   3.855  11.342  0.00  0.00    +0.000 A 
ATOM      6  C   UNL     1      44.038   2.664  10.649  0.00  0.00    +0.000 A 
ATOM      7  C   UNL     1      44.506   2.513   9.339  0.00  0.00    +0.000 A 
ATOM      8  C   UNL     1      45.174   3.559   8.704  0.00  0.00    +0.000 A 
ATOM      9  C   UNL     1      45.392   4.751   9.413  0.00  0.00    +0.000 A 
BRANCH   8  10
ATOM     10  N   UNL     1      45.680   3.474   7.390  0.00  0.00    +0.000 N 
ATOM     11  H   UNL     1      45.013   2.974   6.802  0.00  0.00    +0.000 HD
BRANCH  10  12
ATOM     12  C   UNL     1      47.045   3.232   7.007  0.00  0.00    +0.000 C 
ATOM     13  C   UNL     1      47.224   2.838   5.532  0.00  0.00    +0.000 C 
ATOM     14  O   UNL     1      47.920   1.619   5.902  0.00  0.00    +0.000 OA
ATOM     15  C   UNL     1      47.483   1.781   7.275  0.00  0.00    +0.000 C 
ENDBRANCH  10  12
ENDBRANCH   8  10
ENDBRANCH   1   4
BRANCH   1  16
ATOM     16  C   UNL     1      46.693   6.574  11.454  0.00  0.00    +0.000 C 
BRANCH  16  21
ATOM     17  C   UNL     1      48.890   7.698  15.972  0.00  0.00    +0.000 A 
ATOM     18  C   UNL     1      48.562   6.482  15.390  0.00  0.00    +0.000 A 
ATOM     19  C   UNL     1      47.944   6.472  14.138  0.00  0.00    +0.000 A 
ATOM     20  C   UNL     1      47.661   7.672  13.490  0.00  0.00    +0.000 A 
ATOM     21  N   UNL     1      47.042   7.735  12.275  0.00  0.00    +0.000 N 
ATOM     22  N   UNL     1      47.980   8.854  14.051  0.00  0.00    +0.000 NA
ATOM     23  C   UNL     1      48.582   8.848  15.267  0.00  0.00    +0.000 A 
ATOM     24  H   UNL     1      46.913   8.675  11.905  0.00  0.00    +0.000 HD
BRANCH  17  26
ATOM     25  N   UNL     1      50.033   7.806  18.292  0.00  0.00    +0.000 NA
ATOM     26  C   UNL     1      49.517   7.761  17.254  0.00  0.00    +0.000 C 
ENDBRANCH  17  26
ENDBRANCH  16  21
ENDBRANCH   1  16
TORSDOF 6
ENDMDL
MODEL 8
REMARK VINA RESULT:    -6.088      3.239      8.032
REMARK INTER + INTRA:          -9.092
REMARK INTER:                  -8.562
REMARK INTRA:                  -0.529
REMARK UNBOUND:                -0.868
REMARK  Name = 
REMARK  6 active torsions:
REMARK  status: ('A' for Active; 'I' for Inactive)
REMARK    1  A    between atoms: C_2  and  C_3
REMARK    2  A    between atoms: N_7  and  C_8
REMARK    3  A    between atoms: C_8  and  C_9
REMARK    4  A    between atoms: C_9  and  C_12
REMARK    5  A    between atoms: C_16  and  N_17
REMARK    6  A    between atoms: N_17  and  C_18
REMARK                            x       y       z     vdW  Elec       q    Type
REMARK                         _______ _______ _______ _____ _____    ______ ____
ROOT
ATOM      1  C   UNL     1      46.717   4.373  13.547  0.00  0.00    +0.000 C 
ATOM      2  F   UNL     1      47.752   5.102  13.035  0.00  0.00    +0.000 F 
ATOM      3  F   UNL     1      47.137   3.071  13.492  0.00  0.00    +0.000 F 
ENDROOT
BRANCH   1   4
ATOM      4  C   UNL     1      45.434   4.589  12.764  0.00  0.00    +0.000 A 
ATOM      5  C   UNL     1      44.214   4.772  13.426  0.00  0.00    +0.000 A 
ATOM      6  C   UNL     1      43.039   4.959  12.697  0.00  0.00    +0.000 A 
ATOM      7  C   UNL     1      43.066   4.957  11.299  0.00  0.00    +0.000 A 
ATOM      8  C   UNL     1      44.270   4.789  10.617  0.00  0.00    +0.000 A 
ATOM      9  C   UNL     1      45.446   4.596  11.360  0.00  0.00    +0.000 A 
BRANCH   8  10
ATOM     10  N   UNL     1      44.370   4.767   9.210  0.00  0.00    +0.000 N 
ATOM     11  H   UNL     1      43.759   5.483   8.816  0.00  0.00    +0.000 HD
BRANCH  10  12
ATOM     12  C   UNL     1      44.471   3.602   8.373  0.00  0.00    +0.000 C 
ATOM     13  C   UNL     1      44.699   2.292   9.144  0.00  0.00    +0.000 C 
ATOM     14  O   UNL     1      45.895   2.002   8.375  0.00  0.00    +0.000 OA
ATOM     15  C   UNL     1      45.906   3.361   7.871  0.00  0.00    +0.000 C 
ENDBRANCH  10  12
ENDBRANCH   8  10
ENDBRANCH   1   4
BRANCH   1  16
ATOM     16  C   UNL     1      46.522   4.764  15.034  0.00  0.00    +0.000 C 
BRANCH  16  21
ATOM     17  C   UNL     1      50.843   4.016  17.733  0.00  0.00    +0.000 A 
ATOM     18  C   UNL     1      49.837   3.139  17.350  0.00  0.00    +0.000 A 
ATOM     19  C   UNL     1      48.749   3.626  16.623  0.00  0.00    +0.000 A 
ATOM     20  C   UNL     1      48.679   4.978  16.294  0.00  0.00    +0.000 A 
ATOM     21  N   UNL     1      47.636   5.524  15.604  0.00  0.00    +0.000 N 
ATOM     22  N   UNL     1      49.653   5.832  16.662  0.00  0.00    +0.000 NA
ATOM     23  C   UNL     1      50.706   5.343  17.366  0.00  0.00    +0.000 A 
ATOM     24  H   UNL     1      47.720   6.521  15.412  0.00  0.00    +0.000 HD
BRANCH  17  26
ATOM     25  N   UNL     1      52.888   3.193  19.090  0.00  0.00    +0.000 NA
ATOM     26  C   UNL     1      51.972   3.567  18.482  0.00  0.00    +0.000 C 
ENDBRANCH  17  26
ENDBRANCH  16  21
ENDBRANCH   1  16
TORSDOF 6
ENDMDL
MODEL 9
REMARK VINA RESULT:    -5.878      3.658      5.153
REMARK INTER + INTRA:          -8.809
REMARK INTER:                  -7.821
REMARK INTRA:                  -0.987
REMARK UNBOUND:                -0.868
REMARK  Name = 
REMARK  6 active torsions:
REMARK  status: ('A' for Active; 'I' for Inactive)
REMARK    1  A    between atoms: C_2  and  C_3
REMARK    2  A    between atoms: N_7  and  C_8
REMARK    3  A    between atoms: C_8  and  C_9
REMARK    4  A    between atoms: C_9  and  C_12
REMARK    5  A    between atoms: C_16  and  N_17
REMARK    6  A    between atoms: N_17  and  C_18
REMARK                            x       y       z     vdW  Elec       q    Type
REMARK                         _______ _______ _______ _____ _____    ______ ____
ROOT
ATOM      1  C   UNL     1      48.522   8.300  12.631  0.00  0.00    +0.000 C 
ATOM      2  F   UNL     1      48.599   7.409  11.599  0.00  0.00    +0.000 F 
ATOM      3  F   UNL     1      49.018   9.473  12.128  0.00  0.00    +0.000 F 
ENDROOT
BRANCH   1   4
ATOM      4  C   UNL     1      49.302   7.827  13.844  0.00  0.00    +0.000 A 
ATOM      5  C   UNL     1      50.657   8.148  13.994  0.00  0.00    +0.000 A 
ATOM      6  C   UNL     1      51.368   7.700  15.108  0.00  0.00    +0.000 A 
ATOM      7  C   UNL     1      50.738   6.917  16.081  0.00  0.00    +0.000 A 
ATOM      8  C   UNL     1      49.386   6.595  15.961  0.00  0.00    +0.000 A 
ATOM      9  C   UNL     1      48.682   7.047  14.833  0.00  0.00    +0.000 A 
BRANCH   8  10
ATOM     10  N   UNL     1      48.689   5.805  16.899  0.00  0.00    +0.000 N 
ATOM     11  H   UNL     1      48.920   6.117  17.843  0.00  0.00    +0.000 HD
BRANCH  10  12
ATOM     12  C   UNL     1      48.456   4.387  16.825  0.00  0.00    +0.000 C 
ATOM     13  C   UNL     1      47.130   4.003  16.150  0.00  0.00    +0.000 C 
ATOM     14  O   UNL     1      46.719   3.232  17.309  0.00  0.00    +0.000 OA
ATOM     15  C   UNL     1      47.779   3.836  18.092  0.00  0.00    +0.000 C 
ENDBRANCH  10  12
ENDBRANCH   8  10
ENDBRANCH   1   4
BRANCH   1  16
ATOM     16  C   UNL     1      47.029   8.514  12.990  0.00  0.00    +0.000 C 
BRANCH  16  21
ATOM     17  C   UNL     1      44.240   4.322  11.916  0.00  0.00    +0.000 A 
ATOM     18  C   UNL     1      45.168   4.575  12.918  0.00  0.00    +0.000 A 
ATOM     19  C   UNL     1      45.799   5.819  12.961  0.00  0.00    +0.000 A 
ATOM     20  C   UNL     1      45.500   6.787  12.007  0.00  0.00    +0.000 A 
ATOM     21  N   UNL     1      46.094   8.016  11.980  0.00  0.00    +0.000 N 
ATOM     22  N   UNL     1      44.599   6.548  11.035  0.00  0.00    +0.000 NA
ATOM     23  C   UNL     1      43.991   5.334  11.006  0.00  0.00    +0.000 A 
ATOM     24  H   UNL     1      45.769   8.637  11.241  0.00  0.00    +0.000 HD
BRANCH  17  26
ATOM     25  N   UNL     1      43.025   2.042  11.759  0.00  0.00    +0.000 NA
ATOM     26  C   UNL     1      43.572   3.064  11.825  0.00  0.00    +0.000 C 
ENDBRANCH  17  26
ENDBRANCH  16  21
ENDBRANCH   1  16
TORSDOF 6
ENDMDL
