MODEL 1
REMARK VINA RESULT:    -7.638      0.000      0.000
REMARK INTER + INTRA:         -11.462
REMARK INTER:                 -10.317
REMARK INTRA:                  -1.145
REMARK UNBOUND:                -1.145
REMARK  Name = 
REMARK  7 active torsions:
REMARK  status: ('A' for Active; 'I' for Inactive)
REMARK    1  A    between atoms: C_1  and  O_2
REMARK    2  A    between atoms: O_2  and  C_3
REMARK    3  A    between atoms: C_5  and  C_6
REMARK    4  A    between atoms: C_11  and  N_12
REMARK    5  A    between atoms: N_12  and  C_13
REMARK    6  A    between atoms: C_13  and  C_14
REMARK    7  A    between atoms: C_18  and  C_19
REMARK                            x       y       z     vdW  Elec       q    Type
REMARK                         _______ _______ _______ _____ _____    ______ ____
ROOT
ATOM      1  N   UNL     1      44.194   6.703  12.636  0.00  0.00    +0.000 N 
ATOM      2  H   UNL     1      43.818   6.186  13.428  0.00  0.00    +0.000 HD
ENDROOT
BRANCH   1   8
ATOM      3  C   UNL     1      46.517   5.969  13.257  0.00  0.00    +0.000 A 
ATOM      4  C   UNL     1      47.893   6.236  13.184  0.00  0.00    +0.000 A 
ATOM      5  C   UNL     1      48.383   7.389  12.559  0.00  0.00    +0.000 A 
ATOM      6  C   UNL     1      47.477   8.280  11.988  0.00  0.00    +0.000 A 
ATOM      7  C   UNL     1      46.100   8.021  12.061  0.00  0.00    +0.000 A 
ATOM      8  C   UNL     1      45.584   6.881  12.708  0.00  0.00    +0.000 A 
BRANCH   5   9
ATOM      9  C   UNL     1      49.862   7.575  12.537  0.00  0.00    +0.000 C 
ATOM     10  N   UNL     1      50.546   7.585  13.720  0.00  0.00    +0.000 N 
ATOM     11  O   UNL     1      50.475   7.717  11.482  0.00  0.00    +0.000 OA
ATOM     12  H   UNL     1      50.132   7.506  14.634  0.00  0.00    +0.000 HD
ATOM     13  H   UNL     1      51.546   7.727  13.661  0.00  0.00    +0.000 HD
ENDBRANCH   5   9
BRANCH   3  15
ATOM     14  C   UNL     1      46.495   3.576  13.298  0.00  0.00    +0.000 C 
ATOM     15  O   UNL     1      46.035   4.814  13.821  0.00  0.00    +0.000 OA
ENDBRANCH   3  15
ENDBRANCH   1   8
BRANCH   1  16
ATOM     16  C   UNL     1      43.549   6.295  11.382  0.00  0.00    +0.000 C 
BRANCH  16  17
ATOM     17  C   UNL     1      43.764   4.820  11.062  0.00  0.00    +0.000 A 
ATOM     18  N   UNL     1      43.101   3.923  11.821  0.00  0.00    +0.000 NA
ATOM     19  C   UNL     1      43.277   2.630  11.519  0.00  0.00    +0.000 A 
ATOM     20  C   UNL     1      44.066   2.201  10.482  0.00  0.00    +0.000 A 
ATOM     21  C   UNL     1      44.696   3.178   9.729  0.00  0.00    +0.000 A 
ATOM     22  N   UNL     1      44.563   4.494  10.020  0.00  0.00    +0.000 NA
BRANCH  21  23
ATOM     23  C   UNL     1      45.561   2.849   8.577  0.00  0.00    +0.000 A 
ATOM     24  C   UNL     1      45.916   3.806   7.614  0.00  0.00    +0.000 A 
ATOM     25  C   UNL     1      46.700   3.431   6.532  0.00  0.00    +0.000 A 
ATOM     26  N   UNL     1      47.163   2.181   6.342  0.00  0.00    +0.000 NA
ATOM     27  C   UNL     1      46.839   1.271   7.282  0.00  0.00    +0.000 A 
ATOM     28  C   UNL     1      46.062   1.552   8.396  0.00  0.00    +0.000 A 
ENDBRANCH  21  23
ENDBRANCH  16  17
ENDBRANCH   1  16
TORSDOF 6
ENDMDL
MODEL 2
REMARK VINA RESULT:    -7.586      2.379      6.323
REMARK INTER + INTRA:         -11.392
REMARK INTER:                 -10.618
REMARK INTRA:                  -0.774
REMARK UNBOUND:                -1.145
REMARK  Name = 
REMARK  7 active torsions:
REMARK  status: ('A' for Active; 'I' for Inactive)
REMARK    1  A    between atoms: C_1  and  O_2
REMARK    2  A    between atoms: O_2  and  C_3
REMARK    3  A    between atoms: C_5  and  C_6
REMARK    4  A    between atoms: C_11  and  N_12
REMARK    5  A    between atoms: N_12  and  C_13
REMARK    6  A    between atoms: C_13  and  C_14
REMARK    7  A    between atoms: C_18  and  C_19
REMARK                            x       y       z     vdW  Elec       q    Type
REMARK                         _______ _______ _______ _____ _____    ______ ____
ROOT
ATOM      1  N   UNL     1      43.671   5.516  10.255  0.00  0.00    +0.000 N 
ATOM      2  H   UNL     1      43.781   6.378   9.725  0.00  0.00    +0.000 HD
ENDROOT
BRANCH   1   8
ATOM      3  C   UNL     1      44.204   3.076   9.972  0.00  0.00    +0.000 A 
ATOM      4  C   UNL     1      44.985   2.112   9.317  0.00  0.00    +0.000 A 
ATOM      5  C   UNL     1      45.984   2.474   8.406  0.00  0.00    +0.000 A 
ATOM      6  C   UNL     1      46.193   3.827   8.140  0.00  0.00    +0.000 A 
ATOM      7  C   UNL     1      45.418   4.795   8.796  0.00  0.00    +0.000 A 
ATOM      8  C   UNL     1      44.426   4.453   9.736  0.00  0.00    +0.000 A 
BRANCH   5   9
ATOM      9  C   UNL     1      46.754   1.371   7.764  0.00  0.00    +0.000 C 
ATOM     10  N   UNL     1      47.785   1.684   6.924  0.00  0.00    +0.000 N 
ATOM     11  O   UNL     1      46.483   0.192   7.976  0.00  0.00    +0.000 OA
ATOM     12  H   UNL     1      48.066   2.616   6.666  0.00  0.00    +0.000 HD
ATOM     13  H   UNL     1      48.273   0.906   6.500  0.00  0.00    +0.000 HD
ENDBRANCH   5   9
BRANCH   3  15
ATOM     14  C   UNL     1      43.539   2.165  12.083  0.00  0.00    +0.000 C 
ATOM     15  O   UNL     1      43.188   2.723  10.825  0.00  0.00    +0.000 OA
ENDBRANCH   3  15
ENDBRANCH   1   8
BRANCH   1  16
ATOM     16  C   UNL     1      43.633   5.781  11.698  0.00  0.00    +0.000 C 
BRANCH  16  17
ATOM     17  C   UNL     1      45.021   5.831  12.324  0.00  0.00    +0.000 A 
ATOM     18  N   UNL     1      45.352   4.831  13.168  0.00  0.00    +0.000 NA
ATOM     19  C   UNL     1      46.582   4.871  13.696  0.00  0.00    +0.000 A 
ATOM     20  C   UNL     1      47.497   5.850  13.401  0.00  0.00    +0.000 A 
ATOM     21  C   UNL     1      47.098   6.829  12.508  0.00  0.00    +0.000 A 
ATOM     22  N   UNL     1      45.854   6.838  11.972  0.00  0.00    +0.000 NA
BRANCH  21  23
ATOM     23  C   UNL     1      47.993   7.931  12.095  0.00  0.00    +0.000 A 
ATOM     24  C   UNL     1      49.333   7.711  11.741  0.00  0.00    +0.000 A 
ATOM     25  C   UNL     1      50.137   8.788  11.398  0.00  0.00    +0.000 A 
ATOM     26  N   UNL     1      49.706  10.064  11.373  0.00  0.00    +0.000 NA
ATOM     27  C   UNL     1      48.412  10.268  11.690  0.00  0.00    +0.000 A 
ATOM     28  C   UNL     1      47.534   9.254  12.045  0.00  0.00    +0.000 A 
ENDBRANCH  21  23
ENDBRANCH  16  17
ENDBRANCH   1  16
TORSDOF 6
ENDMDL
MODEL 3
REMARK VINA RESULT:    -7.495      2.647      6.780
REMARK INTER + INTRA:         -11.269
REMARK INTER:                 -10.713
REMARK INTRA:                  -0.556
REMARK UNBOUND:                -1.145
REMARK  Name = 
REMARK  7 active torsions:
REMARK  status: ('A' for Active; 'I' for Inactive)
REMARK    1  A    between atoms: C_1  and  O_2
REMARK    2  A    between atoms: O_2  and  C_3
REMARK    3  A    between atoms: C_5  and  C_6
REMARK    4  A    between atoms: C_11  and  N_12
REMARK    5  A    between atoms: N_12  and  C_13
REMARK    6  A    between atoms: C_13  and  C_14
REMARK    7  A    between atoms: C_18  and  C_19
REMARK                            x       y       z     vdW  Elec       q    Type
REMARK                         _______ _______ _______ _____ _____    ______ ____
ROOT
ATOM      1  N   UNL     1      43.945   5.534  10.238  0.00  0.00    +0.000 N 
ATOM      2  H   UNL     1      44.029   6.369   9.662  0.00  0.00    +0.000 HD
ENDROOT
BRANCH   1   8
ATOM      3  C   UNL     1      44.340   3.067   9.964  0.00  0.00    +0.000 A 
ATOM      4  C   UNL     1      45.047   2.057   9.293  0.00  0.00    +0.000 A 
ATOM      5  C   UNL     1      46.031   2.359   8.343  0.00  0.00    +0.000 A 
ATOM      6  C   UNL     1      46.300   3.696   8.056  0.00  0.00    +0.000 A 
ATOM      7  C   UNL     1      45.600   4.709   8.727  0.00  0.00    +0.000 A 
ATOM      8  C   UNL     1      44.625   4.429   9.705  0.00  0.00    +0.000 A 
BRANCH   5   9
ATOM      9  C   UNL     1      46.719   1.211   7.688  0.00  0.00    +0.000 C 
ATOM     10  N   UNL     1      47.708   1.464   6.778  0.00  0.00    +0.000 N 
ATOM     11  O   UNL     1      46.420   0.049   7.948  0.00  0.00    +0.000 OA
ATOM     12  H   UNL     1      48.005   2.377   6.477  0.00  0.00    +0.000 HD
ATOM     13  H   UNL     1      48.140   0.657   6.346  0.00  0.00    +0.000 HD
ENDBRANCH   5   9
BRANCH   3  15
ATOM     14  C   UNL     1      43.702   2.524  12.206  0.00  0.00    +0.000 C 
ATOM     15  O   UNL     1      43.338   2.776  10.856  0.00  0.00    +0.000 OA
ENDBRANCH   3  15
ENDBRANCH   1   8
BRANCH   1  16
ATOM     16  C   UNL     1      44.041   5.863  11.666  0.00  0.00    +0.000 C 
BRANCH  16  17
ATOM     17  C   UNL     1      45.472   6.131  12.114  0.00  0.00    +0.000 A 
ATOM     18  N   UNL     1      46.218   6.946  11.337  0.00  0.00    +0.000 NA
ATOM     19  C   UNL     1      47.467   7.194  11.750  0.00  0.00    +0.000 A 
ATOM     20  C   UNL     1      47.992   6.682  12.910  0.00  0.00    +0.000 A 
ATOM     21  C   UNL     1      47.163   5.875  13.669  0.00  0.00    +0.000 A 
ATOM     22  N   UNL     1      45.902   5.580  13.273  0.00  0.00    +0.000 NA
BRANCH  21  23
ATOM     23  C   UNL     1      47.601   5.274  14.947  0.00  0.00    +0.000 A 
ATOM     24  C   UNL     1      48.457   5.947  15.833  0.00  0.00    +0.000 A 
ATOM     25  C   UNL     1      48.866   5.318  16.999  0.00  0.00    +0.000 A 
ATOM     26  N   UNL     1      48.482   4.077  17.354  0.00  0.00    +0.000 NA
ATOM     27  C   UNL     1      47.641   3.444  16.512  0.00  0.00    +0.000 A 
ATOM     28  C   UNL     1      47.179   3.992  15.324  0.00  0.00    +0.000 A 
ENDBRANCH  21  23
ENDBRANCH  16  17
ENDBRANCH   1  16
TORSDOF 6
ENDMDL
MODEL 4
REMARK VINA RESULT:    -7.026      1.382      2.148
REMARK INTER + INTRA:         -10.635
REMARK INTER:                  -9.941
REMARK INTRA:                  -0.694
REMARK UNBOUND:                -1.145
REMARK  Name = 
REMARK  7 active torsions:
REMARK  status: ('A' for Active; 'I' for Inactive)
REMARK    1  A    between atoms: C_1  and  O_2
REMARK    2  A    between atoms: O_2  and  C_3
REMARK    3  A    between atoms: C_5  and  C_6
REMARK    4  A    between atoms: C_11  and  N_12
REMARK    5  A    between atoms: N_12  and  C_13
REMARK    6  A    between atoms: C_13  and  C_14
REMARK    7  A    between atoms: C_18  and  C_19
REMARK                            x       y       z     vdW  Elec       q    Type
REMARK                         _______ _______ _______ _____ _____    ______ ____
ROOT
ATOM      1  N   UNL     1      44.178   6.793  12.443  0.00  0.00    +0.000 N 
ATOM      2  H   UNL     1      44.036   6.165  13.231  0.00  0.00    +0.000 HD
ENDROOT
BRANCH   1   8
ATOM      3  C   UNL     1      45.876   8.646  12.392  0.00  0.00    +0.000 A 
ATOM      4  C   UNL     1      47.236   8.995  12.392  0.00  0.00    +0.000 A 
ATOM      5  C   UNL     1      48.242   8.021  12.383  0.00  0.00    +0.000 A 
ATOM      6  C   UNL     1      47.875   6.677  12.385  0.00  0.00    +0.000 A 
ATOM      7  C   UNL     1      46.519   6.322  12.381  0.00  0.00    +0.000 A 
ATOM      8  C   UNL     1      45.491   7.285  12.363  0.00  0.00    +0.000 A 
BRANCH   5   9
ATOM      9  C   UNL     1      49.653   8.500  12.386  0.00  0.00    +0.000 C 
ATOM     10  N   UNL     1      50.653   7.618  12.083  0.00  0.00    +0.000 N 
ATOM     11  O   UNL     1      49.935   9.666  12.651  0.00  0.00    +0.000 OA
ATOM     12  H   UNL     1      50.527   6.640  11.880  0.00  0.00    +0.000 HD
ATOM     13  H   UNL     1      51.597   7.981  12.109  0.00  0.00    +0.000 HD
ENDBRANCH   5   9
BRANCH   3  15
ATOM     14  C   UNL     1      45.018  10.747  11.634  0.00  0.00    +0.000 C 
ATOM     15  O   UNL     1      44.888   9.596  12.456  0.00  0.00    +0.000 OA
ENDBRANCH   3  15
ENDBRANCH   1   8
BRANCH   1  16
ATOM     16  C   UNL     1      43.479   6.310  11.246  0.00  0.00    +0.000 C 
BRANCH  16  17
ATOM     17  C   UNL     1      43.730   4.832  10.974  0.00  0.00    +0.000 A 
ATOM     18  N   UNL     1      43.092   3.943  11.765  0.00  0.00    +0.000 NA
ATOM     19  C   UNL     1      43.301   2.647  11.504  0.00  0.00    +0.000 A 
ATOM     20  C   UNL     1      44.098   2.204  10.479  0.00  0.00    +0.000 A 
ATOM     21  C   UNL     1      44.701   3.170   9.693  0.00  0.00    +0.000 A 
ATOM     22  N   UNL     1      44.535   4.492   9.940  0.00  0.00    +0.000 NA
BRANCH  21  23
ATOM     23  C   UNL     1      45.571   2.826   8.549  0.00  0.00    +0.000 A 
ATOM     24  C   UNL     1      45.933   3.771   7.576  0.00  0.00    +0.000 A 
ATOM     25  C   UNL     1      46.721   3.381   6.503  0.00  0.00    +0.000 A 
ATOM     26  N   UNL     1      47.182   2.127   6.330  0.00  0.00    +0.000 NA
ATOM     27  C   UNL     1      46.852   1.229   7.280  0.00  0.00    +0.000 A 
ATOM     28  C   UNL     1      46.069   1.526   8.386  0.00  0.00    +0.000 A 
ENDBRANCH  21  23
ENDBRANCH  16  17
ENDBRANCH   1  16
TORSDOF 6
ENDMDL
MODEL 5
REMARK VINA RESULT:    -7.010      2.416      6.709
REMARK INTER + INTRA:         -10.614
REMARK INTER:                 -10.305
REMARK INTRA:                  -0.309
REMARK UNBOUND:                -1.145
REMARK  Name = 
REMARK  7 active torsions:
REMARK  status: ('A' for Active; 'I' for Inactive)
REMARK    1  A    between atoms: C_1  and  O_2
REMARK    2  A    between atoms: O_2  and  C_3
REMARK    3  A    between atoms: C_5  and  C_6
REMARK    4  A    between atoms: C_11  and  N_12
REMARK    5  A    between atoms: N_12  and  C_13
REMARK    6  A    between atoms: C_13  and  C_14
REMARK    7  A    between atoms: C_18  and  C_19
REMARK                            x       y       z     vdW  Elec       q    Type
REMARK                         _______ _______ _______ _____ _____    ______ ____
ROOT
ATOM      1  N   UNL     1      43.952   5.219   9.910  0.00  0.00    +0.000 N 
ATOM      2  H   UNL     1      43.932   6.034   9.300  0.00  0.00    +0.000 HD
ENDROOT
BRANCH   1   8
ATOM      3  C   UNL     1      44.501   2.781   9.637  0.00  0.00    +0.000 A 
ATOM      4  C   UNL     1      45.276   1.819   8.971  0.00  0.00    +0.000 A 
ATOM      5  C   UNL     1      46.249   2.182   8.033  0.00  0.00    +0.000 A 
ATOM      6  C   UNL     1      46.438   3.534   7.750  0.00  0.00    +0.000 A 
ATOM      7  C   UNL     1      45.670   4.501   8.415  0.00  0.00    +0.000 A 
ATOM      8  C   UNL     1      44.705   4.158   9.382  0.00  0.00    +0.000 A 
BRANCH   5   9
ATOM      9  C   UNL     1      47.014   1.080   7.383  0.00  0.00    +0.000 C 
ATOM     10  N   UNL     1      46.734  -0.213   7.727  0.00  0.00    +0.000 N 
ATOM     11  O   UNL     1      47.885   1.308   6.548  0.00  0.00    +0.000 OA
ATOM     12  H   UNL     1      46.061  -0.500   8.419  0.00  0.00    +0.000 HD
ATOM     13  H   UNL     1      47.285  -0.929   7.273  0.00  0.00    +0.000 HD
ENDBRANCH   5   9
BRANCH   3  15
ATOM     14  C   UNL     1      43.821   2.426  11.903  0.00  0.00    +0.000 C 
ATOM     15  O   UNL     1      43.510   2.427  10.517  0.00  0.00    +0.000 OA
ENDBRANCH   3  15
ENDBRANCH   1   8
BRANCH   1  16
ATOM     16  C   UNL     1      44.084   5.612  11.318  0.00  0.00    +0.000 C 
BRANCH  16  17
ATOM     17  C   UNL     1      44.787   6.953  11.492  0.00  0.00    +0.000 A 
ATOM     18  N   UNL     1      44.055   8.065  11.273  0.00  0.00    +0.000 NA
ATOM     19  C   UNL     1      44.674   9.239  11.450  0.00  0.00    +0.000 A 
ATOM     20  C   UNL     1      45.981   9.347  11.855  0.00  0.00    +0.000 A 
ATOM     21  C   UNL     1      46.664   8.165  12.085  0.00  0.00    +0.000 A 
ATOM     22  N   UNL     1      46.080   6.958  11.892  0.00  0.00    +0.000 NA
BRANCH  21  23
ATOM     23  C   UNL     1      48.071   8.143  12.538  0.00  0.00    +0.000 A 
ATOM     24  C   UNL     1      49.132   8.507  11.695  0.00  0.00    +0.000 A 
ATOM     25  C   UNL     1      50.435   8.431  12.163  0.00  0.00    +0.000 A 
ATOM     26  N   UNL     1      50.761   8.028  13.406  0.00  0.00    +0.000 NA
ATOM     27  C   UNL     1      49.737   7.702  14.220  0.00  0.00    +0.000 A 
ATOM     28  C   UNL     1      48.404   7.747  13.841  0.00  0.00    +0.000 A 
ENDBRANCH  21  23
ENDBRANCH  16  17
ENDBRANCH   1  16
TORSDOF 6
ENDMDL
MODEL 6
REMARK VINA RESULT:    -6.979      2.532      6.553
REMARK INTER + INTRA:         -10.573
REMARK INTER:                  -9.578
REMARK INTRA:                  -0.995
REMARK UNBOUND:                -1.145
REMARK  Name = 
REMARK  7 active torsions:
REMARK  status: ('A' for Active; 'I' for Inactive)
REMARK    1  A    between atoms: C_1  and  O_2
REMARK    2  A    between atoms: O_2  and  C_3
REMARK    3  A    between atoms: C_5  and  C_6
REMARK    4  A    between atoms: C_11  and  N_12
REMARK    5  A    between atoms: N_12  and  C_13
REMARK    6  A    between atoms: C_13  and  C_14
REMARK    7  A    between atoms: C_18  and  C_19
REMARK                            x       y       z     vdW  Elec       q    Type
REMARK                         _______ _______ _______ _____ _____    ______ ____
ROOT
ATOM      1  N   UNL     1      43.463   3.809  10.649  0.00  0.00    +0.000 N 
ATOM      2  H   UNL     1      43.189   4.782  10.534  0.00  0.00    +0.000 HD
ENDROOT
BRANCH   1   8
ATOM      3  C   UNL     1      45.267   4.193   8.941  0.00  0.00    +0.000 A 
ATOM      4  C   UNL     1      46.185   3.615   8.051  0.00  0.00    +0.000 A 
ATOM      5  C   UNL     1      46.256   2.228   7.870  0.00  0.00    +0.000 A 
ATOM      6  C   UNL     1      45.400   1.410   8.604  0.00  0.00    +0.000 A 
ATOM      7  C   UNL     1      44.477   1.982   9.492  0.00  0.00    +0.000 A 
ATOM      8  C   UNL     1      44.371   3.376   9.670  0.00  0.00    +0.000 A 
BRANCH   5   9
ATOM      9  C   UNL     1      47.269   1.719   6.902  0.00  0.00    +0.000 C 
ATOM     10  N   UNL     1      48.283   2.546   6.507  0.00  0.00    +0.000 N 
ATOM     11  O   UNL     1      47.212   0.577   6.454  0.00  0.00    +0.000 OA
ATOM     12  H   UNL     1      48.399   3.505   6.794  0.00  0.00    +0.000 HD
ATOM     13  H   UNL     1      48.940   2.166   5.839  0.00  0.00    +0.000 HD
ENDBRANCH   5   9
BRANCH   3  15
ATOM     14  C   UNL     1      46.455   6.207   9.453  0.00  0.00    +0.000 C 
ATOM     15  O   UNL     1      45.231   5.547   9.162  0.00  0.00    +0.000 OA
ENDBRANCH   3  15
ENDBRANCH   1   8
BRANCH   1  16
ATOM     16  C   UNL     1      43.664   3.477  12.065  0.00  0.00    +0.000 C 
BRANCH  16  17
ATOM     17  C   UNL     1      44.903   4.140  12.654  0.00  0.00    +0.000 A 
ATOM     18  N   UNL     1      45.818   3.332  13.232  0.00  0.00    +0.000 NA
ATOM     19  C   UNL     1      46.914   3.920  13.727  0.00  0.00    +0.000 A 
ATOM     20  C   UNL     1      47.143   5.271  13.650  0.00  0.00    +0.000 A 
ATOM     21  C   UNL     1      46.175   6.035  13.022  0.00  0.00    +0.000 A 
ATOM     22  N   UNL     1      45.041   5.480  12.531  0.00  0.00    +0.000 NA
BRANCH  21  23
ATOM     23  C   UNL     1      46.307   7.498  12.860  0.00  0.00    +0.000 A 
ATOM     24  C   UNL     1      45.297   8.279  12.277  0.00  0.00    +0.000 A 
ATOM     25  C   UNL     1      45.493   9.642  12.116  0.00  0.00    +0.000 A 
ATOM     26  N   UNL     1      46.612  10.288  12.498  0.00  0.00    +0.000 NA
ATOM     27  C   UNL     1      47.570   9.537  13.078  0.00  0.00    +0.000 A 
ATOM     28  C   UNL     1      47.464   8.169  13.281  0.00  0.00    +0.000 A 
ENDBRANCH  21  23
ENDBRANCH  16  17
ENDBRANCH   1  16
TORSDOF 6
ENDMDL
MODEL 7
REMARK VINA RESULT:    -6.578      2.699      3.931
REMARK INTER + INTRA:         -10.031
REMARK INTER:                  -9.386
REMARK INTRA:                  -0.645
REMARK UNBOUND:                -1.145
REMARK  Name = 
REMARK  7 active torsions:
REMARK  status: ('A' for Active; 'I' for Inactive)
REMARK    1  A    between atoms: C_1  and  O_2
REMARK    2  A    between atoms: O_2  and  C_3
REMARK    3  A    between atoms: C_5  and  C_6
REMARK    4  A    between atoms: C_11  and  N_12
REMARK    5  A    between atoms: N_12  and  C_13
REMARK    6  A    between atoms: C_13  and  C_14
REMARK    7  A    between atoms: C_18  and  C_19
REMARK                            x       y       z     vdW  Elec       q    Type
REMARK                         _______ _______ _______ _____ _____    ______ ____
ROOT
ATOM      1  N   UNL     1      47.461   6.563  12.706  0.00  0.00    +0.000 N 
ATOM      2  H   UNL     1      48.241   7.143  12.405  0.00  0.00    +0.000 HD
ENDROOT
BRANCH   1   8
ATOM      3  C   UNL     1      48.421   6.477  15.028  0.00  0.00    +0.000 A 
ATOM      4  C   UNL     1      48.494   5.782  16.244  0.00  0.00    +0.000 A 
ATOM      5  C   UNL     1      47.836   4.560  16.430  0.00  0.00    +0.000 A 
ATOM      6  C   UNL     1      47.084   4.035  15.381  0.00  0.00    +0.000 A 
ATOM      7  C   UNL     1      47.011   4.723  14.161  0.00  0.00    +0.000 A 
ATOM      8  C   UNL     1      47.686   5.940  13.944  0.00  0.00    +0.000 A 
BRANCH   5   9
ATOM      9  C   UNL     1      47.978   3.906  17.762  0.00  0.00    +0.000 C 
ATOM     10  N   UNL     1      47.190   2.829  18.059  0.00  0.00    +0.000 N 
ATOM     11  O   UNL     1      48.785   4.312  18.594  0.00  0.00    +0.000 OA
ATOM     12  H   UNL     1      46.481   2.441  17.458  0.00  0.00    +0.000 HD
ATOM     13  H   UNL     1      47.308   2.424  18.978  0.00  0.00    +0.000 HD
ENDBRANCH   5   9
BRANCH   3  15
ATOM     14  C   UNL     1      50.437   7.744  14.794  0.00  0.00    +0.000 C 
ATOM     15  O   UNL     1      49.019   7.701  14.859  0.00  0.00    +0.000 OA
ENDBRANCH   3  15
ENDBRANCH   1   8
BRANCH   1  16
ATOM     16  C   UNL     1      46.175   7.204  12.406  0.00  0.00    +0.000 C 
BRANCH  16  17
ATOM     17  C   UNL     1      45.225   6.291  11.641  0.00  0.00    +0.000 A 
ATOM     18  N   UNL     1      43.905   6.438  11.879  0.00  0.00    +0.000 NA
ATOM     19  C   UNL     1      43.076   5.647  11.185  0.00  0.00    +0.000 A 
ATOM     20  C   UNL     1      43.508   4.737  10.254  0.00  0.00    +0.000 A 
ATOM     21  C   UNL     1      44.874   4.658  10.043  0.00  0.00    +0.000 A 
ATOM     22  N   UNL     1      45.746   5.423  10.743  0.00  0.00    +0.000 NA
BRANCH  21  23
ATOM     23  C   UNL     1      45.467   3.730   9.057  0.00  0.00    +0.000 A 
ATOM     24  C   UNL     1      45.386   2.337   9.202  0.00  0.00    +0.000 A 
ATOM     25  C   UNL     1      45.995   1.514   8.265  0.00  0.00    +0.000 A 
ATOM     26  N   UNL     1      46.670   1.973   7.194  0.00  0.00    +0.000 NA
ATOM     27  C   UNL     1      46.725   3.312   7.047  0.00  0.00    +0.000 A 
ATOM     28  C   UNL     1      46.148   4.212   7.930  0.00  0.00    +0.000 A 
ENDBRANCH  21  23
ENDBRANCH  16  17
ENDBRANCH   1  16
TORSDOF 6
ENDMDL
MODEL 8
REMARK VINA RESULT:    -6.547      1.809      2.914
REMARK INTER + INTRA:          -9.989
REMARK INTER:                  -9.657
REMARK INTRA:                  -0.332
REMARK UNBOUND:                -1.145
REMARK  Name = 
REMARK  7 active torsions:
REMARK  status: ('A' for Active; 'I' for Inactive)
REMARK    1  A    between atoms: C_1  and  O_2
REMARK    2  A    between atoms: O_2  and  C_3
REMARK    3  A    between atoms: C_5  and  C_6
REMARK    4  A    between atoms: C_11  and  N_12
REMARK    5  A    between atoms: N_12  and  C_13
REMARK    6  A    between atoms: C_13  and  C_14
REMARK    7  A    between atoms: C_18  and  C_19
REMARK                            x       y       z     vdW  Elec       q    Type
REMARK                         _______ _______ _______ _____ _____    ______ ____
ROOT
ATOM      1  N   UNL     1      46.182   6.638  11.506  0.00  0.00    +0.000 N 
ATOM      2  H   UNL     1      46.371   7.573  11.150  0.00  0.00    +0.000 HD
ENDROOT
BRANCH   1   8
ATOM      3  C   UNL     1      47.836   7.183  13.319  0.00  0.00    +0.000 A 
ATOM      4  C   UNL     1      48.392   6.812  14.553  0.00  0.00    +0.000 A 
ATOM      5  C   UNL     1      48.008   5.633  15.204  0.00  0.00    +0.000 A 
ATOM      6  C   UNL     1      47.042   4.822  14.612  0.00  0.00    +0.000 A 
ATOM      7  C   UNL     1      46.487   5.185  13.376  0.00  0.00    +0.000 A 
ATOM      8  C   UNL     1      46.877   6.352  12.691  0.00  0.00    +0.000 A 
BRANCH   5   9
ATOM      9  C   UNL     1      48.660   5.334  16.511  0.00  0.00    +0.000 C 
ATOM     10  N   UNL     1      48.693   6.306  17.472  0.00  0.00    +0.000 N 
ATOM     11  O   UNL     1      49.163   4.239  16.742  0.00  0.00    +0.000 OA
ATOM     12  H   UNL     1      48.335   7.242  17.369  0.00  0.00    +0.000 HD
ATOM     13  H   UNL     1      49.156   6.067  18.339  0.00  0.00    +0.000 HD
ENDBRANCH   5   9
BRANCH   3  15
ATOM     14  C   UNL     1      49.177   8.329  11.702  0.00  0.00    +0.000 C 
ATOM     15  O   UNL     1      48.169   8.363  12.703  0.00  0.00    +0.000 OA
ENDBRANCH   3  15
ENDBRANCH   1   8
BRANCH   1  16
ATOM     16  C   UNL     1      44.763   6.291  11.360  0.00  0.00    +0.000 C 
BRANCH  16  17
ATOM     17  C   UNL     1      44.552   4.847  10.921  0.00  0.00    +0.000 A 
ATOM     18  N   UNL     1      43.630   4.127  11.595  0.00  0.00    +0.000 NA
ATOM     19  C   UNL     1      43.435   2.867  11.187  0.00  0.00    +0.000 A 
ATOM     20  C   UNL     1      44.103   2.306  10.128  0.00  0.00    +0.000 A 
ATOM     21  C   UNL     1      45.016   3.110   9.468  0.00  0.00    +0.000 A 
ATOM     22  N   UNL     1      45.260   4.382   9.866  0.00  0.00    +0.000 NA
BRANCH  21  23
ATOM     23  C   UNL     1      45.790   2.632   8.303  0.00  0.00    +0.000 A 
ATOM     24  C   UNL     1      46.279   1.319   8.220  0.00  0.00    +0.000 A 
ATOM     25  C   UNL     1      47.032   0.938   7.119  0.00  0.00    +0.000 A 
ATOM     26  N   UNL     1      47.328   1.760   6.094  0.00  0.00    +0.000 NA
ATOM     27  C   UNL     1      46.836   3.013   6.167  0.00  0.00    +0.000 A 
ATOM     28  C   UNL     1      46.074   3.484   7.226  0.00  0.00    +0.000 A 
ENDBRANCH  21  23
ENDBRANCH  16  17
ENDBRANCH   1  16
TORSDOF 6
ENDMDL
MODEL 9
REMARK VINA RESULT:    -6.452      4.607      8.321
REMARK INTER + INTRA:          -9.860
REMARK INTER:                  -9.361
REMARK INTRA:                  -0.499
REMARK UNBOUND:                -1.145
REMARK  Name = 
REMARK  7 active torsions:
REMARK  status: ('A' for Active; 'I' for Inactive)
REMARK    1  A    between atoms: C_1  and  O_2
REMARK    2  A    between atoms: O_2  and  C_3
REMARK    3  A    between atoms: C_5  and  C_6
REMARK    4  A    between atoms: C_11  and  N_12
REMARK    5  A    between atoms: N_12  and  C_13
REMARK    6  A    between atoms: C_13  and  C_14
REMARK    7  A    between atoms: C_18  and  C_19
REMARK                            x       y       z     vdW  Elec       q    Type
REMARK                         _______ _______ _______ _____ _____    ______ ____
ROOT
ATOM      1  N   UNL     1      46.874   5.611  14.469  0.00  0.00    +0.000 N 
ATOM      2  H   UNL     1      47.680   6.202  14.274  0.00  0.00    +0.000 HD
ENDROOT
BRANCH   1   8
ATOM      3  C   UNL     1      46.000   5.982  12.141  0.00  0.00    +0.000 A 
ATOM      4  C   UNL     1      45.380   5.419  11.015  0.00  0.00    +0.000 A 
ATOM      5  C   UNL     1      44.960   4.083  11.001  0.00  0.00    +0.000 A 
ATOM      6  C   UNL     1      45.177   3.298  12.133  0.00  0.00    +0.000 A 
ATOM      7  C   UNL     1      45.792   3.857  13.263  0.00  0.00    +0.000 A 
ATOM      8  C   UNL     1      46.199   5.205  13.308  0.00  0.00    +0.000 A 
BRANCH   5   9
ATOM      9  C   UNL     1      44.314   3.585   9.754  0.00  0.00    +0.000 C 
ATOM     10  N   UNL     1      44.143   4.447   8.707  0.00  0.00    +0.000 N 
ATOM     11  O   UNL     1      43.936   2.422   9.646  0.00  0.00    +0.000 OA
ATOM     12  H   UNL     1      44.393   5.423   8.707  0.00  0.00    +0.000 HD
ATOM     13  H   UNL     1      43.689   4.073   7.884  0.00  0.00    +0.000 HD
ENDBRANCH   5   9
BRANCH   3  15
ATOM     14  C   UNL     1      45.629   8.278  12.705  0.00  0.00    +0.000 C 
ATOM     15  O   UNL     1      46.461   7.274  12.140  0.00  0.00    +0.000 OA
ENDBRANCH   3  15
ENDBRANCH   1   8
BRANCH   1  16
ATOM     16  C   UNL     1      47.164   4.657  15.547  0.00  0.00    +0.000 C 
BRANCH  16  17
ATOM     17  C   UNL     1      48.410   5.027  16.342  0.00  0.00    +0.000 A 
ATOM     18  N   UNL     1      48.534   6.315  16.727  0.00  0.00    +0.000 NA
ATOM     19  C   UNL     1      49.621   6.626  17.445  0.00  0.00    +0.000 A 
ATOM     20  C   UNL     1      50.571   5.706  17.810  0.00  0.00    +0.000 A 
ATOM     21  C   UNL     1      50.366   4.399  17.402  0.00  0.00    +0.000 A 
ATOM     22  N   UNL     1      49.293   4.050  16.653  0.00  0.00    +0.000 NA
BRANCH  21  23
ATOM     23  C   UNL     1      51.306   3.311  17.741  0.00  0.00    +0.000 A 
ATOM     24  C   UNL     1      52.465   3.535  18.500  0.00  0.00    +0.000 A 
ATOM     25  C   UNL     1      53.331   2.482  18.755  0.00  0.00    +0.000 A 
ATOM     26  N   UNL     1      53.127   1.223  18.320  0.00  0.00    +0.000 NA
ATOM     27  C   UNL     1      52.000   1.008  17.612  0.00  0.00    +0.000 A 
ATOM     28  C   UNL     1      51.077   1.997  17.308  0.00  0.00    +0.000 A 
ENDBRANCH  21  23
ENDBRANCH  16  17
ENDBRANCH   1  16
TORSDOF 6
ENDMDL
