MODEL 1
REMARK VINA RESULT:    -8.836      0.000      0.000
REMARK INTER + INTRA:         -12.251
REMARK INTER:                 -11.418
REMARK INTRA:                  -0.833
REMARK UNBOUND:                -0.833
REMARK  Name = 
REMARK  6 active torsions:
REMARK  status: ('A' for Active; 'I' for Inactive)
REMARK    1  A    between atoms: C_1  and  C_2
REMARK    2  A    between atoms: C_2  and  N_3
REMARK    3  A    between atoms: C_2  and  C_16
REMARK    4  A    between atoms: C_4  and  C_6
REMARK    5  A    between atoms: C_19  and  C_20
REMARK    6  A    between atoms: C_20  and  C_21
REMARK                            x       y       z     vdW  Elec       q    Type
REMARK                         _______ _______ _______ _____ _____    ______ ____
ROOT
ATOM      1  C   UNL     1      45.588   8.592  12.873  0.00  0.00    +0.000 C 
ATOM      2  C   UNL     1      46.684   7.521  12.795  0.00  0.00    +0.000 C 
ENDROOT
BRANCH   2   3
ATOM      3  C   UNL     1      46.176   6.377  11.931  0.00  0.00    +0.000 A 
ATOM      4  C   UNL     1      46.327   6.441  10.539  0.00  0.00    +0.000 A 
ATOM      5  C   UNL     1      45.775   5.453   9.720  0.00  0.00    +0.000 A 
ATOM      6  C   UNL     1      45.086   4.365  10.277  0.00  0.00    +0.000 A 
ATOM      7  C   UNL     1      44.951   4.289  11.666  0.00  0.00    +0.000 A 
ATOM      8  C   UNL     1      45.473   5.293  12.481  0.00  0.00    +0.000 A 
BRANCH   6   9
ATOM      9  C   UNL     1      44.471   3.293   9.407  0.00  0.00    +0.000 C 
BRANCH   9  10
ATOM     10  C   UNL     1      45.342   2.763   8.290  0.00  0.00    +0.000 A 
ATOM     11  C   UNL     1      45.972   1.526   8.414  0.00  0.00    +0.000 A 
ATOM     12  C   UNL     1      46.942   1.163   7.484  0.00  0.00    +0.000 A 
ATOM     13  C   UNL     1      47.244   2.030   6.443  0.00  0.00    +0.000 A 
ATOM     14  C   UNL     1      46.538   3.217   6.358  0.00  0.00    +0.000 A 
ATOM     15  N   UNL     1      45.604   3.605   7.256  0.00  0.00    +0.000 NA
ENDBRANCH   9  10
ENDBRANCH   6   9
ENDBRANCH   2   3
BRANCH   2  16
ATOM     16  N   UNL     1      47.096   7.040  14.103  0.00  0.00    +0.000 N 
ATOM     17  C   UNL     1      48.395   6.690  14.374  0.00  0.00    +0.000 C 
ATOM     18  O   UNL     1      49.293   6.782  13.546  0.00  0.00    +0.000 OA
ATOM     19  H   UNL     1      46.369   6.616  14.674  0.00  0.00    +0.000 HD
BRANCH  17  20
ATOM     20  C   UNL     1      48.681   6.248  15.740  0.00  0.00    +0.000 A 
ATOM     21  C   UNL     1      49.530   7.004  16.535  0.00  0.00    +0.000 A 
ATOM     22  S   UNL     1      49.806   6.326  18.074  0.00  0.00    +0.000 S 
ATOM     23  C   UNL     1      48.817   4.988  17.718  0.00  0.00    +0.000 A 
ATOM     24  N   UNL     1      48.669   3.968  18.608  0.00  0.00    +0.000 NA
ATOM     25  C   UNL     1      47.920   3.006  18.193  0.00  0.00    +0.000 A 
ATOM     26  N   UNL     1      47.278   2.976  16.980  0.00  0.00    +0.000 N 
ATOM     27  C   UNL     1      47.360   4.006  16.070  0.00  0.00    +0.000 A 
ATOM     28  O   UNL     1      46.714   3.995  15.031  0.00  0.00    +0.000 OA
ATOM     29  C   UNL     1      48.241   5.085  16.465  0.00  0.00    +0.000 A 
ATOM     30  H   UNL     1      46.679   2.206  16.731  0.00  0.00    +0.000 HD
ENDBRANCH  17  20
ENDBRANCH   2  16
TORSDOF 5
ENDMDL
MODEL 2
REMARK VINA RESULT:    -8.045      1.974      2.665
REMARK INTER + INTRA:         -11.229
REMARK INTER:                 -10.317
REMARK INTRA:                  -0.913
REMARK UNBOUND:                -0.833
REMARK  Name = 
REMARK  6 active torsions:
REMARK  status: ('A' for Active; 'I' for Inactive)
REMARK    1  A    between atoms: C_1  and  C_2
REMARK    2  A    between atoms: C_2  and  N_3
REMARK    3  A    between atoms: C_2  and  C_16
REMARK    4  A    between atoms: C_4  and  C_6
REMARK    5  A    between atoms: C_19  and  C_20
REMARK    6  A    between atoms: C_20  and  C_21
REMARK                            x       y       z     vdW  Elec       q    Type
REMARK                         _______ _______ _______ _____ _____    ______ ____
ROOT
ATOM      1  C   UNL     1      47.670   8.514  13.819  0.00  0.00    +0.000 C 
ATOM      2  C   UNL     1      47.959   7.008  13.791  0.00  0.00    +0.000 C 
ENDROOT
BRANCH   2   3
ATOM      3  C   UNL     1      46.971   6.347  12.843  0.00  0.00    +0.000 A 
ATOM      4  C   UNL     1      46.327   5.163  13.227  0.00  0.00    +0.000 A 
ATOM      5  C   UNL     1      45.497   4.485  12.332  0.00  0.00    +0.000 A 
ATOM      6  C   UNL     1      45.269   4.991  11.043  0.00  0.00    +0.000 A 
ATOM      7  C   UNL     1      45.894   6.182  10.665  0.00  0.00    +0.000 A 
ATOM      8  C   UNL     1      46.749   6.842  11.548  0.00  0.00    +0.000 A 
BRANCH   6   9
ATOM      9  C   UNL     1      44.384   4.264  10.057  0.00  0.00    +0.000 C 
BRANCH   9  10
ATOM     10  C   UNL     1      45.095   3.505   8.960  0.00  0.00    +0.000 A 
ATOM     11  C   UNL     1      45.325   2.135   9.084  0.00  0.00    +0.000 A 
ATOM     12  C   UNL     1      46.174   1.506   8.179  0.00  0.00    +0.000 A 
ATOM     13  C   UNL     1      46.754   2.249   7.161  0.00  0.00    +0.000 A 
ATOM     14  C   UNL     1      46.436   3.593   7.072  0.00  0.00    +0.000 A 
ATOM     15  N   UNL     1      45.630   4.236   7.947  0.00  0.00    +0.000 NA
ENDBRANCH   9  10
ENDBRANCH   6   9
ENDBRANCH   2   3
BRANCH   2  16
ATOM     16  N   UNL     1      47.902   6.397  15.108  0.00  0.00    +0.000 N 
ATOM     17  C   UNL     1      49.020   6.245  15.890  0.00  0.00    +0.000 C 
ATOM     18  O   UNL     1      50.129   6.633  15.543  0.00  0.00    +0.000 OA
ATOM     19  H   UNL     1      47.127   5.760  15.273  0.00  0.00    +0.000 HD
BRANCH  17  20
ATOM     20  C   UNL     1      48.818   5.639  17.207  0.00  0.00    +0.000 A 
ATOM     21  C   UNL     1      48.986   4.271  17.358  0.00  0.00    +0.000 A 
ATOM     22  S   UNL     1      48.658   3.713  18.934  0.00  0.00    +0.000 S 
ATOM     23  C   UNL     1      48.257   5.281  19.460  0.00  0.00    +0.000 A 
ATOM     24  N   UNL     1      47.814   5.504  20.728  0.00  0.00    +0.000 NA
ATOM     25  C   UNL     1      47.515   6.732  20.977  0.00  0.00    +0.000 A 
ATOM     26  N   UNL     1      47.643   7.769  20.086  0.00  0.00    +0.000 N 
ATOM     27  C   UNL     1      48.133   7.598  18.811  0.00  0.00    +0.000 A 
ATOM     28  O   UNL     1      48.316   8.548  18.062  0.00  0.00    +0.000 OA
ATOM     29  C   UNL     1      48.425   6.223  18.462  0.00  0.00    +0.000 A 
ATOM     30  H   UNL     1      47.423   8.714  20.357  0.00  0.00    +0.000 HD
ENDBRANCH  17  20
ENDBRANCH   2  16
TORSDOF 5
ENDMDL
MODEL 3
REMARK VINA RESULT:    -7.917      1.774      2.401
REMARK INTER + INTRA:         -11.063
REMARK INTER:                 -10.191
REMARK INTRA:                  -0.872
REMARK UNBOUND:                -0.833
REMARK  Name = 
REMARK  6 active torsions:
REMARK  status: ('A' for Active; 'I' for Inactive)
REMARK    1  A    between atoms: C_1  and  C_2
REMARK    2  A    between atoms: C_2  and  N_3
REMARK    3  A    between atoms: C_2  and  C_16
REMARK    4  A    between atoms: C_4  and  C_6
REMARK    5  A    between atoms: C_19  and  C_20
REMARK    6  A    between atoms: C_20  and  C_21
REMARK                            x       y       z     vdW  Elec       q    Type
REMARK                         _______ _______ _______ _____ _____    ______ ____
ROOT
ATOM      1  C   UNL     1      48.881   8.465  13.250  0.00  0.00    +0.000 C 
ATOM      2  C   UNL     1      48.562   7.072  13.807  0.00  0.00    +0.000 C 
ENDROOT
BRANCH   2   3
ATOM      3  C   UNL     1      47.431   6.474  12.985  0.00  0.00    +0.000 A 
ATOM      4  C   UNL     1      46.787   5.314  13.434  0.00  0.00    +0.000 A 
ATOM      5  C   UNL     1      45.819   4.689  12.644  0.00  0.00    +0.000 A 
ATOM      6  C   UNL     1      45.453   5.229  11.401  0.00  0.00    +0.000 A 
ATOM      7  C   UNL     1      46.080   6.397  10.960  0.00  0.00    +0.000 A 
ATOM      8  C   UNL     1      47.070   7.002  11.735  0.00  0.00    +0.000 A 
BRANCH   6   9
ATOM      9  C   UNL     1      44.417   4.561  10.526  0.00  0.00    +0.000 C 
BRANCH   9  10
ATOM     10  C   UNL     1      44.949   3.744   9.370  0.00  0.00    +0.000 A 
ATOM     11  C   UNL     1      45.076   2.361   9.483  0.00  0.00    +0.000 A 
ATOM     12  C   UNL     1      45.775   1.662   8.503  0.00  0.00    +0.000 A 
ATOM     13  C   UNL     1      46.309   2.354   7.426  0.00  0.00    +0.000 A 
ATOM     14  C   UNL     1      46.097   3.720   7.357  0.00  0.00    +0.000 A 
ATOM     15  N   UNL     1      45.438   4.428   8.303  0.00  0.00    +0.000 NA
ENDBRANCH   9  10
ENDBRANCH   6   9
ENDBRANCH   2   3
BRANCH   2  16
ATOM     16  N   UNL     1      48.222   7.094  15.220  0.00  0.00    +0.000 N 
ATOM     17  C   UNL     1      49.107   6.694  16.189  0.00  0.00    +0.000 C 
ATOM     18  O   UNL     1      50.244   6.318  15.933  0.00  0.00    +0.000 OA
ATOM     19  H   UNL     1      47.231   7.042  15.442  0.00  0.00    +0.000 HD
BRANCH  17  20
ATOM     20  C   UNL     1      48.646   6.793  17.575  0.00  0.00    +0.000 A 
ATOM     21  C   UNL     1      48.239   8.023  18.069  0.00  0.00    +0.000 A 
ATOM     22  S   UNL     1      47.788   7.983  19.711  0.00  0.00    +0.000 S 
ATOM     23  C   UNL     1      48.145   6.323  19.822  0.00  0.00    +0.000 A 
ATOM     24  N   UNL     1      48.036   5.659  21.005  0.00  0.00    +0.000 NA
ATOM     25  C   UNL     1      48.371   4.417  20.948  0.00  0.00    +0.000 A 
ATOM     26  N   UNL     1      48.779   3.762  19.812  0.00  0.00    +0.000 N 
ATOM     27  C   UNL     1      48.856   4.381  18.585  0.00  0.00    +0.000 A 
ATOM     28  O   UNL     1      49.142   3.759  17.571  0.00  0.00    +0.000 OA
ATOM     29  C   UNL     1      48.548   5.796  18.609  0.00  0.00    +0.000 A 
ATOM     30  H   UNL     1      48.993   2.779  19.831  0.00  0.00    +0.000 HD
ENDBRANCH  17  20
ENDBRANCH   2  16
TORSDOF 5
ENDMDL
MODEL 4
REMARK VINA RESULT:    -7.842      2.648      3.932
REMARK INTER + INTRA:         -10.966
REMARK INTER:                  -9.850
REMARK INTRA:                  -1.116
REMARK UNBOUND:                -0.833
REMARK  Name = 
REMARK  6 active torsions:
REMARK  status: ('A' for Active; 'I' for Inactive)
REMARK    1  A    between atoms: C_1  and  C_2
REMARK    2  A    between atoms: C_2  and  N_3
REMARK    3  A    between atoms: C_2  and  C_16
REMARK    4  A    between atoms: C_4  and  C_6
REMARK    5  A    between atoms: C_19  and  C_20
REMARK    6  A    between atoms: C_20  and  C_21
REMARK                            x       y       z     vdW  Elec       q    Type
REMARK                         _______ _______ _______ _____ _____    ______ ____
ROOT
ATOM      1  C   UNL     1      46.725   4.449  14.569  0.00  0.00    +0.000 C 
ATOM      2  C   UNL     1      46.470   5.668  13.674  0.00  0.00    +0.000 C 
ENDROOT
BRANCH   2   3
ATOM      3  C   UNL     1      45.901   5.181  12.351  0.00  0.00    +0.000 A 
ATOM      4  C   UNL     1      45.297   3.918  12.280  0.00  0.00    +0.000 A 
ATOM      5  C   UNL     1      44.862   3.408  11.054  0.00  0.00    +0.000 A 
ATOM      6  C   UNL     1      44.996   4.161   9.878  0.00  0.00    +0.000 A 
ATOM      7  C   UNL     1      45.580   5.429   9.950  0.00  0.00    +0.000 A 
ATOM      8  C   UNL     1      46.044   5.924  11.168  0.00  0.00    +0.000 A 
BRANCH   6   9
ATOM      9  C   UNL     1      44.543   3.621   8.541  0.00  0.00    +0.000 C 
BRANCH   9  10
ATOM     10  C   UNL     1      45.599   2.925   7.713  0.00  0.00    +0.000 A 
ATOM     11  C   UNL     1      46.041   1.649   8.059  0.00  0.00    +0.000 A 
ATOM     12  C   UNL     1      47.165   1.126   7.428  0.00  0.00    +0.000 A 
ATOM     13  C   UNL     1      47.806   1.875   6.452  0.00  0.00    +0.000 A 
ATOM     14  C   UNL     1      47.278   3.111   6.126  0.00  0.00    +0.000 A 
ATOM     15  N   UNL     1      46.199   3.654   6.735  0.00  0.00    +0.000 NA
ENDBRANCH   9  10
ENDBRANCH   6   9
ENDBRANCH   2   3
BRANCH   2  16
ATOM     16  N   UNL     1      47.662   6.472  13.462  0.00  0.00    +0.000 N 
ATOM     17  C   UNL     1      47.629   7.844  13.486  0.00  0.00    +0.000 C 
ATOM     18  O   UNL     1      46.606   8.478  13.711  0.00  0.00    +0.000 OA
ATOM     19  H   UNL     1      48.410   6.031  12.933  0.00  0.00    +0.000 HD
BRANCH  17  20
ATOM     20  C   UNL     1      48.907   8.530  13.285  0.00  0.00    +0.000 A 
ATOM     21  C   UNL     1      48.988   9.552  12.351  0.00  0.00    +0.000 A 
ATOM     22  S   UNL     1      50.553  10.209  12.195  0.00  0.00    +0.000 S 
ATOM     23  C   UNL     1      51.177   9.131  13.354  0.00  0.00    +0.000 A 
ATOM     24  N   UNL     1      52.504   9.115  13.655  0.00  0.00    +0.000 NA
ATOM     25  C   UNL     1      52.840   8.225  14.524  0.00  0.00    +0.000 A 
ATOM     26  N   UNL     1      51.970   7.364  15.146  0.00  0.00    +0.000 N 
ATOM     27  C   UNL     1      50.614   7.378  14.909  0.00  0.00    +0.000 A 
ATOM     28  O   UNL     1      49.848   6.659  15.534  0.00  0.00    +0.000 OA
ATOM     29  C   UNL     1      50.195   8.320  13.892  0.00  0.00    +0.000 A 
ATOM     30  H   UNL     1      52.296   6.714  15.843  0.00  0.00    +0.000 HD
ENDBRANCH  17  20
ENDBRANCH   2  16
TORSDOF 5
ENDMDL
MODEL 5
REMARK VINA RESULT:    -7.737      2.685      4.428
REMARK INTER + INTRA:         -10.832
REMARK INTER:                  -9.640
REMARK INTRA:                  -1.192
REMARK UNBOUND:                -0.833
REMARK  Name = 
REMARK  6 active torsions:
REMARK  status: ('A' for Active; 'I' for Inactive)
REMARK    1  A    between atoms: C_1  and  C_2
REMARK    2  A    between atoms: C_2  and  N_3
REMARK    3  A    between atoms: C_2  and  C_16
REMARK    4  A    between atoms: C_4  and  C_6
REMARK    5  A    between atoms: C_19  and  C_20
REMARK    6  A    between atoms: C_20  and  C_21
REMARK                            x       y       z     vdW  Elec       q    Type
REMARK                         _______ _______ _______ _____ _____    ______ ____
ROOT
ATOM      1  C   UNL     1      47.151   4.434  15.056  0.00  0.00    +0.000 C 
ATOM      2  C   UNL     1      47.034   5.688  14.181  0.00  0.00    +0.000 C 
ENDROOT
BRANCH   2   3
ATOM      3  C   UNL     1      46.298   5.314  12.904  0.00  0.00    +0.000 A 
ATOM      4  C   UNL     1      45.614   4.093  12.830  0.00  0.00    +0.000 A 
ATOM      5  C   UNL     1      45.021   3.684  11.634  0.00  0.00    +0.000 A 
ATOM      6  C   UNL     1      45.073   4.499  10.493  0.00  0.00    +0.000 A 
ATOM      7  C   UNL     1      45.737   5.727  10.570  0.00  0.00    +0.000 A 
ATOM      8  C   UNL     1      46.358   6.120  11.755  0.00  0.00    +0.000 A 
BRANCH   6   9
ATOM      9  C   UNL     1      44.447   4.068   9.187  0.00  0.00    +0.000 C 
BRANCH   9  10
ATOM     10  C   UNL     1      45.315   3.222   8.282  0.00  0.00    +0.000 A 
ATOM     11  C   UNL     1      45.580   1.891   8.601  0.00  0.00    +0.000 A 
ATOM     12  C   UNL     1      46.556   1.204   7.886  0.00  0.00    +0.000 A 
ATOM     13  C   UNL     1      47.226   1.851   6.857  0.00  0.00    +0.000 A 
ATOM     14  C   UNL     1      46.871   3.156   6.566  0.00  0.00    +0.000 A 
ATOM     15  N   UNL     1      45.940   3.855   7.255  0.00  0.00    +0.000 NA
ENDBRANCH   9  10
ENDBRANCH   6   9
ENDBRANCH   2   3
BRANCH   2  16
ATOM     16  N   UNL     1      48.322   6.290  13.880  0.00  0.00    +0.000 N 
ATOM     17  C   UNL     1      48.904   7.217  14.708  0.00  0.00    +0.000 C 
ATOM     18  O   UNL     1      48.393   7.579  15.760  0.00  0.00    +0.000 OA
ATOM     19  H   UNL     1      48.591   6.304  12.900  0.00  0.00    +0.000 HD
BRANCH  17  20
ATOM     20  C   UNL     1      50.217   7.722  14.300  0.00  0.00    +0.000 A 
ATOM     21  C   UNL     1      51.300   7.561  15.152  0.00  0.00    +0.000 A 
ATOM     22  S   UNL     1      52.740   8.254  14.560  0.00  0.00    +0.000 S 
ATOM     23  C   UNL     1      51.956   8.812  13.157  0.00  0.00    +0.000 A 
ATOM     24  N   UNL     1      52.619   9.559  12.233  0.00  0.00    +0.000 NA
ATOM     25  C   UNL     1      51.893   9.941  11.240  0.00  0.00    +0.000 A 
ATOM     26  N   UNL     1      50.568   9.624  11.065  0.00  0.00    +0.000 N 
ATOM     27  C   UNL     1      49.871   8.831  11.949  0.00  0.00    +0.000 A 
ATOM     28  O   UNL     1      48.716   8.493  11.732  0.00  0.00    +0.000 OA
ATOM     29  C   UNL     1      50.628   8.427  13.115  0.00  0.00    +0.000 A 
ATOM     30  H   UNL     1      50.068   9.928  10.246  0.00  0.00    +0.000 HD
ENDBRANCH  17  20
ENDBRANCH   2  16
TORSDOF 5
ENDMDL
MODEL 6
REMARK VINA RESULT:    -7.512      3.281      7.998
REMARK INTER + INTRA:         -10.540
REMARK INTER:                  -9.340
REMARK INTRA:                  -1.200
REMARK UNBOUND:                -0.833
REMARK  Name = 
REMARK  6 active torsions:
REMARK  status: ('A' for Active; 'I' for Inactive)
REMARK    1  A    between atoms: C_1  and  C_2
REMARK    2  A    between atoms: C_2  and  N_3
REMARK    3  A    between atoms: C_2  and  C_16
REMARK    4  A    between atoms: C_4  and  C_6
REMARK    5  A    between atoms: C_19  and  C_20
REMARK    6  A    between atoms: C_20  and  C_21
REMARK                            x       y       z     vdW  Elec       q    Type
REMARK                         _______ _______ _______ _____ _____    ______ ____
ROOT
ATOM      1  C   UNL     1      49.348   7.894  12.517  0.00  0.00    +0.000 C 
ATOM      2  C   UNL     1      48.132   7.318  13.253  0.00  0.00    +0.000 C 
ENDROOT
BRANCH   2   3
ATOM      3  C   UNL     1      48.604   6.731  14.574  0.00  0.00    +0.000 A 
ATOM      4  C   UNL     1      49.821   7.155  15.124  0.00  0.00    +0.000 A 
ATOM      5  C   UNL     1      50.323   6.554  16.281  0.00  0.00    +0.000 A 
ATOM      6  C   UNL     1      49.606   5.536  16.928  0.00  0.00    +0.000 A 
ATOM      7  C   UNL     1      48.382   5.125  16.391  0.00  0.00    +0.000 A 
ATOM      8  C   UNL     1      47.897   5.703  15.218  0.00  0.00    +0.000 A 
BRANCH   6   9
ATOM      9  C   UNL     1      50.139   4.865  18.173  0.00  0.00    +0.000 C 
BRANCH   9  10
ATOM     10  C   UNL     1      51.082   3.704  17.951  0.00  0.00    +0.000 A 
ATOM     11  C   UNL     1      50.620   2.520  17.378  0.00  0.00    +0.000 A 
ATOM     12  C   UNL     1      51.439   1.396  17.392  0.00  0.00    +0.000 A 
ATOM     13  C   UNL     1      52.704   1.484  17.955  0.00  0.00    +0.000 A 
ATOM     14  C   UNL     1      53.112   2.707  18.457  0.00  0.00    +0.000 A 
ATOM     15  N   UNL     1      52.331   3.812  18.473  0.00  0.00    +0.000 NA
ENDBRANCH   9  10
ENDBRANCH   6   9
ENDBRANCH   2   3
BRANCH   2  16
ATOM     16  N   UNL     1      47.417   6.324  12.469  0.00  0.00    +0.000 N 
ATOM     17  C   UNL     1      46.313   6.644  11.719  0.00  0.00    +0.000 C 
ATOM     18  O   UNL     1      45.874   7.785  11.639  0.00  0.00    +0.000 OA
ATOM     19  H   UNL     1      47.508   5.360  12.779  0.00  0.00    +0.000 HD
BRANCH  17  20
ATOM     20  C   UNL     1      45.704   5.553  10.955  0.00  0.00    +0.000 A 
ATOM     21  C   UNL     1      45.765   5.579   9.570  0.00  0.00    +0.000 A 
ATOM     22  S   UNL     1      44.962   4.272   8.828  0.00  0.00    +0.000 S 
ATOM     23  C   UNL     1      44.486   3.642  10.336  0.00  0.00    +0.000 A 
ATOM     24  N   UNL     1      43.697   2.537  10.417  0.00  0.00    +0.000 NA
ATOM     25  C   UNL     1      43.388   2.194  11.620  0.00  0.00    +0.000 A 
ATOM     26  N   UNL     1      43.816   2.834  12.756  0.00  0.00    +0.000 N 
ATOM     27  C   UNL     1      44.654   3.926  12.723  0.00  0.00    +0.000 A 
ATOM     28  O   UNL     1      45.089   4.430  13.749  0.00  0.00    +0.000 OA
ATOM     29  C   UNL     1      44.981   4.388  11.390  0.00  0.00    +0.000 A 
ATOM     30  H   UNL     1      43.563   2.492  13.669  0.00  0.00    +0.000 HD
ENDBRANCH  17  20
ENDBRANCH   2  16
TORSDOF 5
ENDMDL
MODEL 7
REMARK VINA RESULT:    -7.328      2.760      4.365
REMARK INTER + INTRA:         -10.303
REMARK INTER:                  -9.809
REMARK INTRA:                  -0.493
REMARK UNBOUND:                -0.833
REMARK  Name = 
REMARK  6 active torsions:
REMARK  status: ('A' for Active; 'I' for Inactive)
REMARK    1  A    between atoms: C_1  and  C_2
REMARK    2  A    between atoms: C_2  and  N_3
REMARK    3  A    between atoms: C_2  and  C_16
REMARK    4  A    between atoms: C_4  and  C_6
REMARK    5  A    between atoms: C_19  and  C_20
REMARK    6  A    between atoms: C_20  and  C_21
REMARK                            x       y       z     vdW  Elec       q    Type
REMARK                         _______ _______ _______ _____ _____    ______ ____
ROOT
ATOM      1  C   UNL     1      46.843   4.636  14.689  0.00  0.00    +0.000 C 
ATOM      2  C   UNL     1      46.045   5.672  13.888  0.00  0.00    +0.000 C 
ENDROOT
BRANCH   2   3
ATOM      3  C   UNL     1      45.589   5.026  12.589  0.00  0.00    +0.000 A 
ATOM      4  C   UNL     1      45.369   3.643  12.542  0.00  0.00    +0.000 A 
ATOM      5  C   UNL     1      45.052   3.016  11.335  0.00  0.00    +0.000 A 
ATOM      6  C   UNL     1      44.921   3.762  10.154  0.00  0.00    +0.000 A 
ATOM      7  C   UNL     1      45.121   5.144  10.201  0.00  0.00    +0.000 A 
ATOM      8  C   UNL     1      45.470   5.766  11.401  0.00  0.00    +0.000 A 
BRANCH   6   9
ATOM      9  C   UNL     1      44.591   3.099   8.836  0.00  0.00    +0.000 C 
BRANCH   9  10
ATOM     10  C   UNL     1      45.772   2.694   7.982  0.00  0.00    +0.000 A 
ATOM     11  C   UNL     1      46.206   3.514   6.943  0.00  0.00    +0.000 A 
ATOM     12  C   UNL     1      47.137   3.021   6.034  0.00  0.00    +0.000 A 
ATOM     13  C   UNL     1      47.630   1.735   6.196  0.00  0.00    +0.000 A 
ATOM     14  C   UNL     1      47.190   1.000   7.283  0.00  0.00    +0.000 A 
ATOM     15  N   UNL     1      46.273   1.445   8.172  0.00  0.00    +0.000 NA
ENDBRANCH   9  10
ENDBRANCH   6   9
ENDBRANCH   2   3
BRANCH   2  16
ATOM     16  N   UNL     1      46.797   6.887  13.628  0.00  0.00    +0.000 N 
ATOM     17  C   UNL     1      48.101   6.859  13.198  0.00  0.00    +0.000 C 
ATOM     18  O   UNL     1      48.705   5.816  12.982  0.00  0.00    +0.000 OA
ATOM     19  H   UNL     1      46.485   7.721  14.120  0.00  0.00    +0.000 HD
BRANCH  17  20
ATOM     20  C   UNL     1      48.733   8.156  12.948  0.00  0.00    +0.000 A 
ATOM     21  C   UNL     1      49.115   8.486  11.656  0.00  0.00    +0.000 A 
ATOM     22  S   UNL     1      49.887  10.001  11.540  0.00  0.00    +0.000 S 
ATOM     23  C   UNL     1      49.757  10.253  13.218  0.00  0.00    +0.000 A 
ATOM     24  N   UNL     1      50.291  11.359  13.805  0.00  0.00    +0.000 NA
ATOM     25  C   UNL     1      50.148  11.402  15.084  0.00  0.00    +0.000 A 
ATOM     26  N   UNL     1      49.494  10.456  15.835  0.00  0.00    +0.000 N 
ATOM     27  C   UNL     1      48.897   9.347  15.278  0.00  0.00    +0.000 A 
ATOM     28  O   UNL     1      48.250   8.561  15.956  0.00  0.00    +0.000 OA
ATOM     29  C   UNL     1      49.084   9.222  13.848  0.00  0.00    +0.000 A 
ATOM     30  H   UNL     1      49.389  10.569  16.830  0.00  0.00    +0.000 HD
ENDBRANCH  17  20
ENDBRANCH   2  16
TORSDOF 5
ENDMDL
MODEL 8
REMARK VINA RESULT:    -7.088      2.933      8.699
REMARK INTER + INTRA:          -9.992
REMARK INTER:                  -8.833
REMARK INTRA:                  -1.159
REMARK UNBOUND:                -0.833
REMARK  Name = 
REMARK  6 active torsions:
REMARK  status: ('A' for Active; 'I' for Inactive)
REMARK    1  A    between atoms: C_1  and  C_2
REMARK    2  A    between atoms: C_2  and  N_3
REMARK    3  A    between atoms: C_2  and  C_16
REMARK    4  A    between atoms: C_4  and  C_6
REMARK    5  A    between atoms: C_19  and  C_20
REMARK    6  A    between atoms: C_20  and  C_21
REMARK                            x       y       z     vdW  Elec       q    Type
REMARK                         _______ _______ _______ _____ _____    ______ ____
ROOT
ATOM      1  C   UNL     1      48.974   7.722  11.384  0.00  0.00    +0.000 C 
ATOM      2  C   UNL     1      47.670   7.649  12.188  0.00  0.00    +0.000 C 
ENDROOT
BRANCH   2   3
ATOM      3  C   UNL     1      48.012   7.742  13.667  0.00  0.00    +0.000 A 
ATOM      4  C   UNL     1      47.891   8.970  14.330  0.00  0.00    +0.000 A 
ATOM      5  C   UNL     1      48.300   9.101  15.659  0.00  0.00    +0.000 A 
ATOM      6  C   UNL     1      48.811   8.000  16.363  0.00  0.00    +0.000 A 
ATOM      7  C   UNL     1      48.915   6.769  15.709  0.00  0.00    +0.000 A 
ATOM      8  C   UNL     1      48.537   6.647  14.372  0.00  0.00    +0.000 A 
BRANCH   6   9
ATOM      9  C   UNL     1      49.270   8.126  17.797  0.00  0.00    +0.000 C 
BRANCH   9  10
ATOM     10  C   UNL     1      48.868   7.001  18.725  0.00  0.00    +0.000 A 
ATOM     11  C   UNL     1      47.617   7.007  19.340  0.00  0.00    +0.000 A 
ATOM     12  C   UNL     1      47.358   6.093  20.357  0.00  0.00    +0.000 A 
ATOM     13  C   UNL     1      48.340   5.182  20.719  0.00  0.00    +0.000 A 
ATOM     14  C   UNL     1      49.538   5.205  20.026  0.00  0.00    +0.000 A 
ATOM     15  N   UNL     1      49.825   6.092  19.047  0.00  0.00    +0.000 NA
ENDBRANCH   9  10
ENDBRANCH   6   9
ENDBRANCH   2   3
BRANCH   2  16
ATOM     16  N   UNL     1      46.900   6.448  11.908  0.00  0.00    +0.000 N 
ATOM     17  C   UNL     1      45.528   6.454  11.872  0.00  0.00    +0.000 C 
ATOM     18  O   UNL     1      44.865   7.468  12.048  0.00  0.00    +0.000 OA
ATOM     19  H   UNL     1      47.359   5.564  12.114  0.00  0.00    +0.000 HD
BRANCH  17  20
ATOM     20  C   UNL     1      44.879   5.181  11.550  0.00  0.00    +0.000 A 
ATOM     21  C   UNL     1      44.093   4.559  12.509  0.00  0.00    +0.000 A 
ATOM     22  S   UNL     1      43.457   3.062  12.001  0.00  0.00    +0.000 S 
ATOM     23  C   UNL     1      44.232   3.187  10.492  0.00  0.00    +0.000 A 
ATOM     24  N   UNL     1      44.152   2.182   9.577  0.00  0.00    +0.000 NA
ATOM     25  C   UNL     1      44.815   2.397   8.494  0.00  0.00    +0.000 A 
ATOM     26  N   UNL     1      45.531   3.537   8.223  0.00  0.00    +0.000 N 
ATOM     27  C   UNL     1      45.599   4.598   9.097  0.00  0.00    +0.000 A 
ATOM     28  O   UNL     1      46.174   5.636   8.800  0.00  0.00    +0.000 OA
ATOM     29  C   UNL     1      44.920   4.379  10.357  0.00  0.00    +0.000 A 
ATOM     30  H   UNL     1      46.000   3.655   7.339  0.00  0.00    +0.000 HD
ENDBRANCH  17  20
ENDBRANCH   2  16
TORSDOF 5
ENDMDL
MODEL 9
REMARK VINA RESULT:    -6.855      3.604      5.547
REMARK INTER + INTRA:          -9.691
REMARK INTER:                  -8.529
REMARK INTRA:                  -1.161
REMARK UNBOUND:                -0.833
REMARK  Name = 
REMARK  6 active torsions:
REMARK  status: ('A' for Active; 'I' for Inactive)
REMARK    1  A    between atoms: C_1  and  C_2
REMARK    2  A    between atoms: C_2  and  N_3
REMARK    3  A    between atoms: C_2  and  C_16
REMARK    4  A    between atoms: C_4  and  C_6
REMARK    5  A    between atoms: C_19  and  C_20
REMARK    6  A    between atoms: C_20  and  C_21
REMARK                            x       y       z     vdW  Elec       q    Type
REMARK                         _______ _______ _______ _____ _____    ______ ____
ROOT
ATOM      1  C   UNL     1      47.481   2.879  17.567  0.00  0.00    +0.000 C 
ATOM      2  C   UNL     1      48.341   4.131  17.358  0.00  0.00    +0.000 C 
ENDROOT
BRANCH   2   3
ATOM      3  C   UNL     1      47.924   4.788  16.051  0.00  0.00    +0.000 A 
ATOM      4  C   UNL     1      47.053   4.113  15.185  0.00  0.00    +0.000 A 
ATOM      5  C   UNL     1      46.741   4.651  13.934  0.00  0.00    +0.000 A 
ATOM      6  C   UNL     1      47.268   5.889  13.535  0.00  0.00    +0.000 A 
ATOM      7  C   UNL     1      48.121   6.573  14.406  0.00  0.00    +0.000 A 
ATOM      8  C   UNL     1      48.459   6.019  15.641  0.00  0.00    +0.000 A 
BRANCH   6   9
ATOM      9  C   UNL     1      46.952   6.481  12.181  0.00  0.00    +0.000 C 
BRANCH   9  10
ATOM     10  C   UNL     1      45.635   6.064  11.565  0.00  0.00    +0.000 A 
ATOM     11  C   UNL     1      44.430   6.506  12.108  0.00  0.00    +0.000 A 
ATOM     12  C   UNL     1      43.239   5.933  11.673  0.00  0.00    +0.000 A 
ATOM     13  C   UNL     1      43.276   4.952  10.692  0.00  0.00    +0.000 A 
ATOM     14  C   UNL     1      44.506   4.604  10.163  0.00  0.00    +0.000 A 
ATOM     15  N   UNL     1      45.681   5.129  10.579  0.00  0.00    +0.000 NA
ENDBRANCH   9  10
ENDBRANCH   6   9
ENDBRANCH   2   3
BRANCH   2  16
ATOM     16  N   UNL     1      49.766   3.845  17.363  0.00  0.00    +0.000 N 
ATOM     17  C   UNL     1      50.566   4.148  18.437  0.00  0.00    +0.000 C 
ATOM     18  O   UNL     1      50.132   4.652  19.465  0.00  0.00    +0.000 OA
ATOM     19  H   UNL     1      50.212   3.778  16.452  0.00  0.00    +0.000 HD
BRANCH  17  20
ATOM     20  C   UNL     1      51.979   3.780  18.322  0.00  0.00    +0.000 A 
ATOM     21  C   UNL     1      52.951   4.726  18.611  0.00  0.00    +0.000 A 
ATOM     22  S   UNL     1      54.541   4.162  18.373  0.00  0.00    +0.000 S 
ATOM     23  C   UNL     1      53.980   2.642  17.852  0.00  0.00    +0.000 A 
ATOM     24  N   UNL     1      54.845   1.683  17.425  0.00  0.00    +0.000 NA
ATOM     25  C   UNL     1      54.278   0.596  17.028  0.00  0.00    +0.000 A 
ATOM     26  N   UNL     1      52.925   0.364  17.043  0.00  0.00    +0.000 N 
ATOM     27  C   UNL     1      52.017   1.286  17.512  0.00  0.00    +0.000 A 
ATOM     28  O   UNL     1      50.824   1.026  17.593  0.00  0.00    +0.000 OA
ATOM     29  C   UNL     1      52.601   2.549  17.913  0.00  0.00    +0.000 A 
ATOM     30  H   UNL     1      52.550  -0.524  16.750  0.00  0.00    +0.000 HD
ENDBRANCH  17  20
ENDBRANCH   2  16
TORSDOF 5
ENDMDL
