MODEL 1
REMARK VINA RESULT:    -8.269      0.000      0.000
REMARK INTER + INTRA:         -13.269
REMARK INTER:                 -12.136
REMARK INTRA:                  -1.133
REMARK UNBOUND:                -1.133
REMARK  Name = 
REMARK  9 active torsions:
REMARK  status: ('A' for Active; 'I' for Inactive)
REMARK    1  A    between atoms: C_1  and  O_2
REMARK    2  A    between atoms: O_2  and  C_3
REMARK    3  A    between atoms: C_10  and  C_11
REMARK    4  A    between atoms: N_13  and  C_14
REMARK    5  A    between atoms: C_14  and  C_15
REMARK    6  A    between atoms: C_18  and  C_19
REMARK    7  A    between atoms: C_19  and  N_20
REMARK    8  A    between atoms: N_20  and  C_21
REMARK    9  A    between atoms: C_21  and  C_22
REMARK                            x       y       z     vdW  Elec       q    Type
REMARK                         _______ _______ _______ _____ _____    ______ ____
ROOT
ATOM      1  C   UNL     1      48.026   6.859  13.174  0.00  0.00    +0.000 C 
ENDROOT
BRANCH   1   2
ATOM      2  C   UNL     1      46.894   6.028  12.621  0.00  0.00    +0.000 A 
ATOM      3  C   UNL     1      46.382   4.942  13.344  0.00  0.00    +0.000 A 
ATOM      4  C   UNL     1      45.334   4.171  12.826  0.00  0.00    +0.000 A 
ATOM      5  C   UNL     1      44.775   4.464  11.573  0.00  0.00    +0.000 A 
ATOM      6  C   UNL     1      45.314   5.527  10.836  0.00  0.00    +0.000 A 
ATOM      7  C   UNL     1      46.364   6.296  11.351  0.00  0.00    +0.000 A 
BRANCH   5   8
ATOM      8  C   UNL     1      43.620   3.646  11.030  0.00  0.00    +0.000 C 
BRANCH   8   9
ATOM      9  N   UNL     1      43.827   3.325   9.619  0.00  0.00    +0.000 NA
ATOM     10  H   UNL     1      44.372   4.075   9.191  0.00  0.00    +0.000 HD
BRANCH   9  11
ATOM     11  C   UNL     1      44.574   2.072   9.448  0.00  0.00    +0.000 C 
BRANCH  11  12
ATOM     12  C   UNL     1      45.659   2.197   8.390  0.00  0.00    +0.000 A 
ATOM     13  C   UNL     1      45.868   3.414   7.741  0.00  0.00    +0.000 A 
ATOM     14  C   UNL     1      46.883   3.511   6.793  0.00  0.00    +0.000 A 
ATOM     15  C   UNL     1      47.657   2.393   6.510  0.00  0.00    +0.000 A 
ATOM     16  C   UNL     1      47.383   1.220   7.191  0.00  0.00    +0.000 A 
ATOM     17  N   UNL     1      46.408   1.096   8.122  0.00  0.00    +0.000 NA
ENDBRANCH  11  12
ENDBRANCH   9  11
ENDBRANCH   8   9
ENDBRANCH   5   8
ENDBRANCH   1   2
BRANCH   1  20
ATOM     18  C   UNL     1      49.066   6.950  15.408  0.00  0.00    +0.000 C 
ATOM     19  O   UNL     1      50.197   6.900  14.932  0.00  0.00    +0.000 OA
ATOM     20  N   UNL     1      47.956   6.929  14.611  0.00  0.00    +0.000 N 
ATOM     21  H   UNL     1      47.036   6.919  15.026  0.00  0.00    +0.000 HD
BRANCH  18  29
ATOM     22  C   UNL     1      48.954   4.604  17.926  0.00  0.00    +0.000 A 
ATOM     23  N   UNL     1      48.854   3.912  19.080  0.00  0.00    +0.000 NA
ATOM     24  C   UNL     1      48.599   4.592  20.199  0.00  0.00    +0.000 A 
ATOM     25  N   UNL     1      48.428   5.906  20.316  0.00  0.00    +0.000 NA
ATOM     26  C   UNL     1      48.543   6.558  19.147  0.00  0.00    +0.000 A 
ATOM     27  S   UNL     1      48.355   8.244  19.108  0.00  0.00    +0.000 S 
ATOM     28  C   UNL     1      48.616   8.285  17.429  0.00  0.00    +0.000 A 
ATOM     29  C   UNL     1      48.847   7.036  16.864  0.00  0.00    +0.000 A 
ATOM     30  C   UNL     1      48.807   6.002  17.899  0.00  0.00    +0.000 A 
BRANCH  22  32
ATOM     31  C   UNL     1      49.367   2.499  16.987  0.00  0.00    +0.000 C 
ATOM     32  O   UNL     1      49.264   3.906  16.779  0.00  0.00    +0.000 OA
ENDBRANCH  22  32
ENDBRANCH  18  29
ENDBRANCH   1  20
TORSDOF 8
ENDMDL
MODEL 2
REMARK VINA RESULT:    -7.977      1.439      2.501
REMARK INTER + INTRA:         -12.840
REMARK INTER:                 -11.776
REMARK INTRA:                  -1.065
REMARK UNBOUND:                -1.133
REMARK  Name = 
REMARK  9 active torsions:
REMARK  status: ('A' for Active; 'I' for Inactive)
REMARK    1  A    between atoms: C_1  and  O_2
REMARK    2  A    between atoms: O_2  and  C_3
REMARK    3  A    between atoms: C_10  and  C_11
REMARK    4  A    between atoms: N_13  and  C_14
REMARK    5  A    between atoms: C_14  and  C_15
REMARK    6  A    between atoms: C_18  and  C_19
REMARK    7  A    between atoms: C_19  and  N_20
REMARK    8  A    between atoms: N_20  and  C_21
REMARK    9  A    between atoms: C_21  and  C_22
REMARK                            x       y       z     vdW  Elec       q    Type
REMARK                         _______ _______ _______ _____ _____    ______ ____
ROOT
ATOM      1  C   UNL     1      48.106   6.617  13.699  0.00  0.00    +0.000 C 
ENDROOT
BRANCH   1   2
ATOM      2  C   UNL     1      46.916   6.153  12.896  0.00  0.00    +0.000 A 
ATOM      3  C   UNL     1      46.750   6.555  11.563  0.00  0.00    +0.000 A 
ATOM      4  C   UNL     1      45.643   6.125  10.822  0.00  0.00    +0.000 A 
ATOM      5  C   UNL     1      44.673   5.289  11.394  0.00  0.00    +0.000 A 
ATOM      6  C   UNL     1      44.822   4.919  12.737  0.00  0.00    +0.000 A 
ATOM      7  C   UNL     1      45.927   5.351  13.481  0.00  0.00    +0.000 A 
BRANCH   5   8
ATOM      8  C   UNL     1      43.491   4.801  10.579  0.00  0.00    +0.000 C 
BRANCH   8   9
ATOM      9  N   UNL     1      43.935   4.228   9.309  0.00  0.00    +0.000 NA
ATOM     10  H   UNL     1      44.713   4.787   8.954  0.00  0.00    +0.000 HD
BRANCH   9  11
ATOM     11  C   UNL     1      44.409   2.846   9.469  0.00  0.00    +0.000 C 
BRANCH  11  12
ATOM     12  C   UNL     1      45.487   2.495   8.456  0.00  0.00    +0.000 A 
ATOM     13  C   UNL     1      45.962   3.465   7.572  0.00  0.00    +0.000 A 
ATOM     14  C   UNL     1      46.966   3.126   6.670  0.00  0.00    +0.000 A 
ATOM     15  C   UNL     1      47.465   1.829   6.665  0.00  0.00    +0.000 A 
ATOM     16  C   UNL     1      46.936   0.922   7.567  0.00  0.00    +0.000 A 
ATOM     17  N   UNL     1      45.965   1.224   8.460  0.00  0.00    +0.000 NA
ENDBRANCH  11  12
ENDBRANCH   9  11
ENDBRANCH   8   9
ENDBRANCH   5   8
ENDBRANCH   1   2
BRANCH   1  20
ATOM     18  C   UNL     1      49.031   6.250  15.956  0.00  0.00    +0.000 C 
ATOM     19  O   UNL     1      50.144   6.635  15.610  0.00  0.00    +0.000 OA
ATOM     20  N   UNL     1      47.986   6.208  15.075  0.00  0.00    +0.000 N 
ATOM     21  H   UNL     1      47.093   5.839  15.368  0.00  0.00    +0.000 HD
BRANCH  18  29
ATOM     22  C   UNL     1      47.932   7.880  18.783  0.00  0.00    +0.000 A 
ATOM     23  N   UNL     1      47.535   8.262  20.015  0.00  0.00    +0.000 NA
ATOM     24  C   UNL     1      47.506   7.339  20.978  0.00  0.00    +0.000 A 
ATOM     25  N   UNL     1      47.830   6.054  20.866  0.00  0.00    +0.000 NA
ATOM     26  C   UNL     1      48.214   5.714  19.623  0.00  0.00    +0.000 A 
ATOM     27  S   UNL     1      48.664   4.111  19.296  0.00  0.00    +0.000 S 
ATOM     28  C   UNL     1      48.986   4.481  17.669  0.00  0.00    +0.000 A 
ATOM     29  C   UNL     1      48.764   5.813  17.338  0.00  0.00    +0.000 A 
ATOM     30  C   UNL     1      48.296   6.550  18.513  0.00  0.00    +0.000 A 
BRANCH  22  32
ATOM     31  C   UNL     1      49.159   9.507  17.630  0.00  0.00    +0.000 C 
ATOM     32  O   UNL     1      47.917   8.823  17.779  0.00  0.00    +0.000 OA
ENDBRANCH  22  32
ENDBRANCH  18  29
ENDBRANCH   1  20
TORSDOF 8
ENDMDL
MODEL 3
REMARK VINA RESULT:    -7.495      1.849      2.073
REMARK INTER + INTRA:         -12.134
REMARK INTER:                 -10.964
REMARK INTRA:                  -1.169
REMARK UNBOUND:                -1.133
REMARK  Name = 
REMARK  9 active torsions:
REMARK  status: ('A' for Active; 'I' for Inactive)
REMARK    1  A    between atoms: C_1  and  O_2
REMARK    2  A    between atoms: O_2  and  C_3
REMARK    3  A    between atoms: C_10  and  C_11
REMARK    4  A    between atoms: N_13  and  C_14
REMARK    5  A    between atoms: C_14  and  C_15
REMARK    6  A    between atoms: C_18  and  C_19
REMARK    7  A    between atoms: C_19  and  N_20
REMARK    8  A    between atoms: N_20  and  C_21
REMARK    9  A    between atoms: C_21  and  C_22
REMARK                            x       y       z     vdW  Elec       q    Type
REMARK                         _______ _______ _______ _____ _____    ______ ____
ROOT
ATOM      1  C   UNL     1      48.337   7.535  12.720  0.00  0.00    +0.000 C 
ENDROOT
BRANCH   1   2
ATOM      2  C   UNL     1      47.269   6.502  12.457  0.00  0.00    +0.000 A 
ATOM      3  C   UNL     1      47.201   5.330  13.223  0.00  0.00    +0.000 A 
ATOM      4  C   UNL     1      46.211   4.372  12.974  0.00  0.00    +0.000 A 
ATOM      5  C   UNL     1      45.267   4.559  11.952  0.00  0.00    +0.000 A 
ATOM      6  C   UNL     1      45.360   5.714  11.164  0.00  0.00    +0.000 A 
ATOM      7  C   UNL     1      46.352   6.671  11.410  0.00  0.00    +0.000 A 
BRANCH   5   8
ATOM      8  C   UNL     1      44.178   3.534  11.706  0.00  0.00    +0.000 C 
BRANCH   8   9
ATOM      9  N   UNL     1      44.640   2.490  10.792  0.00  0.00    +0.000 NA
ATOM     10  H   UNL     1      44.173   1.615  11.034  0.00  0.00    +0.000 HD
BRANCH   9  11
ATOM     11  C   UNL     1      44.314   2.804   9.394  0.00  0.00    +0.000 C 
BRANCH  11  12
ATOM     12  C   UNL     1      45.458   2.464   8.454  0.00  0.00    +0.000 A 
ATOM     13  C   UNL     1      46.013   3.450   7.638  0.00  0.00    +0.000 A 
ATOM     14  C   UNL     1      47.077   3.120   6.802  0.00  0.00    +0.000 A 
ATOM     15  C   UNL     1      47.553   1.815   6.794  0.00  0.00    +0.000 A 
ATOM     16  C   UNL     1      46.944   0.892   7.626  0.00  0.00    +0.000 A 
ATOM     17  N   UNL     1      45.914   1.184   8.454  0.00  0.00    +0.000 NA
ENDBRANCH  11  12
ENDBRANCH   9  11
ENDBRANCH   8   9
ENDBRANCH   5   8
ENDBRANCH   1   2
BRANCH   1  20
ATOM     18  C   UNL     1      49.789   7.838  14.690  0.00  0.00    +0.000 C 
ATOM     19  O   UNL     1      49.455   9.013  14.810  0.00  0.00    +0.000 OA
ATOM     20  N   UNL     1      49.288   7.054  13.689  0.00  0.00    +0.000 N 
ATOM     21  H   UNL     1      49.616   6.105  13.579  0.00  0.00    +0.000 HD
BRANCH  18  29
ATOM     22  C   UNL     1      49.542   5.268  16.969  0.00  0.00    +0.000 A 
ATOM     23  N   UNL     1      49.720   4.324  17.917  0.00  0.00    +0.000 NA
ATOM     24  C   UNL     1      50.924   4.223  18.482  0.00  0.00    +0.000 A 
ATOM     25  N   UNL     1      51.999   4.961  18.216  0.00  0.00    +0.000 NA
ATOM     26  C   UNL     1      51.781   5.883  17.263  0.00  0.00    +0.000 A 
ATOM     27  S   UNL     1      53.044   6.915  16.794  0.00  0.00    +0.000 S 
ATOM     28  C   UNL     1      52.047   7.705  15.666  0.00  0.00    +0.000 A 
ATOM     29  C   UNL     1      50.747   7.212  15.620  0.00  0.00    +0.000 A 
ATOM     30  C   UNL     1      50.592   6.116  16.576  0.00  0.00    +0.000 A 
BRANCH  22  32
ATOM     31  C   UNL     1      47.371   4.397  16.862  0.00  0.00    +0.000 C 
ATOM     32  O   UNL     1      48.311   5.340  16.353  0.00  0.00    +0.000 OA
ENDBRANCH  22  32
ENDBRANCH  18  29
ENDBRANCH   1  20
TORSDOF 8
ENDMDL
MODEL 4
REMARK VINA RESULT:    -7.369      1.968      2.451
REMARK INTER + INTRA:         -11.948
REMARK INTER:                 -11.001
REMARK INTRA:                  -0.947
REMARK UNBOUND:                -1.133
REMARK  Name = 
REMARK  9 active torsions:
REMARK  status: ('A' for Active; 'I' for Inactive)
REMARK    1  A    between atoms: C_1  and  O_2
REMARK    2  A    between atoms: O_2  and  C_3
REMARK    3  A    between atoms: C_10  and  C_11
REMARK    4  A    between atoms: N_13  and  C_14
REMARK    5  A    between atoms: C_14  and  C_15
REMARK    6  A    between atoms: C_18  and  C_19
REMARK    7  A    between atoms: C_19  and  N_20
REMARK    8  A    between atoms: N_20  and  C_21
REMARK    9  A    between atoms: C_21  and  C_22
REMARK                            x       y       z     vdW  Elec       q    Type
REMARK                         _______ _______ _______ _____ _____    ______ ____
ROOT
ATOM      1  C   UNL     1      47.890   7.062  13.515  0.00  0.00    +0.000 C 
ENDROOT
BRANCH   1   2
ATOM      2  C   UNL     1      46.745   6.345  12.843  0.00  0.00    +0.000 A 
ATOM      3  C   UNL     1      46.294   5.107  13.322  0.00  0.00    +0.000 A 
ATOM      4  C   UNL     1      45.234   4.443  12.693  0.00  0.00    +0.000 A 
ATOM      5  C   UNL     1      44.601   4.997  11.569  0.00  0.00    +0.000 A 
ATOM      6  C   UNL     1      45.078   6.216  11.071  0.00  0.00    +0.000 A 
ATOM      7  C   UNL     1      46.141   6.879  11.696  0.00  0.00    +0.000 A 
BRANCH   5   8
ATOM      8  C   UNL     1      43.433   4.290  10.910  0.00  0.00    +0.000 C 
BRANCH   8   9
ATOM      9  N   UNL     1      43.815   3.760   9.602  0.00  0.00    +0.000 NA
ATOM     10  H   UNL     1      44.358   4.471   9.109  0.00  0.00    +0.000 HD
BRANCH   9  11
ATOM     11  C   UNL     1      44.653   2.559   9.722  0.00  0.00    +0.000 C 
BRANCH  11  12
ATOM     12  C   UNL     1      45.614   2.417   8.553  0.00  0.00    +0.000 A 
ATOM     13  C   UNL     1      45.901   3.517   7.744  0.00  0.00    +0.000 A 
ATOM     14  C   UNL     1      46.803   3.368   6.694  0.00  0.00    +0.000 A 
ATOM     15  C   UNL     1      47.388   2.128   6.471  0.00  0.00    +0.000 A 
ATOM     16  C   UNL     1      47.045   1.084   7.313  0.00  0.00    +0.000 A 
ATOM     17  N   UNL     1      46.178   1.199   8.346  0.00  0.00    +0.000 NA
ENDBRANCH  11  12
ENDBRANCH   9  11
ENDBRANCH   8   9
ENDBRANCH   5   8
ENDBRANCH   1   2
BRANCH   1  20
ATOM     18  C   UNL     1      48.764   6.830  15.810  0.00  0.00    +0.000 C 
ATOM     19  O   UNL     1      48.659   8.036  16.018  0.00  0.00    +0.000 OA
ATOM     20  N   UNL     1      48.412   6.282  14.608  0.00  0.00    +0.000 N 
ATOM     21  H   UNL     1      48.555   5.297  14.441  0.00  0.00    +0.000 HD
BRANCH  18  29
ATOM     22  C   UNL     1      51.930   5.902  16.796  0.00  0.00    +0.000 A 
ATOM     23  N   UNL     1      53.030   5.369  17.367  0.00  0.00    +0.000 NA
ATOM     24  C   UNL     1      52.859   4.482  18.349  0.00  0.00    +0.000 A 
ATOM     25  N   UNL     1      51.703   4.050  18.847  0.00  0.00    +0.000 NA
ATOM     26  C   UNL     1      50.634   4.611  18.256  0.00  0.00    +0.000 A 
ATOM     27  S   UNL     1      49.074   4.177  18.765  0.00  0.00    +0.000 S 
ATOM     28  C   UNL     1      48.359   5.219  17.629  0.00  0.00    +0.000 A 
ATOM     29  C   UNL     1      49.275   5.912  16.844  0.00  0.00    +0.000 A 
ATOM     30  C   UNL     1      50.640   5.548  17.226  0.00  0.00    +0.000 A 
BRANCH  22  32
ATOM     31  C   UNL     1      53.478   7.063  15.479  0.00  0.00    +0.000 C 
ATOM     32  O   UNL     1      52.109   6.852  15.815  0.00  0.00    +0.000 OA
ENDBRANCH  22  32
ENDBRANCH  18  29
ENDBRANCH   1  20
TORSDOF 8
ENDMDL
MODEL 5
REMARK VINA RESULT:    -7.263      1.671      3.001
REMARK INTER + INTRA:         -11.793
REMARK INTER:                 -10.606
REMARK INTRA:                  -1.187
REMARK UNBOUND:                -1.133
REMARK  Name = 
REMARK  9 active torsions:
REMARK  status: ('A' for Active; 'I' for Inactive)
REMARK    1  A    between atoms: C_1  and  O_2
REMARK    2  A    between atoms: O_2  and  C_3
REMARK    3  A    between atoms: C_10  and  C_11
REMARK    4  A    between atoms: N_13  and  C_14
REMARK    5  A    between atoms: C_14  and  C_15
REMARK    6  A    between atoms: C_18  and  C_19
REMARK    7  A    between atoms: C_19  and  N_20
REMARK    8  A    between atoms: N_20  and  C_21
REMARK    9  A    between atoms: C_21  and  C_22
REMARK                            x       y       z     vdW  Elec       q    Type
REMARK                         _______ _______ _______ _____ _____    ______ ____
ROOT
ATOM      1  C   UNL     1      47.499   3.887  15.195  0.00  0.00    +0.000 C 
ENDROOT
BRANCH   1   2
ATOM      2  C   UNL     1      46.715   4.263  13.962  0.00  0.00    +0.000 A 
ATOM      3  C   UNL     1      46.045   3.286  13.213  0.00  0.00    +0.000 A 
ATOM      4  C   UNL     1      45.321   3.638  12.067  0.00  0.00    +0.000 A 
ATOM      5  C   UNL     1      45.252   4.973  11.641  0.00  0.00    +0.000 A 
ATOM      6  C   UNL     1      45.952   5.942  12.371  0.00  0.00    +0.000 A 
ATOM      7  C   UNL     1      46.679   5.591  13.514  0.00  0.00    +0.000 A 
BRANCH   5   8
ATOM      8  C   UNL     1      44.441   5.355  10.418  0.00  0.00    +0.000 C 
BRANCH   8   9
ATOM      9  N   UNL     1      45.193   5.094   9.192  0.00  0.00    +0.000 NA
ATOM     10  H   UNL     1      46.140   4.808   9.445  0.00  0.00    +0.000 HD
BRANCH   9  11
ATOM     11  C   UNL     1      44.592   4.011   8.402  0.00  0.00    +0.000 C 
BRANCH  11  12
ATOM     12  C   UNL     1      45.643   3.067   7.839  0.00  0.00    +0.000 A 
ATOM     13  C   UNL     1      46.500   3.497   6.825  0.00  0.00    +0.000 A 
ATOM     14  C   UNL     1      47.470   2.623   6.342  0.00  0.00    +0.000 A 
ATOM     15  C   UNL     1      47.556   1.342   6.875  0.00  0.00    +0.000 A 
ATOM     16  C   UNL     1      46.664   0.989   7.873  0.00  0.00    +0.000 A 
ATOM     17  N   UNL     1      45.715   1.818   8.367  0.00  0.00    +0.000 NA
ENDBRANCH  11  12
ENDBRANCH   9  11
ENDBRANCH   8   9
ENDBRANCH   5   8
ENDBRANCH   1   2
BRANCH   1  20
ATOM     18  C   UNL     1      48.649   5.182  16.952  0.00  0.00    +0.000 C 
ATOM     19  O   UNL     1      49.582   4.385  16.989  0.00  0.00    +0.000 OA
ATOM     20  N   UNL     1      47.592   5.001  16.103  0.00  0.00    +0.000 N 
ATOM     21  H   UNL     1      46.812   5.641  16.126  0.00  0.00    +0.000 HD
BRANCH  18  29
ATOM     22  C   UNL     1      48.570   8.566  16.322  0.00  0.00    +0.000 A 
ATOM     23  N   UNL     1      48.546   9.915  16.362  0.00  0.00    +0.000 NA
ATOM     24  C   UNL     1      48.552  10.507  17.558  0.00  0.00    +0.000 A 
ATOM     25  N   UNL     1      48.578   9.910  18.747  0.00  0.00    +0.000 NA
ATOM     26  C   UNL     1      48.594   8.569  18.663  0.00  0.00    +0.000 A 
ATOM     27  S   UNL     1      48.626   7.643  20.084  0.00  0.00    +0.000 S 
ATOM     28  C   UNL     1      48.638   6.192  19.198  0.00  0.00    +0.000 A 
ATOM     29  C   UNL     1      48.620   6.373  17.820  0.00  0.00    +0.000 A 
ATOM     30  C   UNL     1      48.588   7.801  17.502  0.00  0.00    +0.000 A 
BRANCH  22  32
ATOM     31  C   UNL     1      49.787   7.878  14.445  0.00  0.00    +0.000 C 
ATOM     32  O   UNL     1      48.517   7.956  15.088  0.00  0.00    +0.000 OA
ENDBRANCH  22  32
ENDBRANCH  18  29
ENDBRANCH   1  20
TORSDOF 8
ENDMDL
MODEL 6
REMARK VINA RESULT:    -7.122      1.588      2.072
REMARK INTER + INTRA:         -11.586
REMARK INTER:                 -10.733
REMARK INTRA:                  -0.853
REMARK UNBOUND:                -1.133
REMARK  Name = 
REMARK  9 active torsions:
REMARK  status: ('A' for Active; 'I' for Inactive)
REMARK    1  A    between atoms: C_1  and  O_2
REMARK    2  A    between atoms: O_2  and  C_3
REMARK    3  A    between atoms: C_10  and  C_11
REMARK    4  A    between atoms: N_13  and  C_14
REMARK    5  A    between atoms: C_14  and  C_15
REMARK    6  A    between atoms: C_18  and  C_19
REMARK    7  A    between atoms: C_19  and  N_20
REMARK    8  A    between atoms: N_20  and  C_21
REMARK    9  A    between atoms: C_21  and  C_22
REMARK                            x       y       z     vdW  Elec       q    Type
REMARK                         _______ _______ _______ _____ _____    ______ ____
ROOT
ATOM      1  C   UNL     1      47.794   8.991  13.891  0.00  0.00    +0.000 C 
ENDROOT
BRANCH   1   2
ATOM      2  C   UNL     1      46.929   8.025  13.119  0.00  0.00    +0.000 A 
ATOM      3  C   UNL     1      45.793   8.473  12.431  0.00  0.00    +0.000 A 
ATOM      4  C   UNL     1      44.991   7.573  11.718  0.00  0.00    +0.000 A 
ATOM      5  C   UNL     1      45.301   6.206  11.679  0.00  0.00    +0.000 A 
ATOM      6  C   UNL     1      46.416   5.756  12.398  0.00  0.00    +0.000 A 
ATOM      7  C   UNL     1      47.217   6.654  13.114  0.00  0.00    +0.000 A 
BRANCH   5   8
ATOM      8  C   UNL     1      44.448   5.240  10.880  0.00  0.00    +0.000 C 
BRANCH   8   9
ATOM      9  N   UNL     1      45.070   4.935   9.594  0.00  0.00    +0.000 NA
ATOM     10  H   UNL     1      46.069   4.783   9.743  0.00  0.00    +0.000 HD
BRANCH   9  11
ATOM     11  C   UNL     1      44.515   3.714   8.994  0.00  0.00    +0.000 C 
BRANCH  11  12
ATOM     12  C   UNL     1      45.562   2.938   8.211  0.00  0.00    +0.000 A 
ATOM     13  C   UNL     1      46.317   3.577   7.226  0.00  0.00    +0.000 A 
ATOM     14  C   UNL     1      47.286   2.852   6.539  0.00  0.00    +0.000 A 
ATOM     15  C   UNL     1      47.473   1.509   6.843  0.00  0.00    +0.000 A 
ATOM     16  C   UNL     1      46.679   0.946   7.827  0.00  0.00    +0.000 A 
ATOM     17  N   UNL     1      45.734   1.626   8.517  0.00  0.00    +0.000 NA
ENDBRANCH  11  12
ENDBRANCH   9  11
ENDBRANCH   8   9
ENDBRANCH   5   8
ENDBRANCH   1   2
BRANCH   1  20
ATOM     18  C   UNL     1      48.535   9.076  16.242  0.00  0.00    +0.000 C 
ATOM     19  O   UNL     1      49.682   9.369  15.915  0.00  0.00    +0.000 OA
ATOM     20  N   UNL     1      47.559   8.870  15.307  0.00  0.00    +0.000 N 
ATOM     21  H   UNL     1      46.637   8.579  15.596  0.00  0.00    +0.000 HD
BRANCH  18  29
ATOM     22  C   UNL     1      48.217   6.364  18.340  0.00  0.00    +0.000 A 
ATOM     23  N   UNL     1      48.011   5.499  19.355  0.00  0.00    +0.000 NA
ATOM     24  C   UNL     1      47.610   5.992  20.527  0.00  0.00    +0.000 A 
ATOM     25  N   UNL     1      47.384   7.269  20.825  0.00  0.00    +0.000 NA
ATOM     26  C   UNL     1      47.608   8.098  19.790  0.00  0.00    +0.000 A 
ATOM     27  S   UNL     1      47.372   9.766  19.989  0.00  0.00    +0.000 S 
ATOM     28  C   UNL     1      47.818  10.072  18.378  0.00  0.00    +0.000 A 
ATOM     29  C   UNL     1      48.152   8.930  17.658  0.00  0.00    +0.000 A 
ATOM     30  C   UNL     1      48.029   7.747  18.510  0.00  0.00    +0.000 A 
BRANCH  22  32
ATOM     31  C   UNL     1      50.095   5.731  17.094  0.00  0.00    +0.000 C 
ATOM     32  O   UNL     1      48.676   5.858  17.144  0.00  0.00    +0.000 OA
ENDBRANCH  22  32
ENDBRANCH  18  29
ENDBRANCH   1  20
TORSDOF 8
ENDMDL
MODEL 7
REMARK VINA RESULT:    -6.718      2.744      4.000
REMARK INTER + INTRA:         -10.993
REMARK INTER:                  -9.911
REMARK INTRA:                  -1.082
REMARK UNBOUND:                -1.133
REMARK  Name = 
REMARK  9 active torsions:
REMARK  status: ('A' for Active; 'I' for Inactive)
REMARK    1  A    between atoms: C_1  and  O_2
REMARK    2  A    between atoms: O_2  and  C_3
REMARK    3  A    between atoms: C_10  and  C_11
REMARK    4  A    between atoms: N_13  and  C_14
REMARK    5  A    between atoms: C_14  and  C_15
REMARK    6  A    between atoms: C_18  and  C_19
REMARK    7  A    between atoms: C_19  and  N_20
REMARK    8  A    between atoms: N_20  and  C_21
REMARK    9  A    between atoms: C_21  and  C_22
REMARK                            x       y       z     vdW  Elec       q    Type
REMARK                         _______ _______ _______ _____ _____    ______ ____
ROOT
ATOM      1  C   UNL     1      47.503   8.266  13.430  0.00  0.00    +0.000 C 
ENDROOT
BRANCH   1   2
ATOM      2  C   UNL     1      46.675   7.095  12.962  0.00  0.00    +0.000 A 
ATOM      3  C   UNL     1      46.689   5.881  13.663  0.00  0.00    +0.000 A 
ATOM      4  C   UNL     1      45.922   4.796  13.223  0.00  0.00    +0.000 A 
ATOM      5  C   UNL     1      45.127   4.894  12.071  0.00  0.00    +0.000 A 
ATOM      6  C   UNL     1      45.144   6.096  11.352  0.00  0.00    +0.000 A 
ATOM      7  C   UNL     1      45.914   7.181  11.788  0.00  0.00    +0.000 A 
BRANCH   5   8
ATOM      8  C   UNL     1      44.274   3.726  11.616  0.00  0.00    +0.000 C 
BRANCH   8   9
ATOM      9  N   UNL     1      45.069   2.766  10.853  0.00  0.00    +0.000 NA
ATOM     10  H   UNL     1      45.113   1.890  11.377  0.00  0.00    +0.000 HD
BRANCH   9  11
ATOM     11  C   UNL     1      44.469   2.477   9.543  0.00  0.00    +0.000 C 
BRANCH  11  12
ATOM     12  C   UNL     1      45.519   2.363   8.450  0.00  0.00    +0.000 A 
ATOM     13  C   UNL     1      45.810   3.461   7.639  0.00  0.00    +0.000 A 
ATOM     14  C   UNL     1      46.793   3.339   6.661  0.00  0.00    +0.000 A 
ATOM     15  C   UNL     1      47.454   2.127   6.509  0.00  0.00    +0.000 A 
ATOM     16  C   UNL     1      47.102   1.082   7.347  0.00  0.00    +0.000 A 
ATOM     17  N   UNL     1      46.157   1.172   8.311  0.00  0.00    +0.000 NA
ENDBRANCH  11  12
ENDBRANCH   9  11
ENDBRANCH   8   9
ENDBRANCH   5   8
ENDBRANCH   1   2
BRANCH   1  20
ATOM     18  C   UNL     1      49.129   7.948  15.257  0.00  0.00    +0.000 C 
ATOM     19  O   UNL     1      48.373   8.462  16.078  0.00  0.00    +0.000 OA
ATOM     20  N   UNL     1      48.774   7.823  13.944  0.00  0.00    +0.000 N 
ATOM     21  H   UNL     1      49.432   7.445  13.277  0.00  0.00    +0.000 HD
BRANCH  18  29
ATOM     22  C   UNL     1      52.297   8.380  13.977  0.00  0.00    +0.000 A 
ATOM     23  N   UNL     1      53.614   8.370  13.686  0.00  0.00    +0.000 NA
ATOM     24  C   UNL     1      54.420   7.638  14.458  0.00  0.00    +0.000 A 
ATOM     25  N   UNL     1      54.071   6.899  15.507  0.00  0.00    +0.000 NA
ATOM     26  C   UNL     1      52.753   6.942  15.767  0.00  0.00    +0.000 A 
ATOM     27  S   UNL     1      52.129   6.058  17.073  0.00  0.00    +0.000 S 
ATOM     28  C   UNL     1      50.549   6.591  16.744  0.00  0.00    +0.000 A 
ATOM     29  C   UNL     1      50.458   7.441  15.647  0.00  0.00    +0.000 A 
ATOM     30  C   UNL     1      51.784   7.653  15.065  0.00  0.00    +0.000 A 
BRANCH  22  32
ATOM     31  C   UNL     1      52.118   9.701  12.052  0.00  0.00    +0.000 C 
ATOM     32  O   UNL     1      51.472   9.173  13.208  0.00  0.00    +0.000 OA
ENDBRANCH  22  32
ENDBRANCH  18  29
ENDBRANCH   1  20
TORSDOF 8
ENDMDL
MODEL 8
REMARK VINA RESULT:    -6.460      2.591      3.084
REMARK INTER + INTRA:         -10.614
REMARK INTER:                  -9.620
REMARK INTRA:                  -0.994
REMARK UNBOUND:                -1.133
REMARK  Name = 
REMARK  9 active torsions:
REMARK  status: ('A' for Active; 'I' for Inactive)
REMARK    1  A    between atoms: C_1  and  O_2
REMARK    2  A    between atoms: O_2  and  C_3
REMARK    3  A    between atoms: C_10  and  C_11
REMARK    4  A    between atoms: N_13  and  C_14
REMARK    5  A    between atoms: C_14  and  C_15
REMARK    6  A    between atoms: C_18  and  C_19
REMARK    7  A    between atoms: C_19  and  N_20
REMARK    8  A    between atoms: N_20  and  C_21
REMARK    9  A    between atoms: C_21  and  C_22
REMARK                            x       y       z     vdW  Elec       q    Type
REMARK                         _______ _______ _______ _____ _____    ______ ____
ROOT
ATOM      1  C   UNL     1      48.063   9.679  13.335  0.00  0.00    +0.000 C 
ENDROOT
BRANCH   1   2
ATOM      2  C   UNL     1      47.214   8.604  12.701  0.00  0.00    +0.000 A 
ATOM      3  C   UNL     1      45.817   8.635  12.813  0.00  0.00    +0.000 A 
ATOM      4  C   UNL     1      45.034   7.633  12.227  0.00  0.00    +0.000 A 
ATOM      5  C   UNL     1      45.625   6.576  11.519  0.00  0.00    +0.000 A 
ATOM      6  C   UNL     1      47.023   6.528  11.441  0.00  0.00    +0.000 A 
ATOM      7  C   UNL     1      47.809   7.527  12.030  0.00  0.00    +0.000 A 
BRANCH   5   8
ATOM      8  C   UNL     1      44.772   5.511  10.860  0.00  0.00    +0.000 C 
BRANCH   8   9
ATOM      9  N   UNL     1      45.237   5.237   9.501  0.00  0.00    +0.000 NA
ATOM     10  H   UNL     1      46.235   5.022   9.536  0.00  0.00    +0.000 HD
BRANCH   9  11
ATOM     11  C   UNL     1      44.548   4.081   8.911  0.00  0.00    +0.000 C 
BRANCH  11  12
ATOM     12  C   UNL     1      45.513   3.152   8.191  0.00  0.00    +0.000 A 
ATOM     13  C   UNL     1      46.288   3.628   7.134  0.00  0.00    +0.000 A 
ATOM     14  C   UNL     1      47.182   2.764   6.506  0.00  0.00    +0.000 A 
ATOM     15  C   UNL     1      47.274   1.448   6.942  0.00  0.00    +0.000 A 
ATOM     16  C   UNL     1      46.465   1.050   7.992  0.00  0.00    +0.000 A 
ATOM     17  N   UNL     1      45.592   1.868   8.626  0.00  0.00    +0.000 NA
ENDBRANCH  11  12
ENDBRANCH   9  11
ENDBRANCH   8   9
ENDBRANCH   5   8
ENDBRANCH   1   2
BRANCH   1  20
ATOM     18  C   UNL     1      49.809   9.691  15.077  0.00  0.00    +0.000 C 
ATOM     19  O   UNL     1      49.406  10.757  15.534  0.00  0.00    +0.000 OA
ATOM     20  N   UNL     1      49.205   9.106  13.999  0.00  0.00    +0.000 N 
ATOM     21  H   UNL     1      49.585   8.256  13.608  0.00  0.00    +0.000 HD
BRANCH  18  29
ATOM     22  C   UNL     1      50.260   6.514  16.324  0.00  0.00    +0.000 A 
ATOM     23  N   UNL     1      50.703   5.361  16.869  0.00  0.00    +0.000 NA
ATOM     24  C   UNL     1      51.969   5.311  17.286  0.00  0.00    +0.000 A 
ATOM     25  N   UNL     1      52.872   6.287  17.226  0.00  0.00    +0.000 NA
ATOM     26  C   UNL     1      52.392   7.414  16.671  0.00  0.00    +0.000 A 
ATOM     27  S   UNL     1      53.407   8.765  16.513  0.00  0.00    +0.000 S 
ATOM     28  C   UNL     1      52.164   9.677  15.799  0.00  0.00    +0.000 A 
ATOM     29  C   UNL     1      50.963   8.988  15.666  0.00  0.00    +0.000 A 
ATOM     30  C   UNL     1      51.105   7.628  16.187  0.00  0.00    +0.000 A 
BRANCH  22  32
ATOM     31  C   UNL     1      48.210   5.390  16.197  0.00  0.00    +0.000 C 
ATOM     32  O   UNL     1      48.966   6.549  15.852  0.00  0.00    +0.000 OA
ENDBRANCH  22  32
ENDBRANCH  18  29
ENDBRANCH   1  20
TORSDOF 8
ENDMDL
MODEL 9
REMARK VINA RESULT:    -6.281      1.866      2.376
REMARK INTER + INTRA:         -10.352
REMARK INTER:                  -9.603
REMARK INTRA:                  -0.748
REMARK UNBOUND:                -1.133
REMARK  Name = 
REMARK  9 active torsions:
REMARK  status: ('A' for Active; 'I' for Inactive)
REMARK    1  A    between atoms: C_1  and  O_2
REMARK    2  A    between atoms: O_2  and  C_3
REMARK    3  A    between atoms: C_10  and  C_11
REMARK    4  A    between atoms: N_13  and  C_14
REMARK    5  A    between atoms: C_14  and  C_15
REMARK    6  A    between atoms: C_18  and  C_19
REMARK    7  A    between atoms: C_19  and  N_20
REMARK    8  A    between atoms: N_20  and  C_21
REMARK    9  A    between atoms: C_21  and  C_22
REMARK                            x       y       z     vdW  Elec       q    Type
REMARK                         _______ _______ _______ _____ _____    ______ ____
ROOT
ATOM      1  C   UNL     1      49.123   7.375  13.611  0.00  0.00    +0.000 C 
ENDROOT
BRANCH   1   2
ATOM      2  C   UNL     1      47.788   6.932  13.065  0.00  0.00    +0.000 A 
ATOM      3  C   UNL     1      47.046   7.769  12.219  0.00  0.00    +0.000 A 
ATOM      4  C   UNL     1      45.806   7.356  11.716  0.00  0.00    +0.000 A 
ATOM      5  C   UNL     1      45.275   6.101  12.049  0.00  0.00    +0.000 A 
ATOM      6  C   UNL     1      46.001   5.282  12.924  0.00  0.00    +0.000 A 
ATOM      7  C   UNL     1      47.239   5.695  13.430  0.00  0.00    +0.000 A 
BRANCH   5   8
ATOM      8  C   UNL     1      43.947   5.645  11.479  0.00  0.00    +0.000 C 
BRANCH   8   9
ATOM      9  N   UNL     1      44.088   5.252  10.078  0.00  0.00    +0.000 NA
ATOM     10  H   UNL     1      44.991   5.585   9.736  0.00  0.00    +0.000 HD
BRANCH   9  11
ATOM     11  C   UNL     1      44.057   3.791   9.914  0.00  0.00    +0.000 C 
BRANCH  11  12
ATOM     12  C   UNL     1      45.106   3.308   8.927  0.00  0.00    +0.000 A 
ATOM     13  C   UNL     1      45.448   1.956   8.872  0.00  0.00    +0.000 A 
ATOM     14  C   UNL     1      46.395   1.534   7.943  0.00  0.00    +0.000 A 
ATOM     15  C   UNL     1      46.982   2.468   7.099  0.00  0.00    +0.000 A 
ATOM     16  C   UNL     1      46.595   3.791   7.220  0.00  0.00    +0.000 A 
ATOM     17  N   UNL     1      45.674   4.231   8.108  0.00  0.00    +0.000 NA
ENDBRANCH  11  12
ENDBRANCH   9  11
ENDBRANCH   8   9
ENDBRANCH   5   8
ENDBRANCH   1   2
BRANCH   1  20
ATOM     18  C   UNL     1      49.246   7.065  16.055  0.00  0.00    +0.000 C 
ATOM     19  O   UNL     1      49.597   5.895  15.933  0.00  0.00    +0.000 OA
ATOM     20  N   UNL     1      48.991   7.849  14.965  0.00  0.00    +0.000 N 
ATOM     21  H   UNL     1      48.654   8.793  15.089  0.00  0.00    +0.000 HD
BRANCH  18  29
ATOM     22  C   UNL     1      50.986   6.813  19.016  0.00  0.00    +0.000 A 
ATOM     23  N   UNL     1      51.467   6.895  20.273  0.00  0.00    +0.000 NA
ATOM     24  C   UNL     1      50.827   7.683  21.139  0.00  0.00    +0.000 A 
ATOM     25  N   UNL     1      49.744   8.418  20.903  0.00  0.00    +0.000 NA
ATOM     26  C   UNL     1      49.301   8.314  19.638  0.00  0.00    +0.000 A 
ATOM     27  S   UNL     1      47.926   9.185  19.159  0.00  0.00    +0.000 S 
ATOM     28  C   UNL     1      48.019   8.559  17.581  0.00  0.00    +0.000 A 
ATOM     29  C   UNL     1      49.081   7.684  17.383  0.00  0.00    +0.000 A 
ATOM     30  C   UNL     1      49.852   7.542  18.619  0.00  0.00    +0.000 A 
BRANCH  22  32
ATOM     31  C   UNL     1      51.638   4.644  18.422  0.00  0.00    +0.000 C 
ATOM     32  O   UNL     1      51.675   6.035  18.111  0.00  0.00    +0.000 OA
ENDBRANCH  22  32
ENDBRANCH  18  29
ENDBRANCH   1  20
TORSDOF 8
ENDMDL
