MODEL 1
REMARK VINA RESULT:    -7.391      0.000      0.000
REMARK INTER + INTRA:         -10.018
REMARK INTER:                  -9.336
REMARK INTRA:                  -0.682
REMARK UNBOUND:                -0.682
REMARK  Name = 
REMARK  5 active torsions:
REMARK  status: ('A' for Active; 'I' for Inactive)
REMARK    1  A    between atoms: N_1  and  C_2
REMARK    2  A    between atoms: C_2  and  C_3
REMARK    3  A    between atoms: C_6  and  O_7
REMARK    4  A    between atoms: O_7  and  C_8
REMARK    5  A    between atoms: C_8  and  C_9
REMARK                            x       y       z     vdW  Elec       q    Type
REMARK                         _______ _______ _______ _____ _____    ______ ____
ROOT
ATOM      1  C   UNL     1      46.589   2.237   7.611  0.00  0.00    +0.000 A 
ATOM      2  C   UNL     1      45.768   1.428   8.410  0.00  0.00    +0.000 A 
ATOM      3  C   UNL     1      44.741   1.992   9.172  0.00  0.00    +0.000 A 
ATOM      4  C   UNL     1      44.534   3.371   9.158  0.00  0.00    +0.000 A 
ATOM      5  C   UNL     1      45.305   4.173   8.316  0.00  0.00    +0.000 A 
ATOM      6  C   UNL     1      46.333   3.612   7.558  0.00  0.00    +0.000 A 
ENDROOT
BRANCH   1   7
ATOM      7  C   UNL     1      47.745   1.653   6.842  0.00  0.00    +0.000 C 
BRANCH   7   8
ATOM      8  N   UNL     1      48.629   2.689   6.327  0.00  0.00    +0.000 NA
ATOM      9  H   UNL     1      49.594   2.413   6.498  0.00  0.00    +0.000 HD
ATOM     10  H   UNL     1      48.475   3.543   6.857  0.00  0.00    +0.000 HD
ENDBRANCH   7   8
ENDBRANCH   1   7
BRANCH   4  11
ATOM     11  O   UNL     1      43.563   3.838  10.003  0.00  0.00    +0.000 OA
BRANCH  11  12
ATOM     12  C   UNL     1      43.623   3.305  11.327  0.00  0.00    +0.000 C 
BRANCH  12  13
ATOM     13  C   UNL     1      44.660   4.047  12.132  0.00  0.00    +0.000 A 
ATOM     14  C   UNL     1      45.704   3.347  12.753  0.00  0.00    +0.000 A 
ATOM     15  C   UNL     1      46.707   4.030  13.440  0.00  0.00    +0.000 A 
ATOM     16  C   UNL     1      46.677   5.423  13.509  0.00  0.00    +0.000 A 
ATOM     17  C   UNL     1      45.642   6.126  12.895  0.00  0.00    +0.000 A 
ATOM     18 CL   UNL     1      45.613   7.843  12.966  0.00  0.00    +0.000 Cl
ATOM     19  C   UNL     1      44.637   5.446  12.205  0.00  0.00    +0.000 A 
ENDBRANCH  12  13
ENDBRANCH  11  12
ENDBRANCH   4  11
TORSDOF 5
ENDMDL
MODEL 2
REMARK VINA RESULT:    -7.258      1.229      2.034
REMARK INTER + INTRA:          -9.850
REMARK INTER:                  -9.249
REMARK INTRA:                  -0.601
REMARK UNBOUND:                -0.682
REMARK  Name = 
REMARK  5 active torsions:
REMARK  status: ('A' for Active; 'I' for Inactive)
REMARK    1  A    between atoms: N_1  and  C_2
REMARK    2  A    between atoms: C_2  and  C_3
REMARK    3  A    between atoms: C_6  and  O_7
REMARK    4  A    between atoms: O_7  and  C_8
REMARK    5  A    between atoms: C_8  and  C_9
REMARK                            x       y       z     vdW  Elec       q    Type
REMARK                         _______ _______ _______ _____ _____    ______ ____
ROOT
ATOM      1  C   UNL     1      46.639   2.285   7.536  0.00  0.00    +0.000 A 
ATOM      2  C   UNL     1      46.476   3.674   7.425  0.00  0.00    +0.000 A 
ATOM      3  C   UNL     1      45.507   4.337   8.184  0.00  0.00    +0.000 A 
ATOM      4  C   UNL     1      44.681   3.620   9.047  0.00  0.00    +0.000 A 
ATOM      5  C   UNL     1      44.881   2.249   9.210  0.00  0.00    +0.000 A 
ATOM      6  C   UNL     1      45.844   1.584   8.450  0.00  0.00    +0.000 A 
ENDROOT
BRANCH   1   7
ATOM      7  C   UNL     1      47.627   1.547   6.671  0.00  0.00    +0.000 C 
BRANCH   7   8
ATOM      8  N   UNL     1      48.723   2.407   6.249  0.00  0.00    +0.000 NA
ATOM      9  H   UNL     1      48.454   2.885   5.391  0.00  0.00    +0.000 HD
ATOM     10  H   UNL     1      49.524   1.825   6.016  0.00  0.00    +0.000 HD
ENDBRANCH   7   8
ENDBRANCH   1   7
BRANCH   4  11
ATOM     11  O   UNL     1      43.706   4.344   9.681  0.00  0.00    +0.000 OA
BRANCH  11  12
ATOM     12  C   UNL     1      43.609   4.104  11.086  0.00  0.00    +0.000 C 
BRANCH  12  13
ATOM     13  C   UNL     1      44.702   4.848  11.810  0.00  0.00    +0.000 A 
ATOM     14  C   UNL     1      45.025   6.162  11.441  0.00  0.00    +0.000 A 
ATOM     15  C   UNL     1      45.985   6.884  12.149  0.00  0.00    +0.000 A 
ATOM     16  C   UNL     1      46.630   6.298  13.239  0.00  0.00    +0.000 A 
ATOM     17  C   UNL     1      46.316   4.993  13.611  0.00  0.00    +0.000 A 
ATOM     18 CL   UNL     1      47.099   4.276  14.964  0.00  0.00    +0.000 Cl
ATOM     19  C   UNL     1      45.355   4.267  12.906  0.00  0.00    +0.000 A 
ENDBRANCH  12  13
ENDBRANCH  11  12
ENDBRANCH   4  11
TORSDOF 5
ENDMDL
MODEL 3
REMARK VINA RESULT:    -6.859      3.675      6.339
REMARK INTER + INTRA:          -9.345
REMARK INTER:                  -8.854
REMARK INTRA:                  -0.492
REMARK UNBOUND:                -0.682
REMARK  Name = 
REMARK  5 active torsions:
REMARK  status: ('A' for Active; 'I' for Inactive)
REMARK    1  A    between atoms: N_1  and  C_2
REMARK    2  A    between atoms: C_2  and  C_3
REMARK    3  A    between atoms: C_6  and  O_7
REMARK    4  A    between atoms: O_7  and  C_8
REMARK    5  A    between atoms: C_8  and  C_9
REMARK                            x       y       z     vdW  Elec       q    Type
REMARK                         _______ _______ _______ _____ _____    ______ ____
ROOT
ATOM      1  C   UNL     1      45.520   7.672  12.344  0.00  0.00    +0.000 A 
ATOM      2  C   UNL     1      44.533   7.280  11.428  0.00  0.00    +0.000 A 
ATOM      3  C   UNL     1      44.319   5.926  11.152  0.00  0.00    +0.000 A 
ATOM      4  C   UNL     1      45.098   4.952  11.774  0.00  0.00    +0.000 A 
ATOM      5  C   UNL     1      46.037   5.333  12.734  0.00  0.00    +0.000 A 
ATOM      6  C   UNL     1      46.255   6.683  13.007  0.00  0.00    +0.000 A 
ENDROOT
BRANCH   1   7
ATOM      7  C   UNL     1      45.811   9.129  12.596  0.00  0.00    +0.000 C 
BRANCH   7   8
ATOM      8  N   UNL     1      44.591   9.921  12.657  0.00  0.00    +0.000 NA
ATOM      9  H   UNL     1      44.821  10.894  12.462  0.00  0.00    +0.000 HD
ATOM     10  H   UNL     1      44.232   9.895  13.608  0.00  0.00    +0.000 HD
ENDBRANCH   7   8
ENDBRANCH   1   7
BRANCH   4  11
ATOM     11  O   UNL     1      44.874   3.662  11.374  0.00  0.00    +0.000 OA
BRANCH  11  12
ATOM     12  C   UNL     1      44.142   3.539  10.154  0.00  0.00    +0.000 C 
BRANCH  12  13
ATOM     13  C   UNL     1      45.071   3.136   9.037  0.00  0.00    +0.000 A 
ATOM     14  C   UNL     1      45.654   4.114   8.218  0.00  0.00    +0.000 A 
ATOM     15  C   UNL     1      46.570   3.757   7.228  0.00  0.00    +0.000 A 
ATOM     16  C   UNL     1      46.913   2.417   7.050  0.00  0.00    +0.000 A 
ATOM     17  C   UNL     1      46.337   1.440   7.859  0.00  0.00    +0.000 A 
ATOM     18 CL   UNL     1      46.772  -0.211   7.650  0.00  0.00    +0.000 Cl
ATOM     19  C   UNL     1      45.422   1.792   8.852  0.00  0.00    +0.000 A 
ENDBRANCH  12  13
ENDBRANCH  11  12
ENDBRANCH   4  11
TORSDOF 5
ENDMDL
MODEL 4
REMARK VINA RESULT:    -6.825      3.394      6.066
REMARK INTER + INTRA:          -9.303
REMARK INTER:                  -8.770
REMARK INTRA:                  -0.533
REMARK UNBOUND:                -0.682
REMARK  Name = 
REMARK  5 active torsions:
REMARK  status: ('A' for Active; 'I' for Inactive)
REMARK    1  A    between atoms: N_1  and  C_2
REMARK    2  A    between atoms: C_2  and  C_3
REMARK    3  A    between atoms: C_6  and  O_7
REMARK    4  A    between atoms: O_7  and  C_8
REMARK    5  A    between atoms: C_8  and  C_9
REMARK                            x       y       z     vdW  Elec       q    Type
REMARK                         _______ _______ _______ _____ _____    ______ ____
ROOT
ATOM      1  C   UNL     1      46.993   5.585  13.341  0.00  0.00    +0.000 A 
ATOM      2  C   UNL     1      46.140   6.119  12.363  0.00  0.00    +0.000 A 
ATOM      3  C   UNL     1      45.236   5.297  11.685  0.00  0.00    +0.000 A 
ATOM      4  C   UNL     1      45.184   3.932  11.965  0.00  0.00    +0.000 A 
ATOM      5  C   UNL     1      45.982   3.408  12.981  0.00  0.00    +0.000 A 
ATOM      6  C   UNL     1      46.890   4.225  13.655  0.00  0.00    +0.000 A 
ENDROOT
BRANCH   1   7
ATOM      7  C   UNL     1      48.024   6.443  14.027  0.00  0.00    +0.000 C 
BRANCH   7   8
ATOM      8  N   UNL     1      48.300   5.979  15.379  0.00  0.00    +0.000 NA
ATOM      9  H   UNL     1      49.171   5.452  15.374  0.00  0.00    +0.000 HD
ATOM     10  H   UNL     1      47.570   5.326  15.656  0.00  0.00    +0.000 HD
ENDBRANCH   7   8
ENDBRANCH   1   7
BRANCH   4  11
ATOM     11  O   UNL     1      44.328   3.196  11.189  0.00  0.00    +0.000 OA
BRANCH  11  12
ATOM     12  C   UNL     1      44.039   3.773   9.914  0.00  0.00    +0.000 C 
BRANCH  12  13
ATOM     13  C   UNL     1      45.056   3.314   8.901  0.00  0.00    +0.000 A 
ATOM     14  C   UNL     1      45.751   4.252   8.124  0.00  0.00    +0.000 A 
ATOM     15  C   UNL     1      46.744   3.842   7.235  0.00  0.00    +0.000 A 
ATOM     16  C   UNL     1      47.054   2.488   7.117  0.00  0.00    +0.000 A 
ATOM     17  C   UNL     1      46.367   1.549   7.884  0.00  0.00    +0.000 A 
ATOM     18 CL   UNL     1      46.760  -0.120   7.749  0.00  0.00    +0.000 Cl
ATOM     19  C   UNL     1      45.374   1.955   8.776  0.00  0.00    +0.000 A 
ENDBRANCH  12  13
ENDBRANCH  11  12
ENDBRANCH   4  11
TORSDOF 5
ENDMDL
MODEL 5
REMARK VINA RESULT:    -6.702      3.219      5.984
REMARK INTER + INTRA:          -9.147
REMARK INTER:                  -8.673
REMARK INTRA:                  -0.474
REMARK UNBOUND:                -0.682
REMARK  Name = 
REMARK  5 active torsions:
REMARK  status: ('A' for Active; 'I' for Inactive)
REMARK    1  A    between atoms: N_1  and  C_2
REMARK    2  A    between atoms: C_2  and  C_3
REMARK    3  A    between atoms: C_6  and  O_7
REMARK    4  A    between atoms: O_7  and  C_8
REMARK    5  A    between atoms: C_8  and  C_9
REMARK                            x       y       z     vdW  Elec       q    Type
REMARK                         _______ _______ _______ _____ _____    ______ ____
ROOT
ATOM      1  C   UNL     1      46.744   6.102  12.686  0.00  0.00    +0.000 A 
ATOM      2  C   UNL     1      46.472   6.502  11.369  0.00  0.00    +0.000 A 
ATOM      3  C   UNL     1      45.607   5.755  10.565  0.00  0.00    +0.000 A 
ATOM      4  C   UNL     1      45.017   4.593  11.061  0.00  0.00    +0.000 A 
ATOM      5  C   UNL     1      45.232   4.226  12.390  0.00  0.00    +0.000 A 
ATOM      6  C   UNL     1      46.100   4.967  13.192  0.00  0.00    +0.000 A 
ENDROOT
BRANCH   1   7
ATOM      7  C   UNL     1      47.731   6.855  13.539  0.00  0.00    +0.000 C 
BRANCH   7   8
ATOM      8  N   UNL     1      49.102   6.443  13.271  0.00  0.00    +0.000 NA
ATOM      9  H   UNL     1      49.086   5.602  12.697  0.00  0.00    +0.000 HD
ATOM     10  H   UNL     1      49.543   6.183  14.150  0.00  0.00    +0.000 HD
ENDBRANCH   7   8
ENDBRANCH   1   7
BRANCH   4  11
ATOM     11  O   UNL     1      44.255   3.883  10.172  0.00  0.00    +0.000 OA
BRANCH  11  12
ATOM     12  C   UNL     1      44.510   4.186   8.799  0.00  0.00    +0.000 C 
BRANCH  12  13
ATOM     13  C   UNL     1      45.412   3.137   8.201  0.00  0.00    +0.000 A 
ATOM     14  C   UNL     1      45.459   1.848   8.755  0.00  0.00    +0.000 A 
ATOM     15  C   UNL     1      46.235   0.851   8.167  0.00  0.00    +0.000 A 
ATOM     16  C   UNL     1      46.971   1.131   7.015  0.00  0.00    +0.000 A 
ATOM     17  C   UNL     1      46.931   2.409   6.460  0.00  0.00    +0.000 A 
ATOM     18 CL   UNL     1      47.825   2.750   5.032  0.00  0.00    +0.000 Cl
ATOM     19  C   UNL     1      46.154   3.410   7.044  0.00  0.00    +0.000 A 
ENDBRANCH  12  13
ENDBRANCH  11  12
ENDBRANCH   4  11
TORSDOF 5
ENDMDL
MODEL 6
REMARK VINA RESULT:    -6.221      1.192      1.330
REMARK INTER + INTRA:          -8.540
REMARK INTER:                  -7.826
REMARK INTRA:                  -0.714
REMARK UNBOUND:                -0.682
REMARK  Name = 
REMARK  5 active torsions:
REMARK  status: ('A' for Active; 'I' for Inactive)
REMARK    1  A    between atoms: N_1  and  C_2
REMARK    2  A    between atoms: C_2  and  C_3
REMARK    3  A    between atoms: C_6  and  O_7
REMARK    4  A    between atoms: O_7  and  C_8
REMARK    5  A    between atoms: C_8  and  C_9
REMARK                            x       y       z     vdW  Elec       q    Type
REMARK                         _______ _______ _______ _____ _____    ______ ____
ROOT
ATOM      1  C   UNL     1      45.699   2.578   8.201  0.00  0.00    +0.000 A 
ATOM      2  C   UNL     1      45.058   1.835   9.203  0.00  0.00    +0.000 A 
ATOM      3  C   UNL     1      44.156   2.449  10.076  0.00  0.00    +0.000 A 
ATOM      4  C   UNL     1      43.896   3.815   9.968  0.00  0.00    +0.000 A 
ATOM      5  C   UNL     1      44.479   4.546   8.933  0.00  0.00    +0.000 A 
ATOM      6  C   UNL     1      45.384   3.935   8.064  0.00  0.00    +0.000 A 
ENDROOT
BRANCH   1   7
ATOM      7  C   UNL     1      46.728   1.946   7.301  0.00  0.00    +0.000 C 
BRANCH   7   8
ATOM      8  N   UNL     1      47.027   0.578   7.701  0.00  0.00    +0.000 NA
ATOM      9  H   UNL     1      46.671  -0.057   6.990  0.00  0.00    +0.000 HD
ATOM     10  H   UNL     1      46.517   0.369   8.556  0.00  0.00    +0.000 HD
ENDBRANCH   7   8
ENDBRANCH   1   7
BRANCH   4  11
ATOM     11  O   UNL     1      43.066   4.343  10.921  0.00  0.00    +0.000 OA
BRANCH  11  12
ATOM     12  C   UNL     1      43.469   4.083  12.267  0.00  0.00    +0.000 C 
BRANCH  12  13
ATOM     13  C   UNL     1      44.613   4.990  12.644  0.00  0.00    +0.000 A 
ATOM     14  C   UNL     1      45.876   4.450  12.930  0.00  0.00    +0.000 A 
ATOM     15  C   UNL     1      46.957   5.284  13.211  0.00  0.00    +0.000 A 
ATOM     16  C   UNL     1      46.787   6.669  13.203  0.00  0.00    +0.000 A 
ATOM     17  C   UNL     1      45.535   7.212  12.920  0.00  0.00    +0.000 A 
ATOM     18 CL   UNL     1      45.329   8.919  12.895  0.00  0.00    +0.000 Cl
ATOM     19  C   UNL     1      44.450   6.381  12.638  0.00  0.00    +0.000 A 
ENDBRANCH  12  13
ENDBRANCH  11  12
ENDBRANCH   4  11
TORSDOF 5
ENDMDL
MODEL 7
REMARK VINA RESULT:    -5.786      3.537      6.269
REMARK INTER + INTRA:          -7.991
REMARK INTER:                  -7.559
REMARK INTRA:                  -0.431
REMARK UNBOUND:                -0.682
REMARK  Name = 
REMARK  5 active torsions:
REMARK  status: ('A' for Active; 'I' for Inactive)
REMARK    1  A    between atoms: N_1  and  C_2
REMARK    2  A    between atoms: C_2  and  C_3
REMARK    3  A    between atoms: C_6  and  O_7
REMARK    4  A    between atoms: O_7  and  C_8
REMARK    5  A    between atoms: C_8  and  C_9
REMARK                            x       y       z     vdW  Elec       q    Type
REMARK                         _______ _______ _______ _____ _____    ______ ____
ROOT
ATOM      1  C   UNL     1      45.749   7.383  12.501  0.00  0.00    +0.000 A 
ATOM      2  C   UNL     1      46.416   6.176  12.757  0.00  0.00    +0.000 A 
ATOM      3  C   UNL     1      46.061   5.009  12.075  0.00  0.00    +0.000 A 
ATOM      4  C   UNL     1      45.025   5.031  11.143  0.00  0.00    +0.000 A 
ATOM      5  C   UNL     1      44.401   6.241  10.836  0.00  0.00    +0.000 A 
ATOM      6  C   UNL     1      44.751   7.405  11.520  0.00  0.00    +0.000 A 
ENDROOT
BRANCH   1   7
ATOM      7  C   UNL     1      46.071   8.631  13.281  0.00  0.00    +0.000 C 
BRANCH   7   8
ATOM      8  N   UNL     1      45.703   9.835  12.549  0.00  0.00    +0.000 NA
ATOM      9  H   UNL     1      46.202  10.627  12.948  0.00  0.00    +0.000 HD
ATOM     10  H   UNL     1      44.712  10.015  12.695  0.00  0.00    +0.000 HD
ENDBRANCH   7   8
ENDBRANCH   1   7
BRANCH   4  11
ATOM     11  O   UNL     1      44.692   3.823  10.591  0.00  0.00    +0.000 OA
BRANCH  11  12
ATOM     12  C   UNL     1      44.353   3.878   9.204  0.00  0.00    +0.000 C 
BRANCH  12  13
ATOM     13  C   UNL     1      45.295   3.008   8.411  0.00  0.00    +0.000 A 
ATOM     14  C   UNL     1      45.548   1.690   8.817  0.00  0.00    +0.000 A 
ATOM     15  C   UNL     1      46.362   0.855   8.052  0.00  0.00    +0.000 A 
ATOM     16  C   UNL     1      46.928   1.331   6.869  0.00  0.00    +0.000 A 
ATOM     17  C   UNL     1      46.684   2.640   6.460  0.00  0.00    +0.000 A 
ATOM     18 CL   UNL     1      47.370   3.221   4.995  0.00  0.00    +0.000 Cl
ATOM     19  C   UNL     1      45.869   3.478   7.222  0.00  0.00    +0.000 A 
ENDBRANCH  12  13
ENDBRANCH  11  12
ENDBRANCH   4  11
TORSDOF 5
ENDMDL
MODEL 8
REMARK VINA RESULT:    -5.321      5.054      7.948
REMARK INTER + INTRA:          -7.403
REMARK INTER:                  -7.044
REMARK INTRA:                  -0.359
REMARK UNBOUND:                -0.682
REMARK  Name = 
REMARK  5 active torsions:
REMARK  status: ('A' for Active; 'I' for Inactive)
REMARK    1  A    between atoms: N_1  and  C_2
REMARK    2  A    between atoms: C_2  and  C_3
REMARK    3  A    between atoms: C_6  and  O_7
REMARK    4  A    between atoms: O_7  and  C_8
REMARK    5  A    between atoms: C_8  and  C_9
REMARK                            x       y       z     vdW  Elec       q    Type
REMARK                         _______ _______ _______ _____ _____    ______ ____
ROOT
ATOM      1  C   UNL     1      48.565   4.382  18.331  0.00  0.00    +0.000 A 
ATOM      2  C   UNL     1      48.431   5.407  17.383  0.00  0.00    +0.000 A 
ATOM      3  C   UNL     1      47.908   5.139  16.116  0.00  0.00    +0.000 A 
ATOM      4  C   UNL     1      47.527   3.842  15.776  0.00  0.00    +0.000 A 
ATOM      5  C   UNL     1      47.596   2.831  16.735  0.00  0.00    +0.000 A 
ATOM      6  C   UNL     1      48.123   3.096  17.999  0.00  0.00    +0.000 A 
ENDROOT
BRANCH   1   7
ATOM      7  C   UNL     1      49.195   4.641  19.674  0.00  0.00    +0.000 C 
BRANCH   7   8
ATOM      8  N   UNL     1      48.494   3.945  20.744  0.00  0.00    +0.000 NA
ATOM      9  H   UNL     1      47.533   3.777  20.451  0.00  0.00    +0.000 HD
ATOM     10  H   UNL     1      48.444   4.558  21.555  0.00  0.00    +0.000 HD
ENDBRANCH   7   8
ENDBRANCH   1   7
BRANCH   4  11
ATOM     11  O   UNL     1      47.107   3.661  14.484  0.00  0.00    +0.000 OA
BRANCH  11  12
ATOM     12  C   UNL     1      46.628   4.846  13.846  0.00  0.00    +0.000 C 
BRANCH  12  13
ATOM     13  C   UNL     1      45.407   4.527  13.022  0.00  0.00    +0.000 A 
ATOM     14  C   UNL     1      44.204   5.213  13.248  0.00  0.00    +0.000 A 
ATOM     15  C   UNL     1      43.089   4.975  12.445  0.00  0.00    +0.000 A 
ATOM     16  C   UNL     1      43.168   4.051  11.403  0.00  0.00    +0.000 A 
ATOM     17  C   UNL     1      44.359   3.365  11.172  0.00  0.00    +0.000 A 
ATOM     18 CL   UNL     1      44.461   2.238   9.878  0.00  0.00    +0.000 Cl
ATOM     19  C   UNL     1      45.478   3.601  11.973  0.00  0.00    +0.000 A 
ENDBRANCH  12  13
ENDBRANCH  11  12
ENDBRANCH   4  11
TORSDOF 5
ENDMDL
MODEL 9
REMARK VINA RESULT:    -5.249      3.525      4.777
REMARK INTER + INTRA:          -7.312
REMARK INTER:                  -6.978
REMARK INTRA:                  -0.334
REMARK UNBOUND:                -0.682
REMARK  Name = 
REMARK  5 active torsions:
REMARK  status: ('A' for Active; 'I' for Inactive)
REMARK    1  A    between atoms: N_1  and  C_2
REMARK    2  A    between atoms: C_2  and  C_3
REMARK    3  A    between atoms: C_6  and  O_7
REMARK    4  A    between atoms: O_7  and  C_8
REMARK    5  A    between atoms: C_8  and  C_9
REMARK                            x       y       z     vdW  Elec       q    Type
REMARK                         _______ _______ _______ _____ _____    ______ ____
ROOT
ATOM      1  C   UNL     1      45.039   4.346  10.152  0.00  0.00    +0.000 A 
ATOM      2  C   UNL     1      44.739   3.272  11.004  0.00  0.00    +0.000 A 
ATOM      3  C   UNL     1      45.051   3.337  12.365  0.00  0.00    +0.000 A 
ATOM      4  C   UNL     1      45.680   4.466  12.886  0.00  0.00    +0.000 A 
ATOM      5  C   UNL     1      45.922   5.563  12.058  0.00  0.00    +0.000 A 
ATOM      6  C   UNL     1      45.615   5.498  10.699  0.00  0.00    +0.000 A 
ENDROOT
BRANCH   1   7
ATOM      7  C   UNL     1      44.775   4.261   8.672  0.00  0.00    +0.000 C 
BRANCH   7   8
ATOM      8  N   UNL     1      45.959   4.597   7.893  0.00  0.00    +0.000 NA
ATOM      9  H   UNL     1      45.971   5.603   7.731  0.00  0.00    +0.000 HD
ATOM     10  H   UNL     1      45.883   4.159   6.978  0.00  0.00    +0.000 HD
ENDBRANCH   7   8
ENDBRANCH   1   7
BRANCH   4  11
ATOM     11  O   UNL     1      46.024   4.401  14.210  0.00  0.00    +0.000 OA
BRANCH  11  12
ATOM     12  C   UNL     1      47.248   5.061  14.537  0.00  0.00    +0.000 C 
BRANCH  12  13
ATOM     13  C   UNL     1      47.696   4.657  15.919  0.00  0.00    +0.000 A 
ATOM     14  C   UNL     1      47.278   3.434  16.466  0.00  0.00    +0.000 A 
ATOM     15  C   UNL     1      47.743   3.019  17.714  0.00  0.00    +0.000 A 
ATOM     16  C   UNL     1      48.634   3.822  18.426  0.00  0.00    +0.000 A 
ATOM     17  C   UNL     1      49.053   5.038  17.889  0.00  0.00    +0.000 A 
ATOM     18 CL   UNL     1      50.163   6.020  18.760  0.00  0.00    +0.000 Cl
ATOM     19  C   UNL     1      48.591   5.457  16.641  0.00  0.00    +0.000 A 
ENDBRANCH  12  13
ENDBRANCH  11  12
ENDBRANCH   4  11
TORSDOF 5
ENDMDL
