MODEL 1
REMARK VINA RESULT:    -7.698      0.000      0.000
REMARK INTER + INTRA:         -13.446
REMARK INTER:                 -11.973
REMARK INTRA:                  -1.473
REMARK UNBOUND:                -1.473
REMARK  Name = 
REMARK  12 active torsions:
REMARK  status: ('A' for Active; 'I' for Inactive)
REMARK    1  A    between atoms: C_1  and  C_2
REMARK    2  A    between atoms: C_2  and  N_3
REMARK    3  A    between atoms: C_2  and  C_20
REMARK    4  A    between atoms: N_3  and  C_4
REMARK    5  A    between atoms: C_4  and  C_5
REMARK    6  A    between atoms: C_8  and  C_9
REMARK    7  A    between atoms: C_9  and  O_10
REMARK    8  A    between atoms: C_9  and  C_11
REMARK    9  A    between atoms: C_11  and  N_12
REMARK   10  A    between atoms: N_12  and  C_13
REMARK   11  A    between atoms: C_20  and  C_22
REMARK   12  A    between atoms: N_28  and  C_29
REMARK                            x       y       z     vdW  Elec       q    Type
REMARK                         _______ _______ _______ _____ _____    ______ ____
ROOT
ATOM      1  C   UNL     1      48.773   7.020  13.275  0.00  0.00    +0.000 C 
ENDROOT
BRANCH   1   2
ATOM      2  C   UNL     1      47.511   6.347  12.781  0.00  0.00    +0.000 A 
ATOM      3  C   UNL     1      46.933   6.721  11.560  0.00  0.00    +0.000 A 
ATOM      4  C   UNL     1      45.744   6.130  11.124  0.00  0.00    +0.000 A 
ATOM      5  C   UNL     1      45.113   5.146  11.894  0.00  0.00    +0.000 A 
ATOM      6  C   UNL     1      45.715   4.748  13.098  0.00  0.00    +0.000 A 
ATOM      7  C   UNL     1      46.898   5.342  13.539  0.00  0.00    +0.000 A 
BRANCH   5   8
ATOM      8  C   UNL     1      43.790   4.562  11.440  0.00  0.00    +0.000 C 
BRANCH   8   9
ATOM      9  O   UNL     1      43.299   5.268  10.297  0.00  0.00    +0.000 OA
ATOM     10  H   UNL     1      42.603   4.730   9.886  0.00  0.00    +0.000 HD
ENDBRANCH   8   9
BRANCH   8  11
ATOM     11  C   UNL     1      43.890   3.049  11.089  0.00  0.00    +0.000 C 
BRANCH  11  12
ATOM     12  N   UNL     1      45.038   2.619  10.267  0.00  0.00    +0.000 NA
ATOM     13  H   UNL     1      45.463   1.814  10.726  0.00  0.00    +0.000 HD
BRANCH  12  14
ATOM     14  C   UNL     1      44.661   2.220   8.926  0.00  0.00    +0.000 C 
ATOM     15  C   UNL     1      44.778   3.304   7.862  0.00  0.00    +0.000 C 
ATOM     16  C   UNL     1      46.266   3.375   7.595  0.00  0.00    +0.000 C 
ATOM     17  C   UNL     1      46.730   1.943   7.803  0.00  0.00    +0.000 C 
ATOM     18  N   UNL     1      45.649   1.240   8.508  0.00  0.00    +0.000 NA
ATOM     19  H   UNL     1      46.023   0.761   9.320  0.00  0.00    +0.000 HD
ENDBRANCH  12  14
ENDBRANCH  11  12
ENDBRANCH   8  11
ENDBRANCH   5   8
ENDBRANCH   1   2
BRANCH   1  20
ATOM     20  N   UNL     1      49.119   6.531  14.614  0.00  0.00    +0.000 NA
ATOM     21  H   UNL     1      48.588   5.679  14.790  0.00  0.00    +0.000 HD
BRANCH  20  23
ATOM     22  C   UNL     1      49.824   8.659  15.731  0.00  0.00    +0.000 C 
ATOM     23  C   UNL     1      48.838   7.488  15.706  0.00  0.00    +0.000 C 
BRANCH  23  24
ATOM     24  C   UNL     1      48.730   6.786  17.081  0.00  0.00    +0.000 C 
ATOM     25  O   UNL     1      48.557   7.442  18.110  0.00  0.00    +0.000 OA
BRANCH  24  26
ATOM     26  C   UNL     1      48.740   5.314  17.136  0.00  0.00    +0.000 A 
ATOM     27  C   UNL     1      47.596   4.548  16.973  0.00  0.00    +0.000 A 
ATOM     28  S   UNL     1      47.893   2.871  17.133  0.00  0.00    +0.000 S 
ATOM     29  C   UNL     1      49.558   3.127  17.372  0.00  0.00    +0.000 A 
ATOM     30  N   UNL     1      50.407   2.081  17.527  0.00  0.00    +0.000 NA
ATOM     31  C   UNL     1      51.650   2.419  17.649  0.00  0.00    +0.000 A 
ATOM     32  N   UNL     1      52.136   3.711  17.646  0.00  0.00    +0.000 N 
ATOM     33  C   UNL     1      53.560   3.956  17.732  0.00  0.00    +0.000 C 
ATOM     34  C   UNL     1      51.293   4.814  17.496  0.00  0.00    +0.000 A 
ATOM     35  O   UNL     1      51.718   5.963  17.426  0.00  0.00    +0.000 OA
ATOM     36  C   UNL     1      49.886   4.469  17.355  0.00  0.00    +0.000 A 
ENDBRANCH  24  26
ENDBRANCH  23  24
ENDBRANCH  20  23
ENDBRANCH   1  20
TORSDOF 10
ENDMDL
MODEL 2
REMARK VINA RESULT:    -7.466      1.453      2.360
REMARK INTER + INTRA:         -13.085
REMARK INTER:                 -11.449
REMARK INTRA:                  -1.635
REMARK UNBOUND:                -1.473
REMARK  Name = 
REMARK  12 active torsions:
REMARK  status: ('A' for Active; 'I' for Inactive)
REMARK    1  A    between atoms: C_1  and  C_2
REMARK    2  A    between atoms: C_2  and  N_3
REMARK    3  A    between atoms: C_2  and  C_20
REMARK    4  A    between atoms: N_3  and  C_4
REMARK    5  A    between atoms: C_4  and  C_5
REMARK    6  A    between atoms: C_8  and  C_9
REMARK    7  A    between atoms: C_9  and  O_10
REMARK    8  A    between atoms: C_9  and  C_11
REMARK    9  A    between atoms: C_11  and  N_12
REMARK   10  A    between atoms: N_12  and  C_13
REMARK   11  A    between atoms: C_20  and  C_22
REMARK   12  A    between atoms: N_28  and  C_29
REMARK                            x       y       z     vdW  Elec       q    Type
REMARK                         _______ _______ _______ _____ _____    ______ ____
ROOT
ATOM      1  C   UNL     1      48.983   6.982  12.710  0.00  0.00    +0.000 C 
ENDROOT
BRANCH   1   2
ATOM      2  C   UNL     1      47.596   6.434  12.456  0.00  0.00    +0.000 A 
ATOM      3  C   UNL     1      46.949   5.649  13.421  0.00  0.00    +0.000 A 
ATOM      4  C   UNL     1      45.687   5.106  13.170  0.00  0.00    +0.000 A 
ATOM      5  C   UNL     1      45.038   5.345  11.952  0.00  0.00    +0.000 A 
ATOM      6  C   UNL     1      45.672   6.161  11.003  0.00  0.00    +0.000 A 
ATOM      7  C   UNL     1      46.937   6.698  11.250  0.00  0.00    +0.000 A 
BRANCH   5   8
ATOM      8  C   UNL     1      43.698   4.696  11.668  0.00  0.00    +0.000 C 
BRANCH   8   9
ATOM      9  O   UNL     1      43.064   5.327  10.551  0.00  0.00    +0.000 OA
ATOM     10  H   UNL     1      42.184   5.625  10.832  0.00  0.00    +0.000 HD
ENDBRANCH   8   9
BRANCH   8  11
ATOM     11  C   UNL     1      43.815   3.172  11.380  0.00  0.00    +0.000 C 
BRANCH  11  12
ATOM     12  N   UNL     1      44.926   2.730  10.513  0.00  0.00    +0.000 NA
ATOM     13  H   UNL     1      45.363   1.924  10.958  0.00  0.00    +0.000 HD
BRANCH  12  14
ATOM     14  C   UNL     1      44.490   2.329   9.190  0.00  0.00    +0.000 C 
ATOM     15  C   UNL     1      44.626   3.389   8.106  0.00  0.00    +0.000 C 
ATOM     16  C   UNL     1      46.107   3.385   7.794  0.00  0.00    +0.000 C 
ATOM     17  C   UNL     1      46.509   1.936   8.012  0.00  0.00    +0.000 C 
ATOM     18  N   UNL     1      45.418   1.297   8.760  0.00  0.00    +0.000 NA
ATOM     19  H   UNL     1      45.793   0.813   9.569  0.00  0.00    +0.000 HD
ENDBRANCH  12  14
ENDBRANCH  11  12
ENDBRANCH   8  11
ENDBRANCH   5   8
ENDBRANCH   1   2
BRANCH   1  20
ATOM     20  N   UNL     1      49.354   6.794  14.116  0.00  0.00    +0.000 NA
ATOM     21  H   UNL     1      48.563   6.373  14.602  0.00  0.00    +0.000 HD
BRANCH  20  23
ATOM     22  C   UNL     1      50.907   8.758  14.169  0.00  0.00    +0.000 C 
ATOM     23  C   UNL     1      49.723   8.039  14.823  0.00  0.00    +0.000 C 
BRANCH  23  24
ATOM     24  C   UNL     1      49.946   7.806  16.336  0.00  0.00    +0.000 C 
ATOM     25  O   UNL     1      49.408   8.535  17.171  0.00  0.00    +0.000 OA
BRANCH  24  26
ATOM     26  C   UNL     1      50.735   6.640  16.772  0.00  0.00    +0.000 A 
ATOM     27  C   UNL     1      52.102   6.698  16.991  0.00  0.00    +0.000 A 
ATOM     28  S   UNL     1      52.766   5.187  17.441  0.00  0.00    +0.000 S 
ATOM     29  C   UNL     1      51.238   4.437  17.402  0.00  0.00    +0.000 A 
ATOM     30  N   UNL     1      51.097   3.130  17.738  0.00  0.00    +0.000 NA
ATOM     31  C   UNL     1      49.875   2.705  17.714  0.00  0.00    +0.000 A 
ATOM     32  N   UNL     1      48.769   3.456  17.370  0.00  0.00    +0.000 N 
ATOM     33  C   UNL     1      47.444   2.878  17.438  0.00  0.00    +0.000 C 
ATOM     34  C   UNL     1      48.875   4.801  17.011  0.00  0.00    +0.000 A 
ATOM     35  O   UNL     1      47.894   5.497  16.767  0.00  0.00    +0.000 OA
ATOM     36  C   UNL     1      50.238   5.313  17.030  0.00  0.00    +0.000 A 
ENDBRANCH  24  26
ENDBRANCH  23  24
ENDBRANCH  20  23
ENDBRANCH   1  20
TORSDOF 10
ENDMDL
MODEL 3
REMARK VINA RESULT:    -7.302      2.313      3.222
REMARK INTER + INTRA:         -12.831
REMARK INTER:                 -11.528
REMARK INTRA:                  -1.303
REMARK UNBOUND:                -1.473
REMARK  Name = 
REMARK  12 active torsions:
REMARK  status: ('A' for Active; 'I' for Inactive)
REMARK    1  A    between atoms: C_1  and  C_2
REMARK    2  A    between atoms: C_2  and  N_3
REMARK    3  A    between atoms: C_2  and  C_20
REMARK    4  A    between atoms: N_3  and  C_4
REMARK    5  A    between atoms: C_4  and  C_5
REMARK    6  A    between atoms: C_8  and  C_9
REMARK    7  A    between atoms: C_9  and  O_10
REMARK    8  A    between atoms: C_9  and  C_11
REMARK    9  A    between atoms: C_11  and  N_12
REMARK   10  A    between atoms: N_12  and  C_13
REMARK   11  A    between atoms: C_20  and  C_22
REMARK   12  A    between atoms: N_28  and  C_29
REMARK                            x       y       z     vdW  Elec       q    Type
REMARK                         _______ _______ _______ _____ _____    ______ ____
ROOT
ATOM      1  C   UNL     1      47.554   5.890  14.093  0.00  0.00    +0.000 C 
ENDROOT
BRANCH   1   2
ATOM      2  C   UNL     1      46.662   5.319  13.012  0.00  0.00    +0.000 A 
ATOM      3  C   UNL     1      46.348   6.072  11.872  0.00  0.00    +0.000 A 
ATOM      4  C   UNL     1      45.490   5.564  10.895  0.00  0.00    +0.000 A 
ATOM      5  C   UNL     1      44.934   4.285  11.030  0.00  0.00    +0.000 A 
ATOM      6  C   UNL     1      45.281   3.519  12.154  0.00  0.00    +0.000 A 
ATOM      7  C   UNL     1      46.132   4.030  13.135  0.00  0.00    +0.000 A 
BRANCH   5   8
ATOM      8  C   UNL     1      43.954   3.772   9.994  0.00  0.00    +0.000 C 
BRANCH   8   9
ATOM      9  O   UNL     1      43.435   4.856   9.218  0.00  0.00    +0.000 OA
ATOM     10  H   UNL     1      42.615   4.557   8.793  0.00  0.00    +0.000 HD
ENDBRANCH   8   9
BRANCH   8  11
ATOM     11  C   UNL     1      44.588   2.726   9.032  0.00  0.00    +0.000 C 
BRANCH  11  12
ATOM     12  N   UNL     1      45.064   3.212   7.722  0.00  0.00    +0.000 NA
ATOM     13  H   UNL     1      44.665   4.139   7.573  0.00  0.00    +0.000 HD
BRANCH  12  14
ATOM     14  C   UNL     1      46.507   3.331   7.650  0.00  0.00    +0.000 C 
ATOM     15  C   UNL     1      47.263   2.022   7.455  0.00  0.00    +0.000 C 
ATOM     16  C   UNL     1      47.054   1.711   5.988  0.00  0.00    +0.000 C 
ATOM     17  C   UNL     1      46.990   3.085   5.342  0.00  0.00    +0.000 C 
ATOM     18  N   UNL     1      46.787   4.058   6.423  0.00  0.00    +0.000 NA
ATOM     19  H   UNL     1      46.005   4.665   6.198  0.00  0.00    +0.000 HD
ENDBRANCH  12  14
ENDBRANCH  11  12
ENDBRANCH   8  11
ENDBRANCH   5   8
ENDBRANCH   1   2
BRANCH   1  20
ATOM     20  N   UNL     1      47.527   7.356  14.053  0.00  0.00    +0.000 NA
ATOM     21  H   UNL     1      47.000   7.643  13.228  0.00  0.00    +0.000 HD
BRANCH  20  23
ATOM     22  C   UNL     1      49.662   7.568  12.763  0.00  0.00    +0.000 C 
ATOM     23  C   UNL     1      48.861   7.991  13.997  0.00  0.00    +0.000 C 
BRANCH  23  24
ATOM     24  C   UNL     1      49.658   7.789  15.308  0.00  0.00    +0.000 C 
ATOM     25  O   UNL     1      50.857   7.509  15.279  0.00  0.00    +0.000 OA
BRANCH  24  26
ATOM     26  C   UNL     1      48.986   8.029  16.598  0.00  0.00    +0.000 A 
ATOM     27  C   UNL     1      48.522   9.278  16.982  0.00  0.00    +0.000 A 
ATOM     28  S   UNL     1      47.830   9.276  18.545  0.00  0.00    +0.000 S 
ATOM     29  C   UNL     1      48.088   7.603  18.723  0.00  0.00    +0.000 A 
ATOM     30  N   UNL     1      47.674   6.950  19.838  0.00  0.00    +0.000 NA
ATOM     31  C   UNL     1      47.887   5.674  19.817  0.00  0.00    +0.000 A 
ATOM     32  N   UNL     1      48.494   4.978  18.790  0.00  0.00    +0.000 N 
ATOM     33  C   UNL     1      48.623   3.538  18.862  0.00  0.00    +0.000 C 
ATOM     34  C   UNL     1      48.940   5.615  17.631  0.00  0.00    +0.000 A 
ATOM     35  O   UNL     1      49.420   4.999  16.684  0.00  0.00    +0.000 OA
ATOM     36  C   UNL     1      48.712   7.053  17.621  0.00  0.00    +0.000 A 
ENDBRANCH  24  26
ENDBRANCH  23  24
ENDBRANCH  20  23
ENDBRANCH   1  20
TORSDOF 10
ENDMDL
MODEL 4
REMARK VINA RESULT:    -7.295      2.325      3.062
REMARK INTER + INTRA:         -12.819
REMARK INTER:                 -10.975
REMARK INTRA:                  -1.844
REMARK UNBOUND:                -1.473
REMARK  Name = 
REMARK  12 active torsions:
REMARK  status: ('A' for Active; 'I' for Inactive)
REMARK    1  A    between atoms: C_1  and  C_2
REMARK    2  A    between atoms: C_2  and  N_3
REMARK    3  A    between atoms: C_2  and  C_20
REMARK    4  A    between atoms: N_3  and  C_4
REMARK    5  A    between atoms: C_4  and  C_5
REMARK    6  A    between atoms: C_8  and  C_9
REMARK    7  A    between atoms: C_9  and  O_10
REMARK    8  A    between atoms: C_9  and  C_11
REMARK    9  A    between atoms: C_11  and  N_12
REMARK   10  A    between atoms: N_12  and  C_13
REMARK   11  A    between atoms: C_20  and  C_22
REMARK   12  A    between atoms: N_28  and  C_29
REMARK                            x       y       z     vdW  Elec       q    Type
REMARK                         _______ _______ _______ _____ _____    ______ ____
ROOT
ATOM      1  C   UNL     1      48.972   7.401  12.758  0.00  0.00    +0.000 C 
ENDROOT
BRANCH   1   2
ATOM      2  C   UNL     1      47.657   6.655  12.704  0.00  0.00    +0.000 A 
ATOM      3  C   UNL     1      46.662   7.023  11.788  0.00  0.00    +0.000 A 
ATOM      4  C   UNL     1      45.432   6.362  11.766  0.00  0.00    +0.000 A 
ATOM      5  C   UNL     1      45.172   5.312  12.655  0.00  0.00    +0.000 A 
ATOM      6  C   UNL     1      46.184   4.921  13.546  0.00  0.00    +0.000 A 
ATOM      7  C   UNL     1      47.411   5.585  13.573  0.00  0.00    +0.000 A 
BRANCH   5   8
ATOM      8  C   UNL     1      43.810   4.647  12.664  0.00  0.00    +0.000 C 
BRANCH   8   9
ATOM      9  O   UNL     1      42.909   5.342  11.796  0.00  0.00    +0.000 OA
ATOM     10  H   UNL     1      42.780   4.801  11.000  0.00  0.00    +0.000 HD
ENDBRANCH   8   9
BRANCH   8  11
ATOM     11  C   UNL     1      43.866   3.153  12.235  0.00  0.00    +0.000 C 
BRANCH  11  12
ATOM     12  N   UNL     1      44.792   2.797  11.142  0.00  0.00    +0.000 NA
ATOM     13  H   UNL     1      45.170   1.872  11.346  0.00  0.00    +0.000 HD
BRANCH  12  14
ATOM     14  C   UNL     1      44.147   2.739   9.845  0.00  0.00    +0.000 C 
ATOM     15  C   UNL     1      44.409   3.928   8.930  0.00  0.00    +0.000 C 
ATOM     16  C   UNL     1      45.812   3.679   8.421  0.00  0.00    +0.000 C 
ATOM     17  C   UNL     1      45.899   2.163   8.355  0.00  0.00    +0.000 C 
ATOM     18  N   UNL     1      44.773   1.635   9.137  0.00  0.00    +0.000 NA
ATOM     19  H   UNL     1      45.109   0.947   9.803  0.00  0.00    +0.000 HD
ENDBRANCH  12  14
ENDBRANCH  11  12
ENDBRANCH   8  11
ENDBRANCH   5   8
ENDBRANCH   1   2
BRANCH   1  20
ATOM     20  N   UNL     1      49.774   6.938  13.895  0.00  0.00    +0.000 NA
ATOM     21  H   UNL     1      49.146   6.508  14.575  0.00  0.00    +0.000 HD
BRANCH  20  23
ATOM     22  C   UNL     1      51.749   8.471  13.767  0.00  0.00    +0.000 C 
ATOM     23  C   UNL     1      50.539   8.002  14.579  0.00  0.00    +0.000 C 
BRANCH  23  24
ATOM     24  C   UNL     1      50.923   7.607  16.025  0.00  0.00    +0.000 C 
ATOM     25  O   UNL     1      52.052   7.188  16.284  0.00  0.00    +0.000 OA
BRANCH  24  26
ATOM     26  C   UNL     1      49.950   7.828  17.109  0.00  0.00    +0.000 A 
ATOM     27  C   UNL     1      49.843   9.032  17.788  0.00  0.00    +0.000 A 
ATOM     28  S   UNL     1      48.666   8.991  19.029  0.00  0.00    +0.000 S 
ATOM     29  C   UNL     1      48.240   7.386  18.654  0.00  0.00    +0.000 A 
ATOM     30  N   UNL     1      47.243   6.757  19.324  0.00  0.00    +0.000 NA
ATOM     31  C   UNL     1      46.990   5.561  18.902  0.00  0.00    +0.000 A 
ATOM     32  N   UNL     1      47.651   4.915  17.876  0.00  0.00    +0.000 N 
ATOM     33  C   UNL     1      47.235   3.594  17.458  0.00  0.00    +0.000 C 
ATOM     34  C   UNL     1      48.687   5.527  17.167  0.00  0.00    +0.000 A 
ATOM     35  O   UNL     1      49.237   4.989  16.211  0.00  0.00    +0.000 OA
ATOM     36  C   UNL     1      48.995   6.877  17.616  0.00  0.00    +0.000 A 
ENDBRANCH  24  26
ENDBRANCH  23  24
ENDBRANCH  20  23
ENDBRANCH   1  20
TORSDOF 10
ENDMDL
MODEL 5
REMARK VINA RESULT:    -7.164      2.241      8.936
REMARK INTER + INTRA:         -12.616
REMARK INTER:                 -11.457
REMARK INTRA:                  -1.158
REMARK UNBOUND:                -1.473
REMARK  Name = 
REMARK  12 active torsions:
REMARK  status: ('A' for Active; 'I' for Inactive)
REMARK    1  A    between atoms: C_1  and  C_2
REMARK    2  A    between atoms: C_2  and  N_3
REMARK    3  A    between atoms: C_2  and  C_20
REMARK    4  A    between atoms: N_3  and  C_4
REMARK    5  A    between atoms: C_4  and  C_5
REMARK    6  A    between atoms: C_8  and  C_9
REMARK    7  A    between atoms: C_9  and  O_10
REMARK    8  A    between atoms: C_9  and  C_11
REMARK    9  A    between atoms: C_11  and  N_12
REMARK   10  A    between atoms: N_12  and  C_13
REMARK   11  A    between atoms: C_20  and  C_22
REMARK   12  A    between atoms: N_28  and  C_29
REMARK                            x       y       z     vdW  Elec       q    Type
REMARK                         _______ _______ _______ _____ _____    ______ ____
ROOT
ATOM      1  C   UNL     1      47.176   4.988  13.988  0.00  0.00    +0.000 C 
ENDROOT
BRANCH   1   2
ATOM      2  C   UNL     1      47.570   4.936  15.447  0.00  0.00    +0.000 A 
ATOM      3  C   UNL     1      48.377   5.936  16.007  0.00  0.00    +0.000 A 
ATOM      4  C   UNL     1      48.777   5.866  17.344  0.00  0.00    +0.000 A 
ATOM      5  C   UNL     1      48.370   4.798  18.154  0.00  0.00    +0.000 A 
ATOM      6  C   UNL     1      47.531   3.818  17.600  0.00  0.00    +0.000 A 
ATOM      7  C   UNL     1      47.137   3.884  16.263  0.00  0.00    +0.000 A 
BRANCH   5   8
ATOM      8  C   UNL     1      48.864   4.701  19.583  0.00  0.00    +0.000 C 
BRANCH   8   9
ATOM      9  O   UNL     1      48.619   3.392  20.108  0.00  0.00    +0.000 OA
ATOM     10  H   UNL     1      49.086   2.750  19.550  0.00  0.00    +0.000 HD
ENDBRANCH   8   9
BRANCH   8  11
ATOM     11  C   UNL     1      50.381   5.017  19.718  0.00  0.00    +0.000 C 
BRANCH  11  12
ATOM     12  N   UNL     1      51.328   3.908  19.485  0.00  0.00    +0.000 NA
ATOM     13  H   UNL     1      50.866   3.043  19.764  0.00  0.00    +0.000 HD
BRANCH  12  14
ATOM     14  C   UNL     1      51.719   3.776  18.095  0.00  0.00    +0.000 C 
ATOM     15  C   UNL     1      53.217   3.826  17.829  0.00  0.00    +0.000 C 
ATOM     16  C   UNL     1      53.697   2.457  18.259  0.00  0.00    +0.000 C 
ATOM     17  C   UNL     1      52.522   1.552  17.930  0.00  0.00    +0.000 C 
ATOM     18  N   UNL     1      51.360   2.423  17.706  0.00  0.00    +0.000 NA
ATOM     19  H   UNL     1      50.576   2.102  18.264  0.00  0.00    +0.000 HD
ENDBRANCH  12  14
ENDBRANCH  11  12
ENDBRANCH   8  11
ENDBRANCH   5   8
ENDBRANCH   1   2
BRANCH   1  20
ATOM     20  N   UNL     1      46.439   6.225  13.704  0.00  0.00    +0.000 NA
ATOM     21  H   UNL     1      45.464   6.083  13.967  0.00  0.00    +0.000 HD
BRANCH  20  23
ATOM     22  C   UNL     1      47.023   8.074  12.120  0.00  0.00    +0.000 C 
ATOM     23  C   UNL     1      46.482   6.651  12.289  0.00  0.00    +0.000 C 
BRANCH  23  24
ATOM     24  C   UNL     1      45.120   6.456  11.581  0.00  0.00    +0.000 C 
ATOM     25  O   UNL     1      44.503   7.421  11.126  0.00  0.00    +0.000 OA
BRANCH  24  26
ATOM     26  C   UNL     1      44.613   5.089  11.370  0.00  0.00    +0.000 A 
ATOM     27  C   UNL     1      43.766   4.456  12.267  0.00  0.00    +0.000 A 
ATOM     28  S   UNL     1      43.376   2.859  11.795  0.00  0.00    +0.000 S 
ATOM     29  C   UNL     1      44.285   2.995  10.363  0.00  0.00    +0.000 A 
ATOM     30  N   UNL     1      44.331   1.976   9.469  0.00  0.00    +0.000 NA
ATOM     31  C   UNL     1      45.016   2.236   8.402  0.00  0.00    +0.000 A 
ATOM     32  N   UNL     1      45.681   3.417   8.141  0.00  0.00    +0.000 N 
ATOM     33  C   UNL     1      46.366   3.607   6.881  0.00  0.00    +0.000 C 
ATOM     34  C   UNL     1      45.662   4.486   9.040  0.00  0.00    +0.000 A 
ATOM     35  O   UNL     1      46.193   5.564   8.791  0.00  0.00    +0.000 OA
ATOM     36  C   UNL     1      44.898   4.228  10.251  0.00  0.00    +0.000 A 
ENDBRANCH  24  26
ENDBRANCH  23  24
ENDBRANCH  20  23
ENDBRANCH   1  20
TORSDOF 10
ENDMDL
MODEL 6
REMARK VINA RESULT:    -6.567      3.666     10.001
REMARK INTER + INTRA:         -11.687
REMARK INTER:                 -10.787
REMARK INTRA:                  -0.900
REMARK UNBOUND:                -1.473
REMARK  Name = 
REMARK  12 active torsions:
REMARK  status: ('A' for Active; 'I' for Inactive)
REMARK    1  A    between atoms: C_1  and  C_2
REMARK    2  A    between atoms: C_2  and  N_3
REMARK    3  A    between atoms: C_2  and  C_20
REMARK    4  A    between atoms: N_3  and  C_4
REMARK    5  A    between atoms: C_4  and  C_5
REMARK    6  A    between atoms: C_8  and  C_9
REMARK    7  A    between atoms: C_9  and  O_10
REMARK    8  A    between atoms: C_9  and  C_11
REMARK    9  A    between atoms: C_11  and  N_12
REMARK   10  A    between atoms: N_12  and  C_13
REMARK   11  A    between atoms: C_20  and  C_22
REMARK   12  A    between atoms: N_28  and  C_29
REMARK                            x       y       z     vdW  Elec       q    Type
REMARK                         _______ _______ _______ _____ _____    ______ ____
ROOT
ATOM      1  C   UNL     1      49.513   4.386  17.896  0.00  0.00    +0.000 C 
ENDROOT
BRANCH   1   2
ATOM      2  C   UNL     1      50.697   3.444  17.859  0.00  0.00    +0.000 A 
ATOM      3  C   UNL     1      51.965   3.872  18.278  0.00  0.00    +0.000 A 
ATOM      4  C   UNL     1      53.067   3.018  18.204  0.00  0.00    +0.000 A 
ATOM      5  C   UNL     1      52.925   1.712  17.717  0.00  0.00    +0.000 A 
ATOM      6  C   UNL     1      51.647   1.275  17.334  0.00  0.00    +0.000 A 
ATOM      7  C   UNL     1      50.547   2.130  17.401  0.00  0.00    +0.000 A 
BRANCH   5   8
ATOM      8  C   UNL     1      54.141   0.818  17.581  0.00  0.00    +0.000 C 
BRANCH   8   9
ATOM      9  O   UNL     1      55.063   1.371  16.637  0.00  0.00    +0.000 OA
ATOM     10  H   UNL     1      55.890   0.864  16.690  0.00  0.00    +0.000 HD
ENDBRANCH   8   9
BRANCH   8  11
ATOM     11  C   UNL     1      54.881   0.598  18.932  0.00  0.00    +0.000 C 
BRANCH  11  12
ATOM     12  N   UNL     1      54.571  -0.636  19.680  0.00  0.00    +0.000 NA
ATOM     13  H   UNL     1      53.836  -0.415  20.351  0.00  0.00    +0.000 HD
BRANCH  12  14
ATOM     14  C   UNL     1      54.093  -1.711  18.833  0.00  0.00    +0.000 C 
ATOM     15  C   UNL     1      54.846  -3.029  18.958  0.00  0.00    +0.000 C 
ATOM     16  C   UNL     1      54.328  -3.608  20.257  0.00  0.00    +0.000 C 
ATOM     17  C   UNL     1      52.890  -3.120  20.312  0.00  0.00    +0.000 C 
ATOM     18  N   UNL     1      52.765  -2.043  19.320  0.00  0.00    +0.000 NA
ATOM     19  H   UNL     1      52.343  -1.226  19.751  0.00  0.00    +0.000 HD
ENDBRANCH  12  14
ENDBRANCH  11  12
ENDBRANCH   8  11
ENDBRANCH   5   8
ENDBRANCH   1   2
BRANCH   1  20
ATOM     20  N   UNL     1      49.131   4.775  16.535  0.00  0.00    +0.000 NA
ATOM     21  H   UNL     1      49.362   5.760  16.408  0.00  0.00    +0.000 HD
BRANCH  20  23
ATOM     22  C   UNL     1      47.036   3.528  17.109  0.00  0.00    +0.000 C 
ATOM     23  C   UNL     1      47.696   4.592  16.227  0.00  0.00    +0.000 C 
BRANCH  23  24
ATOM     24  C   UNL     1      47.453   4.334  14.720  0.00  0.00    +0.000 C 
ATOM     25  O   UNL     1      47.331   3.186  14.290  0.00  0.00    +0.000 OA
BRANCH  24  26
ATOM     26  C   UNL     1      47.272   5.485  13.818  0.00  0.00    +0.000 A 
ATOM     27  C   UNL     1      48.285   6.392  13.545  0.00  0.00    +0.000 A 
ATOM     28  S   UNL     1      47.782   7.653  12.506  0.00  0.00    +0.000 S 
ATOM     29  C   UNL     1      46.221   6.991  12.358  0.00  0.00    +0.000 A 
ATOM     30  N   UNL     1      45.293   7.571  11.556  0.00  0.00    +0.000 NA
ATOM     31  C   UNL     1      44.168   6.934  11.498  0.00  0.00    +0.000 A 
ATOM     32  N   UNL     1      43.867   5.772  12.179  0.00  0.00    +0.000 N 
ATOM     33  C   UNL     1      42.589   5.122  11.984  0.00  0.00    +0.000 C 
ATOM     34  C   UNL     1      44.793   5.149  13.018  0.00  0.00    +0.000 A 
ATOM     35  O   UNL     1      44.562   4.081  13.577  0.00  0.00    +0.000 OA
ATOM     36  C   UNL     1      46.072   5.839  13.105  0.00  0.00    +0.000 A 
ENDBRANCH  24  26
ENDBRANCH  23  24
ENDBRANCH  20  23
ENDBRANCH   1  20
TORSDOF 10
ENDMDL
MODEL 7
REMARK VINA RESULT:    -6.412      1.857      2.560
REMARK INTER + INTRA:         -11.445
REMARK INTER:                  -9.956
REMARK INTRA:                  -1.490
REMARK UNBOUND:                -1.473
REMARK  Name = 
REMARK  12 active torsions:
REMARK  status: ('A' for Active; 'I' for Inactive)
REMARK    1  A    between atoms: C_1  and  C_2
REMARK    2  A    between atoms: C_2  and  N_3
REMARK    3  A    between atoms: C_2  and  C_20
REMARK    4  A    between atoms: N_3  and  C_4
REMARK    5  A    between atoms: C_4  and  C_5
REMARK    6  A    between atoms: C_8  and  C_9
REMARK    7  A    between atoms: C_9  and  O_10
REMARK    8  A    between atoms: C_9  and  C_11
REMARK    9  A    between atoms: C_11  and  N_12
REMARK   10  A    between atoms: N_12  and  C_13
REMARK   11  A    between atoms: C_20  and  C_22
REMARK   12  A    between atoms: N_28  and  C_29
REMARK                            x       y       z     vdW  Elec       q    Type
REMARK                         _______ _______ _______ _____ _____    ______ ____
ROOT
ATOM      1  C   UNL     1      50.252   7.503  14.431  0.00  0.00    +0.000 C 
ENDROOT
BRANCH   1   2
ATOM      2  C   UNL     1      48.834   7.490  13.904  0.00  0.00    +0.000 A 
ATOM      3  C   UNL     1      48.295   6.330  13.329  0.00  0.00    +0.000 A 
ATOM      4  C   UNL     1      47.001   6.329  12.804  0.00  0.00    +0.000 A 
ATOM      5  C   UNL     1      46.213   7.486  12.850  0.00  0.00    +0.000 A 
ATOM      6  C   UNL     1      46.742   8.634  13.460  0.00  0.00    +0.000 A 
ATOM      7  C   UNL     1      48.037   8.638  13.979  0.00  0.00    +0.000 A 
BRANCH   5   8
ATOM      8  C   UNL     1      44.835   7.489  12.218  0.00  0.00    +0.000 C 
BRANCH   8   9
ATOM      9  O   UNL     1      44.485   8.809  11.791  0.00  0.00    +0.000 OA
ATOM     10  H   UNL     1      43.748   9.120  12.341  0.00  0.00    +0.000 HD
ENDBRANCH   8   9
BRANCH   8  11
ATOM     11  C   UNL     1      44.728   6.526  11.001  0.00  0.00    +0.000 C 
BRANCH  11  12
ATOM     12  N   UNL     1      43.486   5.741  10.866  0.00  0.00    +0.000 NA
ATOM     13  H   UNL     1      42.881   6.230  10.206  0.00  0.00    +0.000 HD
BRANCH  12  14
ATOM     14  C   UNL     1      43.710   4.402  10.356  0.00  0.00    +0.000 C 
ATOM     15  C   UNL     1      45.100   3.831  10.607  0.00  0.00    +0.000 C 
ATOM     16  C   UNL     1      45.062   3.441  12.069  0.00  0.00    +0.000 C 
ATOM     17  C   UNL     1      43.616   3.028  12.285  0.00  0.00    +0.000 C 
ATOM     18  N   UNL     1      42.850   3.529  11.136  0.00  0.00    +0.000 NA
ATOM     19  H   UNL     1      42.040   4.046  11.461  0.00  0.00    +0.000 HD
ENDBRANCH  12  14
ENDBRANCH  11  12
ENDBRANCH   8  11
ENDBRANCH   5   8
ENDBRANCH   1   2
BRANCH   1  20
ATOM     20  N   UNL     1      50.324   6.798  15.715  0.00  0.00    +0.000 NA
ATOM     21  H   UNL     1      49.996   5.843  15.574  0.00  0.00    +0.000 HD
BRANCH  20  23
ATOM     22  C   UNL     1      50.260   8.544  17.509  0.00  0.00    +0.000 C 
ATOM     23  C   UNL     1      49.520   7.410  16.795  0.00  0.00    +0.000 C 
BRANCH  23  24
ATOM     24  C   UNL     1      48.975   6.353  17.785  0.00  0.00    +0.000 C 
ATOM     25  O   UNL     1      48.513   6.693  18.876  0.00  0.00    +0.000 OA
BRANCH  24  26
ATOM     26  C   UNL     1      48.926   4.941  17.369  0.00  0.00    +0.000 A 
ATOM     27  C   UNL     1      47.808   4.369  16.781  0.00  0.00    +0.000 A 
ATOM     28  S   UNL     1      48.014   2.705  16.446  0.00  0.00    +0.000 S 
ATOM     29  C   UNL     1      49.612   2.722  17.031  0.00  0.00    +0.000 A 
ATOM     30  N   UNL     1      50.382   1.606  16.986  0.00  0.00    +0.000 NA
ATOM     31  C   UNL     1      51.590   1.776  17.415  0.00  0.00    +0.000 A 
ATOM     32  N   UNL     1      52.110   2.957  17.906  0.00  0.00    +0.000 N 
ATOM     33  C   UNL     1      53.499   3.034  18.304  0.00  0.00    +0.000 C 
ATOM     34  C   UNL     1      51.347   4.125  17.976  0.00  0.00    +0.000 A 
ATOM     35  O   UNL     1      51.816   5.196  18.348  0.00  0.00    +0.000 OA
ATOM     36  C   UNL     1      49.981   3.969  17.497  0.00  0.00    +0.000 A 
ENDBRANCH  24  26
ENDBRANCH  23  24
ENDBRANCH  20  23
ENDBRANCH   1  20
TORSDOF 10
ENDMDL
MODEL 8
REMARK VINA RESULT:    -6.375      3.701      9.556
REMARK INTER + INTRA:         -11.388
REMARK INTER:                 -10.124
REMARK INTRA:                  -1.264
REMARK UNBOUND:                -1.473
REMARK  Name = 
REMARK  12 active torsions:
REMARK  status: ('A' for Active; 'I' for Inactive)
REMARK    1  A    between atoms: C_1  and  C_2
REMARK    2  A    between atoms: C_2  and  N_3
REMARK    3  A    between atoms: C_2  and  C_20
REMARK    4  A    between atoms: N_3  and  C_4
REMARK    5  A    between atoms: C_4  and  C_5
REMARK    6  A    between atoms: C_8  and  C_9
REMARK    7  A    between atoms: C_9  and  O_10
REMARK    8  A    between atoms: C_9  and  C_11
REMARK    9  A    between atoms: C_11  and  N_12
REMARK   10  A    between atoms: N_12  and  C_13
REMARK   11  A    between atoms: C_20  and  C_22
REMARK   12  A    between atoms: N_28  and  C_29
REMARK                            x       y       z     vdW  Elec       q    Type
REMARK                         _______ _______ _______ _____ _____    ______ ____
ROOT
ATOM      1  C   UNL     1      49.457   4.472  17.882  0.00  0.00    +0.000 C 
ENDROOT
BRANCH   1   2
ATOM      2  C   UNL     1      50.635   3.523  17.840  0.00  0.00    +0.000 A 
ATOM      3  C   UNL     1      51.906   3.942  18.256  0.00  0.00    +0.000 A 
ATOM      4  C   UNL     1      53.003   3.081  18.177  0.00  0.00    +0.000 A 
ATOM      5  C   UNL     1      52.851   1.778  17.689  0.00  0.00    +0.000 A 
ATOM      6  C   UNL     1      51.570   1.349  17.308  0.00  0.00    +0.000 A 
ATOM      7  C   UNL     1      50.474   2.211  17.380  0.00  0.00    +0.000 A 
BRANCH   5   8
ATOM      8  C   UNL     1      54.061   0.876  17.548  0.00  0.00    +0.000 C 
BRANCH   8   9
ATOM      9  O   UNL     1      54.969   1.407  16.577  0.00  0.00    +0.000 OA
ATOM     10  H   UNL     1      55.868   1.340  16.937  0.00  0.00    +0.000 HD
ENDBRANCH   8   9
BRANCH   8  11
ATOM     11  C   UNL     1      54.824   0.678  18.889  0.00  0.00    +0.000 C 
BRANCH  11  12
ATOM     12  N   UNL     1      54.507  -0.531  19.676  0.00  0.00    +0.000 NA
ATOM     13  H   UNL     1      53.688  -0.323  20.246  0.00  0.00    +0.000 HD
BRANCH  12  14
ATOM     14  C   UNL     1      54.196  -1.682  18.851  0.00  0.00    +0.000 C 
ATOM     15  C   UNL     1      54.983  -2.947  19.169  0.00  0.00    +0.000 C 
ATOM     16  C   UNL     1      54.319  -3.467  20.426  0.00  0.00    +0.000 C 
ATOM     17  C   UNL     1      52.867  -3.055  20.254  0.00  0.00    +0.000 C 
ATOM     18  N   UNL     1      52.831  -2.052  19.180  0.00  0.00    +0.000 NA
ATOM     19  H   UNL     1      52.318  -1.233  19.491  0.00  0.00    +0.000 HD
ENDBRANCH  12  14
ENDBRANCH  11  12
ENDBRANCH   8  11
ENDBRANCH   5   8
ENDBRANCH   1   2
BRANCH   1  20
ATOM     20  N   UNL     1      48.979   4.750  16.523  0.00  0.00    +0.000 NA
ATOM     21  H   UNL     1      49.134   5.738  16.326  0.00  0.00    +0.000 HD
BRANCH  20  23
ATOM     22  C   UNL     1      47.003   3.421  17.298  0.00  0.00    +0.000 C 
ATOM     23  C   UNL     1      47.547   4.452  16.305  0.00  0.00    +0.000 C 
BRANCH  23  24
ATOM     24  C   UNL     1      47.250   4.064  14.837  0.00  0.00    +0.000 C 
ATOM     25  O   UNL     1      47.563   2.954  14.404  0.00  0.00    +0.000 OA
BRANCH  24  26
ATOM     26  C   UNL     1      46.500   5.005  13.987  0.00  0.00    +0.000 A 
ATOM     27  C   UNL     1      45.175   4.803  13.630  0.00  0.00    +0.000 A 
ATOM     28  S   UNL     1      44.573   6.026  12.598  0.00  0.00    +0.000 S 
ATOM     29  C   UNL     1      46.047   6.876  12.645  0.00  0.00    +0.000 A 
ATOM     30  N   UNL     1      46.188   8.059  11.998  0.00  0.00    +0.000 NA
ATOM     31  C   UNL     1      47.343   8.620  12.161  0.00  0.00    +0.000 A 
ATOM     32  N   UNL     1      48.388   8.106  12.901  0.00  0.00    +0.000 N 
ATOM     33  C   UNL     1      49.614   8.860  13.055  0.00  0.00    +0.000 C 
ATOM     34  C   UNL     1      48.284   6.888  13.576  0.00  0.00    +0.000 A 
ATOM     35  O   UNL     1      49.181   6.452  14.290  0.00  0.00    +0.000 OA
ATOM     36  C   UNL     1      46.995   6.230  13.415  0.00  0.00    +0.000 A 
ENDBRANCH  24  26
ENDBRANCH  23  24
ENDBRANCH  20  23
ENDBRANCH   1  20
TORSDOF 10
ENDMDL
MODEL 9
REMARK VINA RESULT:    -5.952      2.940      3.847
REMARK INTER + INTRA:         -10.730
REMARK INTER:                  -9.009
REMARK INTRA:                  -1.722
REMARK UNBOUND:                -1.473
REMARK  Name = 
REMARK  12 active torsions:
REMARK  status: ('A' for Active; 'I' for Inactive)
REMARK    1  A    between atoms: C_1  and  C_2
REMARK    2  A    between atoms: C_2  and  N_3
REMARK    3  A    between atoms: C_2  and  C_20
REMARK    4  A    between atoms: N_3  and  C_4
REMARK    5  A    between atoms: C_4  and  C_5
REMARK    6  A    between atoms: C_8  and  C_9
REMARK    7  A    between atoms: C_9  and  O_10
REMARK    8  A    between atoms: C_9  and  C_11
REMARK    9  A    between atoms: C_11  and  N_12
REMARK   10  A    between atoms: N_12  and  C_13
REMARK   11  A    between atoms: C_20  and  C_22
REMARK   12  A    between atoms: N_28  and  C_29
REMARK                            x       y       z     vdW  Elec       q    Type
REMARK                         _______ _______ _______ _____ _____    ______ ____
ROOT
ATOM      1  C   UNL     1      50.303   8.899  12.850  0.00  0.00    +0.000 C 
ENDROOT
BRANCH   1   2
ATOM      2  C   UNL     1      48.879   8.449  12.611  0.00  0.00    +0.000 A 
ATOM      3  C   UNL     1      48.575   7.090  12.446  0.00  0.00    +0.000 A 
ATOM      4  C   UNL     1      47.267   6.678  12.182  0.00  0.00    +0.000 A 
ATOM      5  C   UNL     1      46.231   7.615  12.086  0.00  0.00    +0.000 A 
ATOM      6  C   UNL     1      46.532   8.971  12.288  0.00  0.00    +0.000 A 
ATOM      7  C   UNL     1      47.840   9.385  12.545  0.00  0.00    +0.000 A 
BRANCH   5   8
ATOM      8  C   UNL     1      44.828   7.160  11.735  0.00  0.00    +0.000 C 
BRANCH   8   9
ATOM      9  O   UNL     1      44.827   6.469  10.481  0.00  0.00    +0.000 OA
ATOM     10  H   UNL     1      43.907   6.257  10.254  0.00  0.00    +0.000 HD
ENDBRANCH   8   9
BRANCH   8  11
ATOM     11  C   UNL     1      44.208   6.231  12.818  0.00  0.00    +0.000 C 
BRANCH  11  12
ATOM     12  N   UNL     1      43.162   5.286  12.380  0.00  0.00    +0.000 NA
ATOM     13  H   UNL     1      43.178   5.255  11.361  0.00  0.00    +0.000 HD
BRANCH  12  14
ATOM     14  C   UNL     1      43.372   3.938  12.870  0.00  0.00    +0.000 C 
ATOM     15  C   UNL     1      43.338   2.843  11.812  0.00  0.00    +0.000 C 
ATOM     16  C   UNL     1      44.681   2.975  11.126  0.00  0.00    +0.000 C 
ATOM     17  C   UNL     1      45.602   3.437  12.242  0.00  0.00    +0.000 C 
ATOM     18  N   UNL     1      44.745   3.895  13.344  0.00  0.00    +0.000 NA
ATOM     19  H   UNL     1      45.034   4.820  13.643  0.00  0.00    +0.000 HD
ENDBRANCH  12  14
ENDBRANCH  11  12
ENDBRANCH   8  11
ENDBRANCH   5   8
ENDBRANCH   1   2
BRANCH   1  20
ATOM     20  N   UNL     1      50.800   8.357  14.119  0.00  0.00    +0.000 NA
ATOM     21  H   UNL     1      50.501   7.385  14.191  0.00  0.00    +0.000 HD
BRANCH  20  23
ATOM     22  C   UNL     1      50.643  10.576  15.269  0.00  0.00    +0.000 C 
ATOM     23  C   UNL     1      50.326   9.079  15.320  0.00  0.00    +0.000 C 
BRANCH  23  24
ATOM     24  C   UNL     1      50.822   8.421  16.629  0.00  0.00    +0.000 C 
ATOM     25  O   UNL     1      52.027   8.290  16.851  0.00  0.00    +0.000 OA
BRANCH  24  26
ATOM     26  C   UNL     1      49.836   8.037  17.655  0.00  0.00    +0.000 A 
ATOM     27  C   UNL     1      49.618   8.782  18.803  0.00  0.00    +0.000 A 
ATOM     28  S   UNL     1      48.454   8.077  19.840  0.00  0.00    +0.000 S 
ATOM     29  C   UNL     1      48.180   6.793  18.757  0.00  0.00    +0.000 A 
ATOM     30  N   UNL     1      47.248   5.844  19.026  0.00  0.00    +0.000 NA
ATOM     31  C   UNL     1      47.109   4.957  18.094  0.00  0.00    +0.000 A 
ATOM     32  N   UNL     1      47.824   4.912  16.914  0.00  0.00    +0.000 N 
ATOM     33  C   UNL     1      47.533   3.899  15.923  0.00  0.00    +0.000 C 
ATOM     34  C   UNL     1      48.795   5.866  16.605  0.00  0.00    +0.000 A 
ATOM     35  O   UNL     1      49.391   5.876  15.532  0.00  0.00    +0.000 OA
ATOM     36  C   UNL     1      48.977   6.881  17.633  0.00  0.00    +0.000 A 
ENDBRANCH  24  26
ENDBRANCH  23  24
ENDBRANCH  20  23
ENDBRANCH   1  20
TORSDOF 10
ENDMDL
