MODEL 1
REMARK VINA RESULT:    -9.367      0.000      0.000
REMARK INTER + INTRA:         -12.484
REMARK INTER:                 -11.557
REMARK INTRA:                  -0.926
REMARK UNBOUND:                -0.926
REMARK  Name = 
REMARK  4 active torsions:
REMARK  status: ('A' for Active; 'I' for Inactive)
REMARK    1  A    between atoms: C_2  and  C_4
REMARK    2  A    between atoms: N_8  and  C_9
REMARK    3  A    between atoms: C_9  and  C_10
REMARK    4  A    between atoms: C_14  and  C_15
REMARK                            x       y       z     vdW  Elec       q    Type
REMARK                         _______ _______ _______ _____ _____    ______ ____
ROOT
ATOM      1  C   UNL     1      43.417   4.798  11.017  0.00  0.00    +0.000 C 
ENDROOT
BRANCH   1   6
ATOM      2  C   UNL     1      46.378   2.275   7.670  0.00  0.00    +0.000 A 
ATOM      3  C   UNL     1      45.624   1.775   8.721  0.00  0.00    +0.000 A 
ATOM      4  C   UNL     1      44.762   2.630   9.411  0.00  0.00    +0.000 A 
ATOM      5  C   UNL     1      44.688   3.971   9.055  0.00  0.00    +0.000 A 
ATOM      6  N   UNL     1      43.813   4.864   9.628  0.00  0.00    +0.000 N 
ATOM      7  N   UNL     1      45.421   4.470   8.040  0.00  0.00    +0.000 NA
ATOM      8  C   UNL     1      46.254   3.625   7.376  0.00  0.00    +0.000 A 
ATOM      9  H   UNL     1      44.023   5.789   9.268  0.00  0.00    +0.000 HD
BRANCH   2  11
ATOM     10  N   UNL     1      48.439   2.044   6.409  0.00  0.00    +0.000 N 
ATOM     11  C   UNL     1      47.299   1.443   6.867  0.00  0.00    +0.000 C 
ATOM     12  O   UNL     1      47.072   0.264   6.643  0.00  0.00    +0.000 OA
ATOM     13  H   UNL     1      49.105   1.442   5.943  0.00  0.00    +0.000 HD
ATOM     14  H   UNL     1      48.786   2.917   6.782  0.00  0.00    +0.000 HD
ENDBRANCH   2  11
ENDBRANCH   1   6
BRANCH   1  15
ATOM     15  C   UNL     1      44.538   5.116  11.980  0.00  0.00    +0.000 A 
ATOM     16  C   UNL     1      45.018   4.151  12.872  0.00  0.00    +0.000 A 
ATOM     17  C   UNL     1      46.142   4.412  13.652  0.00  0.00    +0.000 A 
ATOM     18  C   UNL     1      46.816   5.631  13.530  0.00  0.00    +0.000 A 
ATOM     19  C   UNL     1      46.383   6.619  12.628  0.00  0.00    +0.000 A 
ATOM     20  C   UNL     1      45.213   6.348  11.889  0.00  0.00    +0.000 A 
BRANCH  19  21
ATOM     21  C   UNL     1      47.182   7.838  12.360  0.00  0.00    +0.000 A 
ATOM     22  C   UNL     1      48.526   7.745  11.954  0.00  0.00    +0.000 A 
ATOM     23  C   UNL     1      49.244   8.878  11.571  0.00  0.00    +0.000 A 
ATOM     24  F   UNL     1      50.513   8.741  11.162  0.00  0.00    +0.000 F 
ATOM     25  C   UNL     1      48.661  10.133  11.578  0.00  0.00    +0.000 A 
ATOM     26  C   UNL     1      47.347  10.245  12.002  0.00  0.00    +0.000 A 
ATOM     27  F   UNL     1      46.759  11.448  12.004  0.00  0.00    +0.000 F 
ATOM     28  C   UNL     1      46.615   9.125  12.402  0.00  0.00    +0.000 A 
ENDBRANCH  19  21
ENDBRANCH   1  15
TORSDOF 4
ENDMDL
MODEL 2
REMARK VINA RESULT:    -8.464      3.141      4.431
REMARK INTER + INTRA:         -11.369
REMARK INTER:                 -10.581
REMARK INTRA:                  -0.788
REMARK UNBOUND:                -0.926
REMARK  Name = 
REMARK  4 active torsions:
REMARK  status: ('A' for Active; 'I' for Inactive)
REMARK    1  A    between atoms: C_2  and  C_4
REMARK    2  A    between atoms: N_8  and  C_9
REMARK    3  A    between atoms: C_9  and  C_10
REMARK    4  A    between atoms: C_14  and  C_15
REMARK                            x       y       z     vdW  Elec       q    Type
REMARK                         _______ _______ _______ _____ _____    ______ ____
ROOT
ATOM      1  C   UNL     1      44.728   5.319  11.376  0.00  0.00    +0.000 C 
ENDROOT
BRANCH   1   6
ATOM      2  C   UNL     1      46.598   2.457   7.549  0.00  0.00    +0.000 A 
ATOM      3  C   UNL     1      46.044   2.052   8.753  0.00  0.00    +0.000 A 
ATOM      4  C   UNL     1      45.450   3.002   9.587  0.00  0.00    +0.000 A 
ATOM      5  C   UNL     1      45.442   4.340   9.212  0.00  0.00    +0.000 A 
ATOM      6  N   UNL     1      44.814   5.329   9.933  0.00  0.00    +0.000 N 
ATOM      7  N   UNL     1      45.984   4.747   8.047  0.00  0.00    +0.000 NA
ATOM      8  C   UNL     1      46.557   3.810   7.246  0.00  0.00    +0.000 A 
ATOM      9  H   UNL     1      45.037   6.223   9.507  0.00  0.00    +0.000 HD
BRANCH   2  11
ATOM     10  N   UNL     1      48.196   2.032   5.771  0.00  0.00    +0.000 N 
ATOM     11  C   UNL     1      47.227   1.522   6.591  0.00  0.00    +0.000 C 
ATOM     12  O   UNL     1      46.921   0.341   6.549  0.00  0.00    +0.000 OA
ATOM     13  H   UNL     1      48.684   1.364   5.189  0.00  0.00    +0.000 HD
ATOM     14  H   UNL     1      48.654   2.915   5.948  0.00  0.00    +0.000 HD
ENDBRANCH   2  11
ENDBRANCH   1   6
BRANCH   1  15
ATOM     15  C   UNL     1      45.986   5.802  12.059  0.00  0.00    +0.000 A 
ATOM     16  C   UNL     1      46.663   6.939  11.605  0.00  0.00    +0.000 A 
ATOM     17  C   UNL     1      47.737   7.454  12.327  0.00  0.00    +0.000 A 
ATOM     18  C   UNL     1      48.130   6.853  13.527  0.00  0.00    +0.000 A 
ATOM     19  C   UNL     1      47.462   5.725  14.033  0.00  0.00    +0.000 A 
ATOM     20  C   UNL     1      46.413   5.195  13.256  0.00  0.00    +0.000 A 
BRANCH  19  21
ATOM     21  C   UNL     1      47.752   5.184  15.383  0.00  0.00    +0.000 A 
ATOM     22  C   UNL     1      48.571   5.892  16.282  0.00  0.00    +0.000 A 
ATOM     23  C   UNL     1      48.741   5.459  17.597  0.00  0.00    +0.000 A 
ATOM     24  F   UNL     1      49.506   6.178  18.429  0.00  0.00    +0.000 F 
ATOM     25  C   UNL     1      48.110   4.320  18.064  0.00  0.00    +0.000 A 
ATOM     26  C   UNL     1      47.322   3.596  17.183  0.00  0.00    +0.000 A 
ATOM     27  F   UNL     1      46.692   2.497  17.617  0.00  0.00    +0.000 F 
ATOM     28  C   UNL     1      47.150   4.005  15.859  0.00  0.00    +0.000 A 
ENDBRANCH  19  21
ENDBRANCH   1  15
TORSDOF 4
ENDMDL
MODEL 3
REMARK VINA RESULT:    -8.059      5.212      8.177
REMARK INTER + INTRA:         -10.870
REMARK INTER:                 -10.349
REMARK INTRA:                  -0.521
REMARK UNBOUND:                -0.926
REMARK  Name = 
REMARK  4 active torsions:
REMARK  status: ('A' for Active; 'I' for Inactive)
REMARK    1  A    between atoms: C_2  and  C_4
REMARK    2  A    between atoms: N_8  and  C_9
REMARK    3  A    between atoms: C_9  and  C_10
REMARK    4  A    between atoms: C_14  and  C_15
REMARK                            x       y       z     vdW  Elec       q    Type
REMARK                         _______ _______ _______ _____ _____    ______ ____
ROOT
ATOM      1  C   UNL     1      46.128   5.413  13.615  0.00  0.00    +0.000 C 
ENDROOT
BRANCH   1   6
ATOM      2  C   UNL     1      49.385   4.161  17.379  0.00  0.00    +0.000 A 
ATOM      3  C   UNL     1      49.086   5.412  16.861  0.00  0.00    +0.000 A 
ATOM      4  C   UNL     1      48.045   5.540  15.940  0.00  0.00    +0.000 A 
ATOM      5  C   UNL     1      47.339   4.413  15.535  0.00  0.00    +0.000 A 
ATOM      6  N   UNL     1      46.252   4.457  14.693  0.00  0.00    +0.000 N 
ATOM      7  N   UNL     1      47.625   3.191  16.026  0.00  0.00    +0.000 NA
ATOM      8  C   UNL     1      48.640   3.083  16.923  0.00  0.00    +0.000 A 
ATOM      9  H   UNL     1      45.980   3.504  14.476  0.00  0.00    +0.000 HD
BRANCH   2  11
ATOM     10  N   UNL     1      50.191   4.305  19.664  0.00  0.00    +0.000 N 
ATOM     11  C   UNL     1      50.453   3.931  18.375  0.00  0.00    +0.000 C 
ATOM     12  O   UNL     1      51.512   3.404  18.073  0.00  0.00    +0.000 OA
ATOM     13  H   UNL     1      50.889   4.056  20.351  0.00  0.00    +0.000 HD
ATOM     14  H   UNL     1      49.257   4.496  20.000  0.00  0.00    +0.000 HD
ENDBRANCH   2  11
ENDBRANCH   1   6
BRANCH   1  15
ATOM     15  C   UNL     1      45.144   4.995  12.548  0.00  0.00    +0.000 A 
ATOM     16  C   UNL     1      43.840   5.502  12.530  0.00  0.00    +0.000 A 
ATOM     17  C   UNL     1      42.990   5.218  11.463  0.00  0.00    +0.000 A 
ATOM     18  C   UNL     1      43.442   4.446  10.389  0.00  0.00    +0.000 A 
ATOM     19  C   UNL     1      44.752   3.938  10.354  0.00  0.00    +0.000 A 
ATOM     20  C   UNL     1      45.573   4.197  11.470  0.00  0.00    +0.000 A 
BRANCH  19  21
ATOM     21  C   UNL     1      45.301   3.270   9.150  0.00  0.00    +0.000 A 
ATOM     22  C   UNL     1      45.746   4.022   8.047  0.00  0.00    +0.000 A 
ATOM     23  C   UNL     1      46.385   3.413   6.968  0.00  0.00    +0.000 A 
ATOM     24  F   UNL     1      46.820   4.170   5.952  0.00  0.00    +0.000 F 
ATOM     25  C   UNL     1      46.604   2.047   6.943  0.00  0.00    +0.000 A 
ATOM     26  C   UNL     1      46.147   1.288   8.008  0.00  0.00    +0.000 A 
ATOM     27  F   UNL     1      46.359  -0.034   8.011  0.00  0.00    +0.000 F 
ATOM     28  C   UNL     1      45.493   1.877   9.092  0.00  0.00    +0.000 A 
ENDBRANCH  19  21
ENDBRANCH   1  15
TORSDOF 4
ENDMDL
MODEL 4
REMARK VINA RESULT:    -8.024      4.426      7.567
REMARK INTER + INTRA:         -10.827
REMARK INTER:                 -10.559
REMARK INTRA:                  -0.268
REMARK UNBOUND:                -0.926
REMARK  Name = 
REMARK  4 active torsions:
REMARK  status: ('A' for Active; 'I' for Inactive)
REMARK    1  A    between atoms: C_2  and  C_4
REMARK    2  A    between atoms: N_8  and  C_9
REMARK    3  A    between atoms: C_9  and  C_10
REMARK    4  A    between atoms: C_14  and  C_15
REMARK                            x       y       z     vdW  Elec       q    Type
REMARK                         _______ _______ _______ _____ _____    ______ ____
ROOT
ATOM      1  C   UNL     1      45.409   7.021  11.482  0.00  0.00    +0.000 C 
ENDROOT
BRANCH   1   6
ATOM      2  C   UNL     1      47.818   5.111  15.591  0.00  0.00    +0.000 A 
ATOM      3  C   UNL     1      46.779   4.564  14.853  0.00  0.00    +0.000 A 
ATOM      4  C   UNL     1      46.379   5.187  13.669  0.00  0.00    +0.000 A 
ATOM      5  C   UNL     1      47.006   6.357  13.259  0.00  0.00    +0.000 A 
ATOM      6  N   UNL     1      46.729   6.994  12.072  0.00  0.00    +0.000 N 
ATOM      7  N   UNL     1      48.012   6.902  13.971  0.00  0.00    +0.000 NA
ATOM      8  C   UNL     1      48.392   6.283  15.120  0.00  0.00    +0.000 A 
ATOM      9  H   UNL     1      47.244   7.868  12.052  0.00  0.00    +0.000 HD
BRANCH   2  11
ATOM     10  N   UNL     1      47.412   4.267  17.831  0.00  0.00    +0.000 N 
ATOM     11  C   UNL     1      48.326   4.511  16.843  0.00  0.00    +0.000 C 
ATOM     12  O   UNL     1      49.503   4.216  16.984  0.00  0.00    +0.000 OA
ATOM     13  H   UNL     1      47.755   3.771  18.642  0.00  0.00    +0.000 HD
ATOM     14  H   UNL     1      46.416   4.251  17.664  0.00  0.00    +0.000 HD
ENDBRANCH   2  11
ENDBRANCH   1   6
BRANCH   1  15
ATOM     15  C   UNL     1      44.869   5.650  11.148  0.00  0.00    +0.000 A 
ATOM     16  C   UNL     1      43.648   5.209  11.670  0.00  0.00    +0.000 A 
ATOM     17  C   UNL     1      43.096   4.003  11.244  0.00  0.00    +0.000 A 
ATOM     18  C   UNL     1      43.744   3.238  10.271  0.00  0.00    +0.000 A 
ATOM     19  C   UNL     1      44.959   3.656   9.701  0.00  0.00    +0.000 A 
ATOM     20  C   UNL     1      45.521   4.853  10.189  0.00  0.00    +0.000 A 
BRANCH  19  21
ATOM     21  C   UNL     1      45.568   2.948   8.549  0.00  0.00    +0.000 A 
ATOM     22  C   UNL     1      45.924   3.647   7.381  0.00  0.00    +0.000 A 
ATOM     23  C   UNL     1      46.618   3.018   6.347  0.00  0.00    +0.000 A 
ATOM     24  F   UNL     1      46.964   3.727   5.264  0.00  0.00    +0.000 F 
ATOM     25  C   UNL     1      46.980   1.685   6.434  0.00  0.00    +0.000 A 
ATOM     26  C   UNL     1      46.612   0.976   7.566  0.00  0.00    +0.000 A 
ATOM     27  F   UNL     1      46.964  -0.312   7.677  0.00  0.00    +0.000 F 
ATOM     28  C   UNL     1      45.906   1.584   8.606  0.00  0.00    +0.000 A 
ENDBRANCH  19  21
ENDBRANCH   1  15
TORSDOF 4
ENDMDL
MODEL 5
REMARK VINA RESULT:    -7.950      4.328      7.360
REMARK INTER + INTRA:         -10.735
REMARK INTER:                  -9.939
REMARK INTRA:                  -0.796
REMARK UNBOUND:                -0.926
REMARK  Name = 
REMARK  4 active torsions:
REMARK  status: ('A' for Active; 'I' for Inactive)
REMARK    1  A    between atoms: C_2  and  C_4
REMARK    2  A    between atoms: N_8  and  C_9
REMARK    3  A    between atoms: C_9  and  C_10
REMARK    4  A    between atoms: C_14  and  C_15
REMARK                            x       y       z     vdW  Elec       q    Type
REMARK                         _______ _______ _______ _____ _____    ______ ____
ROOT
ATOM      1  C   UNL     1      44.619   6.965  11.569  0.00  0.00    +0.000 C 
ENDROOT
BRANCH   1   6
ATOM      2  C   UNL     1      49.485   7.860  12.932  0.00  0.00    +0.000 A 
ATOM      3  C   UNL     1      48.831   8.192  11.756  0.00  0.00    +0.000 A 
ATOM      4  C   UNL     1      47.453   7.991  11.659  0.00  0.00    +0.000 A 
ATOM      5  C   UNL     1      46.759   7.440  12.729  0.00  0.00    +0.000 A 
ATOM      6  N   UNL     1      45.393   7.278  12.750  0.00  0.00    +0.000 N 
ATOM      7  N   UNL     1      47.385   7.106  13.876  0.00  0.00    +0.000 NA
ATOM      8  C   UNL     1      48.726   7.310  13.955  0.00  0.00    +0.000 A 
ATOM      9  H   UNL     1      45.146   6.769  13.592  0.00  0.00    +0.000 HD
BRANCH   2  11
ATOM     10  N   UNL     1      51.749   7.858  12.054  0.00  0.00    +0.000 N 
ATOM     11  C   UNL     1      50.936   8.058  13.136  0.00  0.00    +0.000 C 
ATOM     12  O   UNL     1      51.392   8.412  14.212  0.00  0.00    +0.000 OA
ATOM     13  H   UNL     1      52.725   8.088  12.182  0.00  0.00    +0.000 HD
ATOM     14  H   UNL     1      51.400   7.822  11.107  0.00  0.00    +0.000 HD
ENDBRANCH   2  11
ENDBRANCH   1   6
BRANCH   1  15
ATOM     15  C   UNL     1      44.440   5.482  11.341  0.00  0.00    +0.000 A 
ATOM     16  C   UNL     1      43.466   4.757  12.036  0.00  0.00    +0.000 A 
ATOM     17  C   UNL     1      43.218   3.425  11.715  0.00  0.00    +0.000 A 
ATOM     18  C   UNL     1      43.922   2.809  10.676  0.00  0.00    +0.000 A 
ATOM     19  C   UNL     1      44.891   3.507   9.934  0.00  0.00    +0.000 A 
ATOM     20  C   UNL     1      45.158   4.838  10.316  0.00  0.00    +0.000 A 
BRANCH  19  21
ATOM     21  C   UNL     1      45.518   2.927   8.723  0.00  0.00    +0.000 A 
ATOM     22  C   UNL     1      45.853   3.740   7.625  0.00  0.00    +0.000 A 
ATOM     23  C   UNL     1      46.563   3.229   6.539  0.00  0.00    +0.000 A 
ATOM     24  F   UNL     1      46.888   4.045   5.527  0.00  0.00    +0.000 F 
ATOM     25  C   UNL     1      46.963   1.905   6.502  0.00  0.00    +0.000 A 
ATOM     26  C   UNL     1      46.616   1.084   7.563  0.00  0.00    +0.000 A 
ATOM     27  F   UNL     1      47.003  -0.198   7.554  0.00  0.00    +0.000 F 
ATOM     28  C   UNL     1      45.894   1.573   8.653  0.00  0.00    +0.000 A 
ENDBRANCH  19  21
ENDBRANCH   1  15
TORSDOF 4
ENDMDL
MODEL 6
REMARK VINA RESULT:    -7.932      4.318      7.391
REMARK INTER + INTRA:         -10.713
REMARK INTER:                 -10.077
REMARK INTRA:                  -0.636
REMARK UNBOUND:                -0.926
REMARK  Name = 
REMARK  4 active torsions:
REMARK  status: ('A' for Active; 'I' for Inactive)
REMARK    1  A    between atoms: C_2  and  C_4
REMARK    2  A    between atoms: N_8  and  C_9
REMARK    3  A    between atoms: C_9  and  C_10
REMARK    4  A    between atoms: C_14  and  C_15
REMARK                            x       y       z     vdW  Elec       q    Type
REMARK                         _______ _______ _______ _____ _____    ______ ____
ROOT
ATOM      1  C   UNL     1      44.226   6.700  11.401  0.00  0.00    +0.000 C 
ENDROOT
BRANCH   1   6
ATOM      2  C   UNL     1      48.654   7.199  13.948  0.00  0.00    +0.000 A 
ATOM      3  C   UNL     1      47.765   6.135  13.939  0.00  0.00    +0.000 A 
ATOM      4  C   UNL     1      46.693   6.146  13.045  0.00  0.00    +0.000 A 
ATOM      5  C   UNL     1      46.515   7.231  12.194  0.00  0.00    +0.000 A 
ATOM      6  N   UNL     1      45.535   7.291  11.232  0.00  0.00    +0.000 N 
ATOM      7  N   UNL     1      47.369   8.274  12.198  0.00  0.00    +0.000 NA
ATOM      8  C   UNL     1      48.409   8.247  13.073  0.00  0.00    +0.000 A 
ATOM      9  H   UNL     1      45.555   8.216  10.816  0.00  0.00    +0.000 HD
BRANCH   2  11
ATOM     10  N   UNL     1      50.672   8.330  14.682  0.00  0.00    +0.000 N 
ATOM     11  C   UNL     1      49.830   7.264  14.842  0.00  0.00    +0.000 C 
ATOM     12  O   UNL     1      50.030   6.424  15.705  0.00  0.00    +0.000 OA
ATOM     13  H   UNL     1      51.418   8.414  15.360  0.00  0.00    +0.000 HD
ATOM     14  H   UNL     1      50.411   9.163  14.174  0.00  0.00    +0.000 HD
ENDBRANCH   2  11
ENDBRANCH   1   6
BRANCH   1  15
ATOM     15  C   UNL     1      44.213   5.201  11.212  0.00  0.00    +0.000 A 
ATOM     16  C   UNL     1      43.348   4.387  11.952  0.00  0.00    +0.000 A 
ATOM     17  C   UNL     1      43.246   3.027  11.667  0.00  0.00    +0.000 A 
ATOM     18  C   UNL     1      43.989   2.469  10.623  0.00  0.00    +0.000 A 
ATOM     19  C   UNL     1      44.851   3.254   9.839  0.00  0.00    +0.000 A 
ATOM     20  C   UNL     1      44.974   4.616  10.182  0.00  0.00    +0.000 A 
BRANCH  19  21
ATOM     21  C   UNL     1      45.510   2.718   8.624  0.00  0.00    +0.000 A 
ATOM     22  C   UNL     1      45.866   3.570   7.562  0.00  0.00    +0.000 A 
ATOM     23  C   UNL     1      46.604   3.099   6.476  0.00  0.00    +0.000 A 
ATOM     24  F   UNL     1      46.948   3.950   5.500  0.00  0.00    +0.000 F 
ATOM     25  C   UNL     1      47.012   1.779   6.404  0.00  0.00    +0.000 A 
ATOM     26  C   UNL     1      46.645   0.921   7.428  0.00  0.00    +0.000 A 
ATOM     27  F   UNL     1      47.040  -0.359   7.386  0.00  0.00    +0.000 F 
ATOM     28  C   UNL     1      45.895   1.369   8.518  0.00  0.00    +0.000 A 
ENDBRANCH  19  21
ENDBRANCH   1  15
TORSDOF 4
ENDMDL
MODEL 7
REMARK VINA RESULT:    -7.756      4.207      7.496
REMARK INTER + INTRA:         -10.496
REMARK INTER:                  -9.667
REMARK INTRA:                  -0.830
REMARK UNBOUND:                -0.926
REMARK  Name = 
REMARK  4 active torsions:
REMARK  status: ('A' for Active; 'I' for Inactive)
REMARK    1  A    between atoms: C_2  and  C_4
REMARK    2  A    between atoms: N_8  and  C_9
REMARK    3  A    between atoms: C_9  and  C_10
REMARK    4  A    between atoms: C_14  and  C_15
REMARK                            x       y       z     vdW  Elec       q    Type
REMARK                         _______ _______ _______ _____ _____    ______ ____
ROOT
ATOM      1  C   UNL     1      45.957   4.453  13.498  0.00  0.00    +0.000 C 
ENDROOT
BRANCH   1   6
ATOM      2  C   UNL     1      47.631   9.127  12.197  0.00  0.00    +0.000 A 
ATOM      3  C   UNL     1      46.524   8.774  12.952  0.00  0.00    +0.000 A 
ATOM      4  C   UNL     1      46.343   7.438  13.319  0.00  0.00    +0.000 A 
ATOM      5  C   UNL     1      47.259   6.479  12.904  0.00  0.00    +0.000 A 
ATOM      6  N   UNL     1      47.201   5.158  13.281  0.00  0.00    +0.000 N 
ATOM      7  N   UNL     1      48.336   6.810  12.164  0.00  0.00    +0.000 NA
ATOM      8  C   UNL     1      48.499   8.114  11.817  0.00  0.00    +0.000 A 
ATOM      9  H   UNL     1      47.918   4.650  12.772  0.00  0.00    +0.000 HD
BRANCH   2  11
ATOM     10  N   UNL     1      47.323  11.516  12.501  0.00  0.00    +0.000 N 
ATOM     11  C   UNL     1      47.919  10.517  11.782  0.00  0.00    +0.000 C 
ATOM     12  O   UNL     1      48.676  10.768  10.857  0.00  0.00    +0.000 OA
ATOM     13  H   UNL     1      47.601  12.460  12.268  0.00  0.00    +0.000 HD
ATOM     14  H   UNL     1      46.911  11.365  13.411  0.00  0.00    +0.000 HD
ENDBRANCH   2  11
ENDBRANCH   1   6
BRANCH   1  15
ATOM     15  C   UNL     1      45.102   4.344  12.257  0.00  0.00    +0.000 A 
ATOM     16  C   UNL     1      43.939   5.107  12.112  0.00  0.00    +0.000 A 
ATOM     17  C   UNL     1      43.240   5.102  10.907  0.00  0.00    +0.000 A 
ATOM     18  C   UNL     1      43.710   4.353   9.825  0.00  0.00    +0.000 A 
ATOM     19  C   UNL     1      44.888   3.592   9.918  0.00  0.00    +0.000 A 
ATOM     20  C   UNL     1      45.546   3.575  11.164  0.00  0.00    +0.000 A 
BRANCH  19  21
ATOM     21  C   UNL     1      45.491   2.936   8.734  0.00  0.00    +0.000 A 
ATOM     22  C   UNL     1      45.865   3.689   7.605  0.00  0.00    +0.000 A 
ATOM     23  C   UNL     1      46.554   3.104   6.543  0.00  0.00    +0.000 A 
ATOM     24  F   UNL     1      46.916   3.863   5.500  0.00  0.00    +0.000 F 
ATOM     25  C   UNL     1      46.896   1.764   6.562  0.00  0.00    +0.000 A 
ATOM     26  C   UNL     1      46.511   1.002   7.653  0.00  0.00    +0.000 A 
ATOM     27  F   UNL     1      46.842  -0.295   7.699  0.00  0.00    +0.000 F 
ATOM     28  C   UNL     1      45.809   1.566   8.721  0.00  0.00    +0.000 A 
ENDBRANCH  19  21
ENDBRANCH   1  15
TORSDOF 4
ENDMDL
MODEL 8
REMARK VINA RESULT:    -7.677      5.229      8.102
REMARK INTER + INTRA:         -10.399
REMARK INTER:                  -9.858
REMARK INTRA:                  -0.540
REMARK UNBOUND:                -0.926
REMARK  Name = 
REMARK  4 active torsions:
REMARK  status: ('A' for Active; 'I' for Inactive)
REMARK    1  A    between atoms: C_2  and  C_4
REMARK    2  A    between atoms: N_8  and  C_9
REMARK    3  A    between atoms: C_9  and  C_10
REMARK    4  A    between atoms: C_14  and  C_15
REMARK                            x       y       z     vdW  Elec       q    Type
REMARK                         _______ _______ _______ _____ _____    ______ ____
ROOT
ATOM      1  C   UNL     1      45.979   5.161  13.282  0.00  0.00    +0.000 C 
ENDROOT
BRANCH   1   6
ATOM      2  C   UNL     1      49.033   3.800  17.175  0.00  0.00    +0.000 A 
ATOM      3  C   UNL     1      48.464   5.034  16.900  0.00  0.00    +0.000 A 
ATOM      4  C   UNL     1      47.531   5.142  15.867  0.00  0.00    +0.000 A 
ATOM      5  C   UNL     1      47.203   4.021  15.113  0.00  0.00    +0.000 A 
ATOM      6  N   UNL     1      46.241   4.019  14.130  0.00  0.00    +0.000 N 
ATOM      7  N   UNL     1      47.755   2.818  15.367  0.00  0.00    +0.000 NA
ATOM      8  C   UNL     1      48.660   2.729  16.377  0.00  0.00    +0.000 A 
ATOM      9  H   UNL     1      46.261   3.116  13.668  0.00  0.00    +0.000 HD
BRANCH   2  11
ATOM     10  N   UNL     1      50.858   2.518  18.133  0.00  0.00    +0.000 N 
ATOM     11  C   UNL     1      50.011   3.584  18.263  0.00  0.00    +0.000 C 
ATOM     12  O   UNL     1      50.084   4.336  19.222  0.00  0.00    +0.000 OA
ATOM     13  H   UNL     1      51.582   2.436  18.834  0.00  0.00    +0.000 HD
ATOM     14  H   UNL     1      51.005   2.039  17.256  0.00  0.00    +0.000 HD
ENDBRANCH   2  11
ENDBRANCH   1   6
BRANCH   1  15
ATOM     15  C   UNL     1      45.157   4.826  12.058  0.00  0.00    +0.000 A 
ATOM     16  C   UNL     1      43.921   5.440  11.829  0.00  0.00    +0.000 A 
ATOM     17  C   UNL     1      43.242   5.229  10.631  0.00  0.00    +0.000 A 
ATOM     18  C   UNL     1      43.804   4.423   9.637  0.00  0.00    +0.000 A 
ATOM     19  C   UNL     1      45.055   3.807   9.815  0.00  0.00    +0.000 A 
ATOM     20  C   UNL     1      45.695   3.996  11.057  0.00  0.00    +0.000 A 
BRANCH  19  21
ATOM     21  C   UNL     1      45.741   3.096   8.710  0.00  0.00    +0.000 A 
ATOM     22  C   UNL     1      45.955   1.706   8.771  0.00  0.00    +0.000 A 
ATOM     23  C   UNL     1      46.478   1.009   7.682  0.00  0.00    +0.000 A 
ATOM     24  F   UNL     1      46.638  -0.319   7.771  0.00  0.00    +0.000 F 
ATOM     25  C   UNL     1      46.804   1.657   6.504  0.00  0.00    +0.000 A 
ATOM     26  C   UNL     1      46.625   3.029   6.438  0.00  0.00    +0.000 A 
ATOM     27  F   UNL     1      46.922   3.676   5.304  0.00  0.00    +0.000 F 
ATOM     28  C   UNL     1      46.116   3.749   7.521  0.00  0.00    +0.000 A 
ENDBRANCH  19  21
ENDBRANCH   1  15
TORSDOF 4
ENDMDL
MODEL 9
REMARK VINA RESULT:    -7.296      2.107      3.015
REMARK INTER + INTRA:          -9.928
REMARK INTER:                  -9.244
REMARK INTRA:                  -0.684
REMARK UNBOUND:                -0.926
REMARK  Name = 
REMARK  4 active torsions:
REMARK  status: ('A' for Active; 'I' for Inactive)
REMARK    1  A    between atoms: C_2  and  C_4
REMARK    2  A    between atoms: N_8  and  C_9
REMARK    3  A    between atoms: C_9  and  C_10
REMARK    4  A    between atoms: C_14  and  C_15
REMARK                            x       y       z     vdW  Elec       q    Type
REMARK                         _______ _______ _______ _____ _____    ______ ____
ROOT
ATOM      1  C   UNL     1      44.083   5.492  11.051  0.00  0.00    +0.000 C 
ENDROOT
BRANCH   1   6
ATOM      2  C   UNL     1      46.355   2.164   7.873  0.00  0.00    +0.000 A 
ATOM      3  C   UNL     1      45.761   1.932   9.104  0.00  0.00    +0.000 A 
ATOM      4  C   UNL     1      45.059   2.963   9.730  0.00  0.00    +0.000 A 
ATOM      5  C   UNL     1      44.984   4.213   9.127  0.00  0.00    +0.000 A 
ATOM      6  N   UNL     1      44.251   5.260   9.633  0.00  0.00    +0.000 N 
ATOM      7  N   UNL     1      45.563   4.452   7.933  0.00  0.00    +0.000 NA
ATOM      8  C   UNL     1      46.241   3.437   7.336  0.00  0.00    +0.000 A 
ATOM      9  H   UNL     1      44.437   6.082   9.067  0.00  0.00    +0.000 HD
BRANCH   2  11
ATOM     10  N   UNL     1      48.051   1.562   6.243  0.00  0.00    +0.000 N 
ATOM     11  C   UNL     1      47.099   1.128   7.124  0.00  0.00    +0.000 C 
ATOM     12  O   UNL     1      46.898  -0.063   7.301  0.00  0.00    +0.000 OA
ATOM     13  H   UNL     1      48.616   0.846   5.809  0.00  0.00    +0.000 HD
ATOM     14  H   UNL     1      48.423   2.502   6.258  0.00  0.00    +0.000 HD
ENDBRANCH   2  11
ENDBRANCH   1   6
BRANCH   1  15
ATOM     15  C   UNL     1      44.871   6.674  11.566  0.00  0.00    +0.000 A 
ATOM     16  C   UNL     1      44.340   7.968  11.528  0.00  0.00    +0.000 A 
ATOM     17  C   UNL     1      45.017   9.024  12.134  0.00  0.00    +0.000 A 
ATOM     18  C   UNL     1      46.220   8.794  12.808  0.00  0.00    +0.000 A 
ATOM     19  C   UNL     1      46.776   7.506  12.893  0.00  0.00    +0.000 A 
ATOM     20  C   UNL     1      46.097   6.466  12.226  0.00  0.00    +0.000 A 
BRANCH  19  21
ATOM     21  C   UNL     1      47.952   7.216  13.747  0.00  0.00    +0.000 A 
ATOM     22  C   UNL     1      49.171   7.892  13.549  0.00  0.00    +0.000 A 
ATOM     23  C   UNL     1      50.240   7.724  14.429  0.00  0.00    +0.000 A 
ATOM     24  F   UNL     1      51.372   8.409  14.221  0.00  0.00    +0.000 F 
ATOM     25  C   UNL     1      50.140   6.889  15.528  0.00  0.00    +0.000 A 
ATOM     26  C   UNL     1      48.957   6.195  15.721  0.00  0.00    +0.000 A 
ATOM     27  F   UNL     1      48.834   5.391  16.785  0.00  0.00    +0.000 F 
ATOM     28  C   UNL     1      47.880   6.338  14.844  0.00  0.00    +0.000 A 
ENDBRANCH  19  21
ENDBRANCH   1  15
TORSDOF 4
ENDMDL
