MODEL 1
REMARK VINA RESULT:    -8.019      0.000      0.000
REMARK INTER + INTRA:         -11.080
REMARK INTER:                 -10.831
REMARK INTRA:                  -0.249
REMARK UNBOUND:                -0.249
REMARK  Name = 
REMARK  8 active torsions:
REMARK  status: ('A' for Active; 'I' for Inactive)
REMARK    1  A    between atoms: C_1  and  C_2
REMARK    2  A    between atoms: C_2  and  N_3
REMARK    3  A    between atoms: C_2  and  C_4
REMARK    4  A    between atoms: C_4  and  C_5
REMARK    5  A    between atoms: C_8  and  C_9
REMARK    6  A    between atoms: C_9  and  N_10
REMARK    7  A    between atoms: C_15  and  C_16
REMARK    8  A    between atoms: C_16  and  O_18
REMARK                            x       y       z     vdW  Elec       q    Type
REMARK                         _______ _______ _______ _____ _____    ______ ____
ROOT
ATOM      1  C   UNL     1      45.189   6.190  10.695  0.00  0.00    +0.000 C 
ENDROOT
BRANCH   1   2
ATOM      2  N   UNL     1      44.812   4.820  10.381  0.00  0.00    +0.000 N 
ATOM      3  C   UNL     1      44.352   3.912  11.295  0.00  0.00    +0.000 A 
ATOM      4  C   UNL     1      43.913   2.836  10.560  0.00  0.00    +0.000 A 
ATOM      5  C   UNL     1      44.857   2.778   9.516  0.00  0.00    +0.000 A 
ATOM      6  C   UNL     1      45.482   1.732   8.807  0.00  0.00    +0.000 A 
ATOM      7  C   UNL     1      46.385   2.087   7.791  0.00  0.00    +0.000 A 
ATOM      8  C   UNL     1      46.482   3.425   7.366  0.00  0.00    +0.000 A 
ATOM      9  C   UNL     1      45.884   4.456   8.085  0.00  0.00    +0.000 A 
ATOM     10  C   UNL     1      45.217   4.102   9.267  0.00  0.00    +0.000 A 
BRANCH   7  11
ATOM     11  C   UNL     1      47.250   1.068   7.190  0.00  0.00    +0.000 C 
ATOM     12  O   UNL     1      48.138   1.330   6.392  0.00  0.00    +0.000 OA
BRANCH  11  13
ATOM     13  O   UNL     1      47.053  -0.170   7.705  0.00  0.00    +0.000 OA
ATOM     14  H   UNL     1      46.482  -0.183   8.503  0.00  0.00    +0.000 HD
ENDBRANCH  11  13
ENDBRANCH   7  11
ENDBRANCH   1   2
BRANCH   1  18
ATOM     15  C   UNL     1      48.151   6.589  13.857  0.00  0.00    +0.000 A 
ATOM     16  C   UNL     1      48.355   7.197  12.612  0.00  0.00    +0.000 A 
ATOM     17  C   UNL     1      47.407   7.057  11.585  0.00  0.00    +0.000 A 
ATOM     18  C   UNL     1      46.238   6.300  11.769  0.00  0.00    +0.000 A 
ATOM     19  C   UNL     1      46.045   5.687  13.014  0.00  0.00    +0.000 A 
ATOM     20  C   UNL     1      46.986   5.827  14.037  0.00  0.00    +0.000 A 
BRANCH  15  21
ATOM     21  C   UNL     1      49.167   6.628  14.980  0.00  0.00    +0.000 C 
BRANCH  21  23
ATOM     22  C   UNL     1      48.981   7.092  17.450  0.00  0.00    +0.000 C 
ATOM     23  C   UNL     1      48.766   6.044  16.353  0.00  0.00    +0.000 C 
BRANCH  23  24
ATOM     24  N   UNL     1      49.534   4.845  16.709  0.00  0.00    +0.000 NA
ATOM     25  H   UNL     1      48.915   4.152  17.128  0.00  0.00    +0.000 HD
ATOM     26  H   UNL     1      50.210   5.081  17.435  0.00  0.00    +0.000 HD
ENDBRANCH  23  24
ENDBRANCH  21  23
ENDBRANCH  15  21
ENDBRANCH   1  18
TORSDOF 7
ENDMDL
MODEL 2
REMARK VINA RESULT:    -7.983      3.316      7.299
REMARK INTER + INTRA:         -11.031
REMARK INTER:                 -10.429
REMARK INTRA:                  -0.602
REMARK UNBOUND:                -0.249
REMARK  Name = 
REMARK  8 active torsions:
REMARK  status: ('A' for Active; 'I' for Inactive)
REMARK    1  A    between atoms: C_1  and  C_2
REMARK    2  A    between atoms: C_2  and  N_3
REMARK    3  A    between atoms: C_2  and  C_4
REMARK    4  A    between atoms: C_4  and  C_5
REMARK    5  A    between atoms: C_8  and  C_9
REMARK    6  A    between atoms: C_9  and  N_10
REMARK    7  A    between atoms: C_15  and  C_16
REMARK    8  A    between atoms: C_16  and  O_18
REMARK                            x       y       z     vdW  Elec       q    Type
REMARK                         _______ _______ _______ _____ _____    ______ ____
ROOT
ATOM      1  C   UNL     1      43.336   5.145  10.982  0.00  0.00    +0.000 C 
ENDROOT
BRANCH   1   2
ATOM      2  N   UNL     1      44.034   6.290  11.545  0.00  0.00    +0.000 N 
ATOM      3  C   UNL     1      44.046   7.542  10.992  0.00  0.00    +0.000 A 
ATOM      4  C   UNL     1      44.623   8.358  11.937  0.00  0.00    +0.000 A 
ATOM      5  C   UNL     1      45.617   7.526  12.489  0.00  0.00    +0.000 A 
ATOM      6  C   UNL     1      46.928   7.733  12.961  0.00  0.00    +0.000 A 
ATOM      7  C   UNL     1      47.618   6.619  13.469  0.00  0.00    +0.000 A 
ATOM      8  C   UNL     1      46.938   5.408  13.694  0.00  0.00    +0.000 A 
ATOM      9  C   UNL     1      45.652   5.200  13.202  0.00  0.00    +0.000 A 
ATOM     10  C   UNL     1      45.087   6.236  12.446  0.00  0.00    +0.000 A 
BRANCH   7  11
ATOM     11  C   UNL     1      49.055   6.708  13.740  0.00  0.00    +0.000 C 
ATOM     12  O   UNL     1      49.529   6.649  14.865  0.00  0.00    +0.000 OA
BRANCH  11  13
ATOM     13  O   UNL     1      49.810   6.732  12.614  0.00  0.00    +0.000 OA
ATOM     14  H   UNL     1      50.132   5.849  12.332  0.00  0.00    +0.000 HD
ENDBRANCH  11  13
ENDBRANCH   7  11
ENDBRANCH   1   2
BRANCH   1  18
ATOM     15  C   UNL     1      45.775   2.623   8.408  0.00  0.00    +0.000 A 
ATOM     16  C   UNL     1      44.931   2.051   9.368  0.00  0.00    +0.000 A 
ATOM     17  C   UNL     1      44.154   2.864  10.210  0.00  0.00    +0.000 A 
ATOM     18  C   UNL     1      44.207   4.265  10.123  0.00  0.00    +0.000 A 
ATOM     19  C   UNL     1      45.060   4.831   9.167  0.00  0.00    +0.000 A 
ATOM     20  C   UNL     1      45.832   4.023   8.327  0.00  0.00    +0.000 A 
BRANCH  15  21
ATOM     21  C   UNL     1      46.701   1.812   7.524  0.00  0.00    +0.000 C 
BRANCH  21  23
ATOM     22  C   UNL     1      46.747   2.993   5.298  0.00  0.00    +0.000 C 
ATOM     23  C   UNL     1      47.587   2.563   6.505  0.00  0.00    +0.000 C 
BRANCH  23  24
ATOM     24  N   UNL     1      48.708   1.752   6.017  0.00  0.00    +0.000 NA
ATOM     25  H   UNL     1      49.061   1.163   6.772  0.00  0.00    +0.000 HD
ATOM     26  H   UNL     1      49.484   2.366   5.766  0.00  0.00    +0.000 HD
ENDBRANCH  23  24
ENDBRANCH  21  23
ENDBRANCH  15  21
ENDBRANCH   1  18
TORSDOF 7
ENDMDL
MODEL 3
REMARK VINA RESULT:    -7.408      1.776      2.358
REMARK INTER + INTRA:         -10.255
REMARK INTER:                  -9.654
REMARK INTRA:                  -0.601
REMARK UNBOUND:                -0.249
REMARK  Name = 
REMARK  8 active torsions:
REMARK  status: ('A' for Active; 'I' for Inactive)
REMARK    1  A    between atoms: C_1  and  C_2
REMARK    2  A    between atoms: C_2  and  N_3
REMARK    3  A    between atoms: C_2  and  C_4
REMARK    4  A    between atoms: C_4  and  C_5
REMARK    5  A    between atoms: C_8  and  C_9
REMARK    6  A    between atoms: C_9  and  N_10
REMARK    7  A    between atoms: C_15  and  C_16
REMARK    8  A    between atoms: C_16  and  O_18
REMARK                            x       y       z     vdW  Elec       q    Type
REMARK                         _______ _______ _______ _____ _____    ______ ____
ROOT
ATOM      1  C   UNL     1      43.896   5.960  11.941  0.00  0.00    +0.000 C 
ENDROOT
BRANCH   1   2
ATOM      2  N   UNL     1      43.759   4.597  11.450  0.00  0.00    +0.000 N 
ATOM      3  C   UNL     1      43.516   3.507  12.240  0.00  0.00    +0.000 A 
ATOM      4  C   UNL     1      43.244   2.475  11.372  0.00  0.00    +0.000 A 
ATOM      5  C   UNL     1      44.131   2.732  10.308  0.00  0.00    +0.000 A 
ATOM      6  C   UNL     1      44.900   1.924   9.447  0.00  0.00    +0.000 A 
ATOM      7  C   UNL     1      45.672   2.572   8.468  0.00  0.00    +0.000 A 
ATOM      8  C   UNL     1      45.504   3.949   8.231  0.00  0.00    +0.000 A 
ATOM      9  C   UNL     1      44.765   4.746   9.101  0.00  0.00    +0.000 A 
ATOM     10  C   UNL     1      44.232   4.121  10.237  0.00  0.00    +0.000 A 
BRANCH   7  11
ATOM     11  C   UNL     1      46.677   1.820   7.711  0.00  0.00    +0.000 C 
ATOM     12  O   UNL     1      47.535   2.354   7.023  0.00  0.00    +0.000 OA
BRANCH  11  13
ATOM     13  O   UNL     1      46.641   0.487   7.954  0.00  0.00    +0.000 OA
ATOM     14  H   UNL     1      45.760   0.080   7.809  0.00  0.00    +0.000 HD
ENDBRANCH  11  13
ENDBRANCH   7  11
ENDBRANCH   1   2
BRANCH   1  18
ATOM     15  C   UNL     1      47.920   6.930  13.282  0.00  0.00    +0.000 A 
ATOM     16  C   UNL     1      47.507   5.595  13.184  0.00  0.00    +0.000 A 
ATOM     17  C   UNL     1      46.204   5.280  12.766  0.00  0.00    +0.000 A 
ATOM     18  C   UNL     1      45.277   6.287  12.445  0.00  0.00    +0.000 A 
ATOM     19  C   UNL     1      45.694   7.620  12.554  0.00  0.00    +0.000 A 
ATOM     20  C   UNL     1      46.991   7.935  12.968  0.00  0.00    +0.000 A 
BRANCH  15  21
ATOM     21  C   UNL     1      49.281   7.345  13.803  0.00  0.00    +0.000 C 
BRANCH  21  23
ATOM     22  C   UNL     1      50.090   7.689  11.442  0.00  0.00    +0.000 C 
ATOM     23  C   UNL     1      50.192   8.191  12.886  0.00  0.00    +0.000 C 
BRANCH  23  24
ATOM     24  N   UNL     1      51.602   8.148  13.287  0.00  0.00    +0.000 NA
ATOM     25  H   UNL     1      52.176   7.857  12.495  0.00  0.00    +0.000 HD
ATOM     26  H   UNL     1      51.730   7.425  13.995  0.00  0.00    +0.000 HD
ENDBRANCH  23  24
ENDBRANCH  21  23
ENDBRANCH  15  21
ENDBRANCH   1  18
TORSDOF 7
ENDMDL
MODEL 4
REMARK VINA RESULT:    -6.315      4.027      6.571
REMARK INTER + INTRA:          -8.779
REMARK INTER:                  -7.999
REMARK INTRA:                  -0.780
REMARK UNBOUND:                -0.249
REMARK  Name = 
REMARK  8 active torsions:
REMARK  status: ('A' for Active; 'I' for Inactive)
REMARK    1  A    between atoms: C_1  and  C_2
REMARK    2  A    between atoms: C_2  and  N_3
REMARK    3  A    between atoms: C_2  and  C_4
REMARK    4  A    between atoms: C_4  and  C_5
REMARK    5  A    between atoms: C_8  and  C_9
REMARK    6  A    between atoms: C_9  and  N_10
REMARK    7  A    between atoms: C_15  and  C_16
REMARK    8  A    between atoms: C_16  and  O_18
REMARK                            x       y       z     vdW  Elec       q    Type
REMARK                         _______ _______ _______ _____ _____    ______ ____
ROOT
ATOM      1  C   UNL     1      48.141   5.379  16.741  0.00  0.00    +0.000 C 
ENDROOT
BRANCH   1   2
ATOM      2  N   UNL     1      48.236   5.929  15.398  0.00  0.00    +0.000 N 
ATOM      3  C   UNL     1      48.680   7.190  15.105  0.00  0.00    +0.000 A 
ATOM      4  C   UNL     1      48.817   7.225  13.737  0.00  0.00    +0.000 A 
ATOM      5  C   UNL     1      47.724   6.450  13.303  0.00  0.00    +0.000 A 
ATOM      6  C   UNL     1      46.834   6.521  12.213  0.00  0.00    +0.000 A 
ATOM      7  C   UNL     1      45.852   5.520  12.111  0.00  0.00    +0.000 A 
ATOM      8  C   UNL     1      45.909   4.386  12.942  0.00  0.00    +0.000 A 
ATOM      9  C   UNL     1      46.772   4.333  14.034  0.00  0.00    +0.000 A 
ATOM     10  C   UNL     1      47.549   5.473  14.284  0.00  0.00    +0.000 A 
BRANCH   7  11
ATOM     11  C   UNL     1      44.750   5.669  11.158  0.00  0.00    +0.000 C 
ATOM     12  O   UNL     1      43.581   5.778  11.497  0.00  0.00    +0.000 OA
BRANCH  11  13
ATOM     13  O   UNL     1      45.169   5.803   9.875  0.00  0.00    +0.000 OA
ATOM     14  H   UNL     1      44.447   5.990   9.238  0.00  0.00    +0.000 HD
ENDBRANCH  11  13
ENDBRANCH   7  11
ENDBRANCH   1   2
BRANCH   1  18
ATOM     15  C   UNL     1      50.983   2.150  17.397  0.00  0.00    +0.000 A 
ATOM     16  C   UNL     1      49.670   1.870  16.999  0.00  0.00    +0.000 A 
ATOM     17  C   UNL     1      48.747   2.909  16.800  0.00  0.00    +0.000 A 
ATOM     18  C   UNL     1      49.106   4.253  17.005  0.00  0.00    +0.000 A 
ATOM     19  C   UNL     1      50.418   4.525  17.413  0.00  0.00    +0.000 A 
ATOM     20  C   UNL     1      51.338   3.492  17.609  0.00  0.00    +0.000 A 
BRANCH  15  21
ATOM     21  C   UNL     1      52.007   1.077  17.709  0.00  0.00    +0.000 C 
BRANCH  21  23
ATOM     22  C   UNL     1      54.363   0.527  17.007  0.00  0.00    +0.000 C 
ATOM     23  C   UNL     1      53.492   1.489  17.820  0.00  0.00    +0.000 C 
BRANCH  23  24
ATOM     24  N   UNL     1      53.981   1.491  19.203  0.00  0.00    +0.000 NA
ATOM     25  H   UNL     1      54.996   1.396  19.210  0.00  0.00    +0.000 HD
ATOM     26  H   UNL     1      53.627   0.664  19.687  0.00  0.00    +0.000 HD
ENDBRANCH  23  24
ENDBRANCH  21  23
ENDBRANCH  15  21
ENDBRANCH   1  18
TORSDOF 7
ENDMDL
MODEL 5
REMARK VINA RESULT:    -6.314      3.587      7.492
REMARK INTER + INTRA:          -8.777
REMARK INTER:                  -8.467
REMARK INTRA:                  -0.310
REMARK UNBOUND:                -0.249
REMARK  Name = 
REMARK  8 active torsions:
REMARK  status: ('A' for Active; 'I' for Inactive)
REMARK    1  A    between atoms: C_1  and  C_2
REMARK    2  A    between atoms: C_2  and  N_3
REMARK    3  A    between atoms: C_2  and  C_4
REMARK    4  A    between atoms: C_4  and  C_5
REMARK    5  A    between atoms: C_8  and  C_9
REMARK    6  A    between atoms: C_9  and  N_10
REMARK    7  A    between atoms: C_15  and  C_16
REMARK    8  A    between atoms: C_16  and  O_18
REMARK                            x       y       z     vdW  Elec       q    Type
REMARK                         _______ _______ _______ _____ _____    ______ ____
ROOT
ATOM      1  C   UNL     1      45.977   5.675  13.147  0.00  0.00    +0.000 C 
ENDROOT
BRANCH   1   2
ATOM      2  N   UNL     1      46.339   7.083  13.109  0.00  0.00    +0.000 N 
ATOM      3  C   UNL     1      45.468   8.103  12.838  0.00  0.00    +0.000 A 
ATOM      4  C   UNL     1      46.155   9.261  13.117  0.00  0.00    +0.000 A 
ATOM      5  C   UNL     1      47.459   8.951  12.683  0.00  0.00    +0.000 A 
ATOM      6  C   UNL     1      48.489   9.676  12.051  0.00  0.00    +0.000 A 
ATOM      7  C   UNL     1      49.692   8.999  11.788  0.00  0.00    +0.000 A 
ATOM      8  C   UNL     1      49.920   7.723  12.335  0.00  0.00    +0.000 A 
ATOM      9  C   UNL     1      48.892   7.000  12.935  0.00  0.00    +0.000 A 
ATOM     10  C   UNL     1      47.618   7.588  12.933  0.00  0.00    +0.000 A 
BRANCH   7  11
ATOM     11  C   UNL     1      50.701   9.610  10.919  0.00  0.00    +0.000 C 
ATOM     12  O   UNL     1      50.664  10.780  10.569  0.00  0.00    +0.000 OA
BRANCH  11  13
ATOM     13  O   UNL     1      51.743   8.784  10.651  0.00  0.00    +0.000 OA
ATOM     14  H   UNL     1      51.756   8.446   9.730  0.00  0.00    +0.000 HD
ENDBRANCH  11  13
ENDBRANCH   7  11
ENDBRANCH   1   2
BRANCH   1  18
ATOM     15  C   UNL     1      45.034   4.050   9.223  0.00  0.00    +0.000 A 
ATOM     16  C   UNL     1      44.742   3.320  10.382  0.00  0.00    +0.000 A 
ATOM     17  C   UNL     1      45.059   3.836  11.649  0.00  0.00    +0.000 A 
ATOM     18  C   UNL     1      45.684   5.087  11.792  0.00  0.00    +0.000 A 
ATOM     19  C   UNL     1      45.982   5.807  10.627  0.00  0.00    +0.000 A 
ATOM     20  C   UNL     1      45.665   5.295   9.366  0.00  0.00    +0.000 A 
BRANCH  15  21
ATOM     21  C   UNL     1      44.796   3.520   7.822  0.00  0.00    +0.000 C 
BRANCH  21  23
ATOM     22  C   UNL     1      46.739   1.923   7.682  0.00  0.00    +0.000 C 
ATOM     23  C   UNL     1      46.018   3.082   6.986  0.00  0.00    +0.000 C 
BRANCH  23  24
ATOM     24  N   UNL     1      46.985   4.165   6.779  0.00  0.00    +0.000 NA
ATOM     25  H   UNL     1      47.064   4.724   7.629  0.00  0.00    +0.000 HD
ATOM     26  H   UNL     1      46.630   4.803   6.066  0.00  0.00    +0.000 HD
ENDBRANCH  23  24
ENDBRANCH  21  23
ENDBRANCH  15  21
ENDBRANCH   1  18
TORSDOF 7
ENDMDL
MODEL 6
REMARK VINA RESULT:    -6.258      4.079      5.910
REMARK INTER + INTRA:          -8.702
REMARK INTER:                  -7.976
REMARK INTRA:                  -0.726
REMARK UNBOUND:                -0.249
REMARK  Name = 
REMARK  8 active torsions:
REMARK  status: ('A' for Active; 'I' for Inactive)
REMARK    1  A    between atoms: C_1  and  C_2
REMARK    2  A    between atoms: C_2  and  N_3
REMARK    3  A    between atoms: C_2  and  C_4
REMARK    4  A    between atoms: C_4  and  C_5
REMARK    5  A    between atoms: C_8  and  C_9
REMARK    6  A    between atoms: C_9  and  N_10
REMARK    7  A    between atoms: C_15  and  C_16
REMARK    8  A    between atoms: C_16  and  O_18
REMARK                            x       y       z     vdW  Elec       q    Type
REMARK                         _______ _______ _______ _____ _____    ______ ____
ROOT
ATOM      1  C   UNL     1      49.309   7.023  14.800  0.00  0.00    +0.000 C 
ENDROOT
BRANCH   1   2
ATOM      2  N   UNL     1      48.214   7.370  13.907  0.00  0.00    +0.000 N 
ATOM      3  C   UNL     1      47.673   8.621  13.790  0.00  0.00    +0.000 A 
ATOM      4  C   UNL     1      46.833   8.561  12.703  0.00  0.00    +0.000 A 
ATOM      5  C   UNL     1      46.287   7.267  12.813  0.00  0.00    +0.000 A 
ATOM      6  C   UNL     1      45.019   6.706  12.561  0.00  0.00    +0.000 A 
ATOM      7  C   UNL     1      44.864   5.327  12.785  0.00  0.00    +0.000 A 
ATOM      8  C   UNL     1      45.989   4.520  13.035  0.00  0.00    +0.000 A 
ATOM      9  C   UNL     1      47.234   5.082  13.310  0.00  0.00    +0.000 A 
ATOM     10  C   UNL     1      47.301   6.481  13.360  0.00  0.00    +0.000 A 
BRANCH   7  11
ATOM     11  C   UNL     1      43.526   4.730  12.785  0.00  0.00    +0.000 C 
ATOM     12  O   UNL     1      43.283   3.632  12.307  0.00  0.00    +0.000 OA
BRANCH  11  13
ATOM     13  O   UNL     1      42.618   5.457  13.481  0.00  0.00    +0.000 OA
ATOM     14  H   UNL     1      42.220   4.978  14.239  0.00  0.00    +0.000 HD
ENDBRANCH  11  13
ENDBRANCH   7  11
ENDBRANCH   1   2
BRANCH   1  18
ATOM     15  C   UNL     1      47.950   6.324  18.873  0.00  0.00    +0.000 A 
ATOM     16  C   UNL     1      48.384   7.596  18.478  0.00  0.00    +0.000 A 
ATOM     17  C   UNL     1      48.836   7.821  17.168  0.00  0.00    +0.000 A 
ATOM     18  C   UNL     1      48.879   6.781  16.223  0.00  0.00    +0.000 A 
ATOM     19  C   UNL     1      48.453   5.510  16.628  0.00  0.00    +0.000 A 
ATOM     20  C   UNL     1      48.000   5.285  17.930  0.00  0.00    +0.000 A 
BRANCH  15  21
ATOM     21  C   UNL     1      47.527   5.991  20.290  0.00  0.00    +0.000 C 
BRANCH  21  23
ATOM     22  C   UNL     1      49.907   5.534  20.979  0.00  0.00    +0.000 C 
ATOM     23  C   UNL     1      48.451   5.088  21.139  0.00  0.00    +0.000 C 
BRANCH  23  24
ATOM     24  N   UNL     1      48.362   3.672  20.768  0.00  0.00    +0.000 NA
ATOM     25  H   UNL     1      48.892   3.507  19.912  0.00  0.00    +0.000 HD
ATOM     26  H   UNL     1      47.395   3.444  20.536  0.00  0.00    +0.000 HD
ENDBRANCH  23  24
ENDBRANCH  21  23
ENDBRANCH  15  21
ENDBRANCH   1  18
TORSDOF 7
ENDMDL
MODEL 7
REMARK VINA RESULT:    -5.903      3.591      5.306
REMARK INTER + INTRA:          -8.222
REMARK INTER:                  -7.389
REMARK INTRA:                  -0.833
REMARK UNBOUND:                -0.249
REMARK  Name = 
REMARK  8 active torsions:
REMARK  status: ('A' for Active; 'I' for Inactive)
REMARK    1  A    between atoms: C_1  and  C_2
REMARK    2  A    between atoms: C_2  and  N_3
REMARK    3  A    between atoms: C_2  and  C_4
REMARK    4  A    between atoms: C_4  and  C_5
REMARK    5  A    between atoms: C_8  and  C_9
REMARK    6  A    between atoms: C_9  and  N_10
REMARK    7  A    between atoms: C_15  and  C_16
REMARK    8  A    between atoms: C_16  and  O_18
REMARK                            x       y       z     vdW  Elec       q    Type
REMARK                         _______ _______ _______ _____ _____    ______ ____
ROOT
ATOM      1  C   UNL     1      47.387   8.026  13.576  0.00  0.00    +0.000 C 
ENDROOT
BRANCH   1   2
ATOM      2  N   UNL     1      46.854   6.675  13.666  0.00  0.00    +0.000 N 
ATOM      3  C   UNL     1      47.526   5.609  14.199  0.00  0.00    +0.000 A 
ATOM      4  C   UNL     1      46.600   4.596  14.290  0.00  0.00    +0.000 A 
ATOM      5  C   UNL     1      45.833   4.782  13.122  0.00  0.00    +0.000 A 
ATOM      6  C   UNL     1      45.209   3.916  12.202  0.00  0.00    +0.000 A 
ATOM      7  C   UNL     1      44.499   4.501  11.141  0.00  0.00    +0.000 A 
ATOM      8  C   UNL     1      44.246   5.885  11.136  0.00  0.00    +0.000 A 
ATOM      9  C   UNL     1      44.886   6.739  12.031  0.00  0.00    +0.000 A 
ATOM     10  C   UNL     1      45.816   6.159  12.906  0.00  0.00    +0.000 A 
BRANCH   7  11
ATOM     11  C   UNL     1      44.042   3.674  10.020  0.00  0.00    +0.000 C 
ATOM     12  O   UNL     1      43.840   2.473  10.114  0.00  0.00    +0.000 OA
BRANCH  11  13
ATOM     13  O   UNL     1      43.745   4.396   8.912  0.00  0.00    +0.000 OA
ATOM     14  H   UNL     1      43.836   5.365   9.031  0.00  0.00    +0.000 HD
ENDBRANCH  11  13
ENDBRANCH   7  11
ENDBRANCH   1   2
BRANCH   1  18
ATOM     15  C   UNL     1      51.311   8.122  11.699  0.00  0.00    +0.000 A 
ATOM     16  C   UNL     1      51.155   8.502  13.038  0.00  0.00    +0.000 A 
ATOM     17  C   UNL     1      49.887   8.485  13.642  0.00  0.00    +0.000 A 
ATOM     18  C   UNL     1      48.742   8.101  12.923  0.00  0.00    +0.000 A 
ATOM     19  C   UNL     1      48.904   7.732  11.582  0.00  0.00    +0.000 A 
ATOM     20  C   UNL     1      50.166   7.746  10.980  0.00  0.00    +0.000 A 
BRANCH  15  21
ATOM     21  C   UNL     1      52.633   8.194  10.961  0.00  0.00    +0.000 C 
BRANCH  21  23
ATOM     22  C   UNL     1      53.634   6.195   9.799  0.00  0.00    +0.000 C 
ATOM     23  C   UNL     1      52.765   7.443   9.617  0.00  0.00    +0.000 C 
BRANCH  23  24
ATOM     24  N   UNL     1      53.362   8.267   8.560  0.00  0.00    +0.000 NA
ATOM     25  H   UNL     1      53.564   9.199   8.922  0.00  0.00    +0.000 HD
ATOM     26  H   UNL     1      52.679   8.406   7.815  0.00  0.00    +0.000 HD
ENDBRANCH  23  24
ENDBRANCH  21  23
ENDBRANCH  15  21
ENDBRANCH   1  18
TORSDOF 7
ENDMDL
MODEL 8
REMARK VINA RESULT:    -5.789      4.024      5.648
REMARK INTER + INTRA:          -8.069
REMARK INTER:                  -7.198
REMARK INTRA:                  -0.871
REMARK UNBOUND:                -0.249
REMARK  Name = 
REMARK  8 active torsions:
REMARK  status: ('A' for Active; 'I' for Inactive)
REMARK    1  A    between atoms: C_1  and  C_2
REMARK    2  A    between atoms: C_2  and  N_3
REMARK    3  A    between atoms: C_2  and  C_4
REMARK    4  A    between atoms: C_4  and  C_5
REMARK    5  A    between atoms: C_8  and  C_9
REMARK    6  A    between atoms: C_9  and  N_10
REMARK    7  A    between atoms: C_15  and  C_16
REMARK    8  A    between atoms: C_16  and  O_18
REMARK                            x       y       z     vdW  Elec       q    Type
REMARK                         _______ _______ _______ _____ _____    ______ ____
ROOT
ATOM      1  C   UNL     1      47.364   8.811  13.807  0.00  0.00    +0.000 C 
ENDROOT
BRANCH   1   2
ATOM      2  N   UNL     1      46.344   8.430  12.842  0.00  0.00    +0.000 N 
ATOM      3  C   UNL     1      45.280   9.214  12.486  0.00  0.00    +0.000 A 
ATOM      4  C   UNL     1      44.700   8.584  11.410  0.00  0.00    +0.000 A 
ATOM      5  C   UNL     1      44.842   7.222  11.743  0.00  0.00    +0.000 A 
ATOM      6  C   UNL     1      44.041   6.075  11.571  0.00  0.00    +0.000 A 
ATOM      7  C   UNL     1      44.552   4.853  12.040  0.00  0.00    +0.000 A 
ATOM      8  C   UNL     1      45.892   4.759  12.459  0.00  0.00    +0.000 A 
ATOM      9  C   UNL     1      46.669   5.898  12.652  0.00  0.00    +0.000 A 
ATOM     10  C   UNL     1      46.043   7.136  12.447  0.00  0.00    +0.000 A 
BRANCH   7  11
ATOM     11  C   UNL     1      43.680   3.677  12.121  0.00  0.00    +0.000 C 
ATOM     12  O   UNL     1      43.867   2.758  12.904  0.00  0.00    +0.000 OA
BRANCH  11  13
ATOM     13  O   UNL     1      42.580   3.775  11.335  0.00  0.00    +0.000 OA
ATOM     14  H   UNL     1      42.499   3.056  10.672  0.00  0.00    +0.000 HD
ENDBRANCH  11  13
ENDBRANCH   7  11
ENDBRANCH   1   2
BRANCH   1  18
ATOM     15  C   UNL     1      51.334   9.011  12.036  0.00  0.00    +0.000 A 
ATOM     16  C   UNL     1      51.151   8.453  13.308  0.00  0.00    +0.000 A 
ATOM     17  C   UNL     1      49.873   8.400  13.887  0.00  0.00    +0.000 A 
ATOM     18  C   UNL     1      48.747   8.912  13.219  0.00  0.00    +0.000 A 
ATOM     19  C   UNL     1      48.939   9.478  11.952  0.00  0.00    +0.000 A 
ATOM     20  C   UNL     1      50.210   9.529  11.373  0.00  0.00    +0.000 A 
BRANCH  15  21
ATOM     21  C   UNL     1      52.693   9.175  11.386  0.00  0.00    +0.000 C 
BRANCH  21  23
ATOM     22  C   UNL     1      52.313   7.130   9.965  0.00  0.00    +0.000 C 
ATOM     23  C   UNL     1      53.355   7.934  10.747  0.00  0.00    +0.000 C 
BRANCH  23  24
ATOM     24  N   UNL     1      53.972   7.044  11.737  0.00  0.00    +0.000 NA
ATOM     25  H   UNL     1      53.482   6.149  11.747  0.00  0.00    +0.000 HD
ATOM     26  H   UNL     1      53.842   7.436  12.670  0.00  0.00    +0.000 HD
ENDBRANCH  23  24
ENDBRANCH  21  23
ENDBRANCH  15  21
ENDBRANCH   1  18
TORSDOF 7
ENDMDL
MODEL 9
REMARK VINA RESULT:    -5.634      3.265      4.798
REMARK INTER + INTRA:          -7.859
REMARK INTER:                  -7.428
REMARK INTRA:                  -0.431
REMARK UNBOUND:                -0.249
REMARK  Name = 
REMARK  8 active torsions:
REMARK  status: ('A' for Active; 'I' for Inactive)
REMARK    1  A    between atoms: C_1  and  C_2
REMARK    2  A    between atoms: C_2  and  N_3
REMARK    3  A    between atoms: C_2  and  C_4
REMARK    4  A    between atoms: C_4  and  C_5
REMARK    5  A    between atoms: C_8  and  C_9
REMARK    6  A    between atoms: C_9  and  N_10
REMARK    7  A    between atoms: C_15  and  C_16
REMARK    8  A    between atoms: C_16  and  O_18
REMARK                            x       y       z     vdW  Elec       q    Type
REMARK                         _______ _______ _______ _____ _____    ______ ____
ROOT
ATOM      1  C   UNL     1      47.366   8.160  12.127  0.00  0.00    +0.000 C 
ENDROOT
BRANCH   1   2
ATOM      2  N   UNL     1      46.949   6.908  12.741  0.00  0.00    +0.000 N 
ATOM      3  C   UNL     1      47.761   6.104  13.494  0.00  0.00    +0.000 A 
ATOM      4  C   UNL     1      46.931   5.160  14.052  0.00  0.00    +0.000 A 
ATOM      5  C   UNL     1      46.007   4.918  13.016  0.00  0.00    +0.000 A 
ATOM      6  C   UNL     1      45.334   3.775  12.540  0.00  0.00    +0.000 A 
ATOM      7  C   UNL     1      44.451   3.946  11.460  0.00  0.00    +0.000 A 
ATOM      8  C   UNL     1      44.099   5.239  11.031  0.00  0.00    +0.000 A 
ATOM      9  C   UNL     1      44.786   6.362  11.486  0.00  0.00    +0.000 A 
ATOM     10  C   UNL     1      45.862   6.138  12.357  0.00  0.00    +0.000 A 
BRANCH   7  11
ATOM     11  C   UNL     1      43.914   2.776  10.759  0.00  0.00    +0.000 C 
ATOM     12  O   UNL     1      44.258   2.456   9.631  0.00  0.00    +0.000 OA
BRANCH  11  13
ATOM     13  O   UNL     1      43.102   2.017  11.534  0.00  0.00    +0.000 OA
ATOM     14  H   UNL     1      43.567   1.548  12.259  0.00  0.00    +0.000 HD
ENDBRANCH  11  13
ENDBRANCH   7  11
ENDBRANCH   1   2
BRANCH   1  18
ATOM     15  C   UNL     1      51.643   8.949  12.223  0.00  0.00    +0.000 A 
ATOM     16  C   UNL     1      51.107   8.059  11.284  0.00  0.00    +0.000 A 
ATOM     17  C   UNL     1      49.728   7.792  11.260  0.00  0.00    +0.000 A 
ATOM     18  C   UNL     1      48.852   8.396  12.179  0.00  0.00    +0.000 A 
ATOM     19  C   UNL     1      49.398   9.277  13.122  0.00  0.00    +0.000 A 
ATOM     20  C   UNL     1      50.769   9.545  13.145  0.00  0.00    +0.000 A 
BRANCH  15  21
ATOM     21  C   UNL     1      53.128   9.221  12.359  0.00  0.00    +0.000 C 
BRANCH  21  23
ATOM     22  C   UNL     1      54.784   7.322  12.377  0.00  0.00    +0.000 C 
ATOM     23  C   UNL     1      53.968   8.280  13.251  0.00  0.00    +0.000 C 
BRANCH  23  24
ATOM     24  N   UNL     1      53.148   7.479  14.166  0.00  0.00    +0.000 NA
ATOM     25  H   UNL     1      52.241   7.290  13.739  0.00  0.00    +0.000 HD
ATOM     26  H   UNL     1      52.946   8.025  15.003  0.00  0.00    +0.000 HD
ENDBRANCH  23  24
ENDBRANCH  21  23
ENDBRANCH  15  21
ENDBRANCH   1  18
TORSDOF 7
ENDMDL
