MODEL 1
REMARK VINA RESULT:    -7.681      0.000      0.000
REMARK INTER + INTRA:         -10.557
REMARK INTER:                  -9.926
REMARK INTRA:                  -0.631
REMARK UNBOUND:                -0.631
REMARK  Name = 
REMARK  5 active torsions:
REMARK  status: ('A' for Active; 'I' for Inactive)
REMARK    1  A    between atoms: C_2  and  C_3
REMARK    2  A    between atoms: C_6  and  N_7
REMARK    3  A    between atoms: N_7  and  C_8
REMARK    4  A    between atoms: C_8  and  C_9
REMARK    5  A    between atoms: C_13  and  C_14
REMARK                            x       y       z     vdW  Elec       q    Type
REMARK                         _______ _______ _______ _____ _____    ______ ____
ROOT
ATOM      1  C   UNL     1      43.916   4.742  11.375  0.00  0.00    +0.000 C 
ATOM      2  C   UNL     1      43.080   3.684  12.080  0.00  0.00    +0.000 C 
ATOM      3  C   UNL     1      42.713   5.117  12.243  0.00  0.00    +0.000 C 
ENDROOT
BRANCH   1   4
ATOM      4  C   UNL     1      45.202   5.354  11.936  0.00  0.00    +0.000 A 
ATOM      5  C   UNL     1      45.659   6.599  11.460  0.00  0.00    +0.000 A 
ATOM      6  C   UNL     1      46.684   7.303  12.097  0.00  0.00    +0.000 A 
ATOM      7  C   UNL     1      47.288   6.766  13.228  0.00  0.00    +0.000 A 
ATOM      8  C   UNL     1      46.907   5.502  13.681  0.00  0.00    +0.000 A 
ATOM      9  C   UNL     1      45.890   4.796  13.025  0.00  0.00    +0.000 A 
BRANCH   8  10
ATOM     10  C   UNL     1      47.510   4.947  14.852  0.00  0.00    +0.000 C 
ATOM     11  N   UNL     1      47.993   4.503  15.814  0.00  0.00    +0.000 NA
ENDBRANCH   8  10
ENDBRANCH   1   4
BRANCH   1  12
ATOM     12  N   UNL     1      43.821   4.762   9.895  0.00  0.00    +0.000 N 
ATOM     13  H   UNL     1      42.884   4.691   9.513  0.00  0.00    +0.000 HD
BRANCH  12  17
ATOM     14  C   UNL     1      46.683   2.735   7.520  0.00  0.00    +0.000 A 
ATOM     15  C   UNL     1      46.632   4.132   7.536  0.00  0.00    +0.000 A 
ATOM     16  C   UNL     1      45.697   4.791   8.342  0.00  0.00    +0.000 A 
ATOM     17  C   UNL     1      44.779   4.069   9.117  0.00  0.00    +0.000 A 
ATOM     18  C   UNL     1      44.887   2.672   9.137  0.00  0.00    +0.000 A 
ATOM     19  C   UNL     1      45.819   2.006   8.335  0.00  0.00    +0.000 A 
BRANCH  14  21
ATOM     20  N   UNL     1      48.357   1.509   5.962  0.00  0.00    +0.000 NA
ATOM     21  C   UNL     1      47.610   2.053   6.665  0.00  0.00    +0.000 C 
ENDBRANCH  14  21
ENDBRANCH  12  17
ENDBRANCH   1  12
TORSDOF 5
ENDMDL
MODEL 2
REMARK VINA RESULT:    -7.454      1.851      2.758
REMARK INTER + INTRA:         -10.264
REMARK INTER:                  -9.687
REMARK INTRA:                  -0.577
REMARK UNBOUND:                -0.631
REMARK  Name = 
REMARK  5 active torsions:
REMARK  status: ('A' for Active; 'I' for Inactive)
REMARK    1  A    between atoms: C_2  and  C_3
REMARK    2  A    between atoms: C_6  and  N_7
REMARK    3  A    between atoms: N_7  and  C_8
REMARK    4  A    between atoms: C_8  and  C_9
REMARK    5  A    between atoms: C_13  and  C_14
REMARK                            x       y       z     vdW  Elec       q    Type
REMARK                         _______ _______ _______ _____ _____    ______ ____
ROOT
ATOM      1  C   UNL     1      44.119   4.645  11.676  0.00  0.00    +0.000 C 
ATOM      2  C   UNL     1      44.015   3.375  12.510  0.00  0.00    +0.000 C 
ATOM      3  C   UNL     1      43.050   4.481  12.759  0.00  0.00    +0.000 C 
ENDROOT
BRANCH   1   4
ATOM      4  C   UNL     1      45.039   5.826  11.996  0.00  0.00    +0.000 A 
ATOM      5  C   UNL     1      46.430   5.631  12.100  0.00  0.00    +0.000 A 
ATOM      6  C   UNL     1      47.325   6.703  12.155  0.00  0.00    +0.000 A 
ATOM      7  C   UNL     1      46.841   8.005  12.120  0.00  0.00    +0.000 A 
ATOM      8  C   UNL     1      45.463   8.231  12.091  0.00  0.00    +0.000 A 
ATOM      9  C   UNL     1      44.574   7.149  12.053  0.00  0.00    +0.000 A 
BRANCH   8  10
ATOM     10  C   UNL     1      44.956   9.565  12.039  0.00  0.00    +0.000 C 
ATOM     11  N   UNL     1      44.554  10.657  11.992  0.00  0.00    +0.000 NA
ENDBRANCH   8  10
ENDBRANCH   1   4
BRANCH   1  12
ATOM     12  N   UNL     1      43.774   4.506  10.240  0.00  0.00    +0.000 N 
ATOM     13  H   UNL     1      42.812   4.253  10.041  0.00  0.00    +0.000 HD
BRANCH  12  17
ATOM     14  C   UNL     1      46.530   2.643   7.619  0.00  0.00    +0.000 A 
ATOM     15  C   UNL     1      45.683   1.875   8.424  0.00  0.00    +0.000 A 
ATOM     16  C   UNL     1      44.761   2.502   9.270  0.00  0.00    +0.000 A 
ATOM     17  C   UNL     1      44.692   3.900   9.349  0.00  0.00    +0.000 A 
ATOM     18  C   UNL     1      45.503   4.651   8.489  0.00  0.00    +0.000 A 
ATOM     19  C   UNL     1      46.427   4.033   7.641  0.00  0.00    +0.000 A 
BRANCH  14  21
ATOM     20  N   UNL     1      48.289   1.482   6.106  0.00  0.00    +0.000 NA
ATOM     21  C   UNL     1      47.506   2.008   6.782  0.00  0.00    +0.000 C 
ENDBRANCH  14  21
ENDBRANCH  12  17
ENDBRANCH   1  12
TORSDOF 5
ENDMDL
MODEL 3
REMARK VINA RESULT:    -7.362      1.442      2.002
REMARK INTER + INTRA:         -10.144
REMARK INTER:                  -9.428
REMARK INTRA:                  -0.716
REMARK UNBOUND:                -0.631
REMARK  Name = 
REMARK  5 active torsions:
REMARK  status: ('A' for Active; 'I' for Inactive)
REMARK    1  A    between atoms: C_2  and  C_3
REMARK    2  A    between atoms: C_6  and  N_7
REMARK    3  A    between atoms: N_7  and  C_8
REMARK    4  A    between atoms: C_8  and  C_9
REMARK    5  A    between atoms: C_13  and  C_14
REMARK                            x       y       z     vdW  Elec       q    Type
REMARK                         _______ _______ _______ _____ _____    ______ ____
ROOT
ATOM      1  C   UNL     1      43.942   4.742  11.439  0.00  0.00    +0.000 C 
ATOM      2  C   UNL     1      43.033   3.618  11.915  0.00  0.00    +0.000 C 
ATOM      3  C   UNL     1      42.670   5.025  12.240  0.00  0.00    +0.000 C 
ENDROOT
BRANCH   1   4
ATOM      4  C   UNL     1      45.179   5.241  12.191  0.00  0.00    +0.000 A 
ATOM      5  C   UNL     1      45.822   4.407  13.127  0.00  0.00    +0.000 A 
ATOM      6  C   UNL     1      47.075   4.722  13.659  0.00  0.00    +0.000 A 
ATOM      7  C   UNL     1      47.712   5.895  13.271  0.00  0.00    +0.000 A 
ATOM      8  C   UNL     1      47.068   6.777  12.401  0.00  0.00    +0.000 A 
ATOM      9  C   UNL     1      45.805   6.460  11.887  0.00  0.00    +0.000 A 
BRANCH   8  10
ATOM     10  C   UNL     1      47.721   7.978  11.984  0.00  0.00    +0.000 C 
ATOM     11  N   UNL     1      48.263   8.953  11.652  0.00  0.00    +0.000 NA
ENDBRANCH   8  10
ENDBRANCH   1   4
BRANCH   1  12
ATOM     12  N   UNL     1      43.983   4.964   9.973  0.00  0.00    +0.000 N 
ATOM     13  H   UNL     1      43.084   5.095   9.522  0.00  0.00    +0.000 HD
BRANCH  12  17
ATOM     14  C   UNL     1      46.699   2.816   7.533  0.00  0.00    +0.000 A 
ATOM     15  C   UNL     1      46.750   4.212   7.598  0.00  0.00    +0.000 A 
ATOM     16  C   UNL     1      45.862   4.910   8.425  0.00  0.00    +0.000 A 
ATOM     17  C   UNL     1      44.891   4.230   9.173  0.00  0.00    +0.000 A 
ATOM     18  C   UNL     1      44.897   2.829   9.146  0.00  0.00    +0.000 A 
ATOM     19  C   UNL     1      45.781   2.124   8.322  0.00  0.00    +0.000 A 
BRANCH  14  21
ATOM     20  N   UNL     1      48.287   1.527   5.938  0.00  0.00    +0.000 NA
ATOM     21  C   UNL     1      47.577   2.098   6.657  0.00  0.00    +0.000 C 
ENDBRANCH  14  21
ENDBRANCH  12  17
ENDBRANCH   1  12
TORSDOF 5
ENDMDL
MODEL 4
REMARK VINA RESULT:    -6.375      1.767      6.220
REMARK INTER + INTRA:          -8.869
REMARK INTER:                  -8.692
REMARK INTRA:                  -0.177
REMARK UNBOUND:                -0.631
REMARK  Name = 
REMARK  5 active torsions:
REMARK  status: ('A' for Active; 'I' for Inactive)
REMARK    1  A    between atoms: C_2  and  C_3
REMARK    2  A    between atoms: C_6  and  N_7
REMARK    3  A    between atoms: N_7  and  C_8
REMARK    4  A    between atoms: C_8  and  C_9
REMARK    5  A    between atoms: C_13  and  C_14
REMARK                            x       y       z     vdW  Elec       q    Type
REMARK                         _______ _______ _______ _____ _____    ______ ____
ROOT
ATOM      1  C   UNL     1      44.499   3.891  11.160  0.00  0.00    +0.000 C 
ATOM      2  C   UNL     1      43.257   4.726  11.435  0.00  0.00    +0.000 C 
ATOM      3  C   UNL     1      43.130   3.244  11.374  0.00  0.00    +0.000 C 
ENDROOT
BRANCH   1   4
ATOM      4  C   UNL     1      45.041   3.566   9.765  0.00  0.00    +0.000 A 
ATOM      5  C   UNL     1      45.385   4.607   8.880  0.00  0.00    +0.000 A 
ATOM      6  C   UNL     1      46.096   4.369   7.700  0.00  0.00    +0.000 A 
ATOM      7  C   UNL     1      46.471   3.072   7.373  0.00  0.00    +0.000 A 
ATOM      8  C   UNL     1      46.081   2.011   8.193  0.00  0.00    +0.000 A 
ATOM      9  C   UNL     1      45.354   2.258   9.364  0.00  0.00    +0.000 A 
BRANCH   8  10
ATOM     10  C   UNL     1      46.475   0.675   7.873  0.00  0.00    +0.000 C 
ATOM     11  N   UNL     1      46.797  -0.416   7.626  0.00  0.00    +0.000 NA
ENDBRANCH   8  10
ENDBRANCH   1   4
BRANCH   1  12
ATOM     12  N   UNL     1      45.523   3.881  12.234  0.00  0.00    +0.000 N 
ATOM     13  H   UNL     1      45.297   3.325  13.052  0.00  0.00    +0.000 HD
BRANCH  12  17
ATOM     14  C   UNL     1      47.590   7.429  13.274  0.00  0.00    +0.000 A 
ATOM     15  C   UNL     1      47.722   6.273  14.051  0.00  0.00    +0.000 A 
ATOM     16  C   UNL     1      47.052   5.100  13.684  0.00  0.00    +0.000 A 
ATOM     17  C   UNL     1      46.216   5.071  12.560  0.00  0.00    +0.000 A 
ATOM     18  C   UNL     1      46.146   6.218  11.758  0.00  0.00    +0.000 A 
ATOM     19  C   UNL     1      46.812   7.394  12.117  0.00  0.00    +0.000 A 
BRANCH  14  21
ATOM     20  N   UNL     1      48.778   9.621  13.986  0.00  0.00    +0.000 NA
ATOM     21  C   UNL     1      48.239   8.644  13.667  0.00  0.00    +0.000 C 
ENDBRANCH  14  21
ENDBRANCH  12  17
ENDBRANCH   1  12
TORSDOF 5
ENDMDL
MODEL 5
REMARK VINA RESULT:    -5.897      2.004      2.911
REMARK INTER + INTRA:          -8.251
REMARK INTER:                  -7.732
REMARK INTRA:                  -0.520
REMARK UNBOUND:                -0.631
REMARK  Name = 
REMARK  5 active torsions:
REMARK  status: ('A' for Active; 'I' for Inactive)
REMARK    1  A    between atoms: C_2  and  C_3
REMARK    2  A    between atoms: C_6  and  N_7
REMARK    3  A    between atoms: N_7  and  C_8
REMARK    4  A    between atoms: C_8  and  C_9
REMARK    5  A    between atoms: C_13  and  C_14
REMARK                            x       y       z     vdW  Elec       q    Type
REMARK                         _______ _______ _______ _____ _____    ______ ____
ROOT
ATOM      1  C   UNL     1      45.767   5.095  12.509  0.00  0.00    +0.000 C 
ATOM      2  C   UNL     1      46.599   4.016  13.186  0.00  0.00    +0.000 C 
ATOM      3  C   UNL     1      45.621   4.788  14.001  0.00  0.00    +0.000 C 
ENDROOT
BRANCH   1   4
ATOM      4  C   UNL     1      46.220   6.541  12.294  0.00  0.00    +0.000 A 
ATOM      5  C   UNL     1      45.333   7.605  12.551  0.00  0.00    +0.000 A 
ATOM      6  C   UNL     1      45.766   8.933  12.596  0.00  0.00    +0.000 A 
ATOM      7  C   UNL     1      47.105   9.228  12.373  0.00  0.00    +0.000 A 
ATOM      8  C   UNL     1      47.994   8.203  12.045  0.00  0.00    +0.000 A 
ATOM      9  C   UNL     1      47.547   6.877  11.984  0.00  0.00    +0.000 A 
BRANCH   8  10
ATOM     10  C   UNL     1      49.377   8.493  11.829  0.00  0.00    +0.000 C 
ATOM     11  N   UNL     1      50.500   8.743  11.653  0.00  0.00    +0.000 NA
ENDBRANCH   8  10
ENDBRANCH   1   4
BRANCH   1  12
ATOM     12  N   UNL     1      44.758   4.615  11.532  0.00  0.00    +0.000 N 
ATOM     13  H   UNL     1      44.028   4.021  11.909  0.00  0.00    +0.000 HD
BRANCH  12  17
ATOM     14  C   UNL     1      45.990   3.381   7.672  0.00  0.00    +0.000 A 
ATOM     15  C   UNL     1      45.412   2.469   8.561  0.00  0.00    +0.000 A 
ATOM     16  C   UNL     1      44.989   2.894   9.826  0.00  0.00    +0.000 A 
ATOM     17  C   UNL     1      45.164   4.223  10.234  0.00  0.00    +0.000 A 
ATOM     18  C   UNL     1      45.685   5.136   9.308  0.00  0.00    +0.000 A 
ATOM     19  C   UNL     1      46.111   4.720   8.042  0.00  0.00    +0.000 A 
BRANCH  14  21
ATOM     20  N   UNL     1      46.862   2.589   5.361  0.00  0.00    +0.000 NA
ATOM     21  C   UNL     1      46.465   2.945   6.392  0.00  0.00    +0.000 C 
ENDBRANCH  14  21
ENDBRANCH  12  17
ENDBRANCH   1  12
TORSDOF 5
ENDMDL
MODEL 6
REMARK VINA RESULT:    -5.691      2.130      5.811
REMARK INTER + INTRA:          -7.986
REMARK INTER:                  -7.459
REMARK INTRA:                  -0.526
REMARK UNBOUND:                -0.631
REMARK  Name = 
REMARK  5 active torsions:
REMARK  status: ('A' for Active; 'I' for Inactive)
REMARK    1  A    between atoms: C_2  and  C_3
REMARK    2  A    between atoms: C_6  and  N_7
REMARK    3  A    between atoms: N_7  and  C_8
REMARK    4  A    between atoms: C_8  and  C_9
REMARK    5  A    between atoms: C_13  and  C_14
REMARK                            x       y       z     vdW  Elec       q    Type
REMARK                         _______ _______ _______ _____ _____    ______ ____
ROOT
ATOM      1  C   UNL     1      43.803   5.714  11.725  0.00  0.00    +0.000 C 
ATOM      2  C   UNL     1      42.984   6.869  11.167  0.00  0.00    +0.000 C 
ATOM      3  C   UNL     1      42.275   5.722  11.798  0.00  0.00    +0.000 C 
ENDROOT
BRANCH   1   4
ATOM      4  C   UNL     1      44.301   4.521  10.905  0.00  0.00    +0.000 A 
ATOM      5  C   UNL     1      43.870   3.217  11.219  0.00  0.00    +0.000 A 
ATOM      6  C   UNL     1      44.105   2.135  10.367  0.00  0.00    +0.000 A 
ATOM      7  C   UNL     1      44.793   2.334   9.176  0.00  0.00    +0.000 A 
ATOM      8  C   UNL     1      45.297   3.601   8.871  0.00  0.00    +0.000 A 
ATOM      9  C   UNL     1      45.071   4.675   9.741  0.00  0.00    +0.000 A 
BRANCH   8  10
ATOM     10  C   UNL     1      45.992   3.820   7.643  0.00  0.00    +0.000 C 
ATOM     11  N   UNL     1      46.570   3.996   6.647  0.00  0.00    +0.000 NA
ENDBRANCH   8  10
ENDBRANCH   1   4
BRANCH   1  12
ATOM     12  N   UNL     1      44.624   6.021  12.922  0.00  0.00    +0.000 N 
ATOM     13  H   UNL     1      44.131   6.461  13.692  0.00  0.00    +0.000 HD
BRANCH  12  17
ATOM     14  C   UNL     1      48.547   7.533  12.407  0.00  0.00    +0.000 A 
ATOM     15  C   UNL     1      47.433   8.338  12.148  0.00  0.00    +0.000 A 
ATOM     16  C   UNL     1      46.142   7.835  12.344  0.00  0.00    +0.000 A 
ATOM     17  C   UNL     1      45.941   6.514  12.767  0.00  0.00    +0.000 A 
ATOM     18  C   UNL     1      47.068   5.743  13.083  0.00  0.00    +0.000 A 
ATOM     19  C   UNL     1      48.361   6.238  12.890  0.00  0.00    +0.000 A 
BRANCH  14  21
ATOM     20  N   UNL     1      50.947   8.415  11.973  0.00  0.00    +0.000 NA
ATOM     21  C   UNL     1      49.870   8.028  12.169  0.00  0.00    +0.000 C 
ENDBRANCH  14  21
ENDBRANCH  12  17
ENDBRANCH   1  12
TORSDOF 5
ENDMDL
MODEL 7
REMARK VINA RESULT:    -5.417      2.905      5.148
REMARK INTER + INTRA:          -7.631
REMARK INTER:                  -7.095
REMARK INTRA:                  -0.535
REMARK UNBOUND:                -0.631
REMARK  Name = 
REMARK  5 active torsions:
REMARK  status: ('A' for Active; 'I' for Inactive)
REMARK    1  A    between atoms: C_2  and  C_3
REMARK    2  A    between atoms: C_6  and  N_7
REMARK    3  A    between atoms: N_7  and  C_8
REMARK    4  A    between atoms: C_8  and  C_9
REMARK    5  A    between atoms: C_13  and  C_14
REMARK                            x       y       z     vdW  Elec       q    Type
REMARK                         _______ _______ _______ _____ _____    ______ ____
ROOT
ATOM      1  C   UNL     1      47.201   7.422  13.095  0.00  0.00    +0.000 C 
ATOM      2  C   UNL     1      48.474   6.615  12.884  0.00  0.00    +0.000 C 
ATOM      3  C   UNL     1      48.318   7.399  14.140  0.00  0.00    +0.000 C 
ENDROOT
BRANCH   1   4
ATOM      4  C   UNL     1      46.973   8.843  12.576  0.00  0.00    +0.000 A 
ATOM      5  C   UNL     1      48.039   9.569  12.008  0.00  0.00    +0.000 A 
ATOM      6  C   UNL     1      47.834  10.764  11.314  0.00  0.00    +0.000 A 
ATOM      7  C   UNL     1      46.546  11.270  11.182  0.00  0.00    +0.000 A 
ATOM      8  C   UNL     1      45.478  10.612  11.795  0.00  0.00    +0.000 A 
ATOM      9  C   UNL     1      45.697   9.424  12.504  0.00  0.00    +0.000 A 
BRANCH   8  10
ATOM     10  C   UNL     1      44.148  11.115  11.652  0.00  0.00    +0.000 C 
ATOM     11  N   UNL     1      43.062  11.516  11.526  0.00  0.00    +0.000 NA
ENDBRANCH   8  10
ENDBRANCH   1   4
BRANCH   1  12
ATOM     12  N   UNL     1      45.960   6.633  13.292  0.00  0.00    +0.000 N 
ATOM     13  H   UNL     1      45.748   6.376  14.250  0.00  0.00    +0.000 HD
BRANCH  12  17
ATOM     14  C   UNL     1      44.964   3.549  10.564  0.00  0.00    +0.000 A 
ATOM     15  C   UNL     1      45.059   3.285  11.934  0.00  0.00    +0.000 A 
ATOM     16  C   UNL     1      45.367   4.317  12.828  0.00  0.00    +0.000 A 
ATOM     17  C   UNL     1      45.616   5.617  12.368  0.00  0.00    +0.000 A 
ATOM     18  C   UNL     1      45.453   5.877  11.001  0.00  0.00    +0.000 A 
ATOM     19  C   UNL     1      45.146   4.852  10.100  0.00  0.00    +0.000 A 
BRANCH  14  21
ATOM     20  N   UNL     1      44.467   1.622   8.900  0.00  0.00    +0.000 NA
ATOM     21  C   UNL     1      44.690   2.490   9.638  0.00  0.00    +0.000 C 
ENDBRANCH  14  21
ENDBRANCH  12  17
ENDBRANCH   1  12
TORSDOF 5
ENDMDL
MODEL 8
REMARK VINA RESULT:    -5.202      2.457      4.714
REMARK INTER + INTRA:          -7.353
REMARK INTER:                  -7.326
REMARK INTRA:                  -0.028
REMARK UNBOUND:                -0.631
REMARK  Name = 
REMARK  5 active torsions:
REMARK  status: ('A' for Active; 'I' for Inactive)
REMARK    1  A    between atoms: C_2  and  C_3
REMARK    2  A    between atoms: C_6  and  N_7
REMARK    3  A    between atoms: N_7  and  C_8
REMARK    4  A    between atoms: C_8  and  C_9
REMARK    5  A    between atoms: C_13  and  C_14
REMARK                            x       y       z     vdW  Elec       q    Type
REMARK                         _______ _______ _______ _____ _____    ______ ____
ROOT
ATOM      1  C   UNL     1      47.831   7.037  13.676  0.00  0.00    +0.000 C 
ATOM      2  C   UNL     1      48.561   8.169  12.967  0.00  0.00    +0.000 C 
ATOM      3  C   UNL     1      48.856   6.763  12.574  0.00  0.00    +0.000 C 
ENDROOT
BRANCH   1   4
ATOM      4  C   UNL     1      48.274   6.406  14.998  0.00  0.00    +0.000 A 
ATOM      5  C   UNL     1      49.152   7.100  15.854  0.00  0.00    +0.000 A 
ATOM      6  C   UNL     1      49.398   6.676  17.162  0.00  0.00    +0.000 A 
ATOM      7  C   UNL     1      48.773   5.533  17.644  0.00  0.00    +0.000 A 
ATOM      8  C   UNL     1      47.954   4.783  16.797  0.00  0.00    +0.000 A 
ATOM      9  C   UNL     1      47.728   5.206  15.481  0.00  0.00    +0.000 A 
BRANCH   8  10
ATOM     10  C   UNL     1      47.294   3.614  17.286  0.00  0.00    +0.000 C 
ATOM     11  N   UNL     1      46.748   2.661  17.675  0.00  0.00    +0.000 NA
ENDBRANCH   8  10
ENDBRANCH   1   4
BRANCH   1  12
ATOM     12  N   UNL     1      46.376   6.935  13.403  0.00  0.00    +0.000 N 
ATOM     13  H   UNL     1      45.767   7.084  14.200  0.00  0.00    +0.000 HD
BRANCH  12  17
ATOM     14  C   UNL     1      44.955   3.893  10.820  0.00  0.00    +0.000 A 
ATOM     15  C   UNL     1      45.092   3.657  12.191  0.00  0.00    +0.000 A 
ATOM     16  C   UNL     1      45.542   4.676  13.038  0.00  0.00    +0.000 A 
ATOM     17  C   UNL     1      45.891   5.934  12.528  0.00  0.00    +0.000 A 
ATOM     18  C   UNL     1      45.686   6.173  11.162  0.00  0.00    +0.000 A 
ATOM     19  C   UNL     1      45.237   5.160  10.309  0.00  0.00    +0.000 A 
BRANCH  14  21
ATOM     20  N   UNL     1      44.199   1.999   9.218  0.00  0.00    +0.000 NA
ATOM     21  C   UNL     1      44.535   2.842   9.941  0.00  0.00    +0.000 C 
ENDBRANCH  14  21
ENDBRANCH  12  17
ENDBRANCH   1  12
TORSDOF 5
ENDMDL
MODEL 9
REMARK VINA RESULT:    -4.902      4.141      6.681
REMARK INTER + INTRA:          -6.966
REMARK INTER:                  -6.189
REMARK INTRA:                  -0.776
REMARK UNBOUND:                -0.631
REMARK  Name = 
REMARK  5 active torsions:
REMARK  status: ('A' for Active; 'I' for Inactive)
REMARK    1  A    between atoms: C_2  and  C_3
REMARK    2  A    between atoms: C_6  and  N_7
REMARK    3  A    between atoms: N_7  and  C_8
REMARK    4  A    between atoms: C_8  and  C_9
REMARK    5  A    between atoms: C_13  and  C_14
REMARK                            x       y       z     vdW  Elec       q    Type
REMARK                         _______ _______ _______ _____ _____    ______ ____
ROOT
ATOM      1  C   UNL     1      49.029   7.177  15.880  0.00  0.00    +0.000 C 
ATOM      2  C   UNL     1      48.632   8.622  16.147  0.00  0.00    +0.000 C 
ATOM      3  C   UNL     1      50.067   8.240  16.247  0.00  0.00    +0.000 C 
ENDROOT
BRANCH   1   4
ATOM      4  C   UNL     1      49.005   6.058  16.924  0.00  0.00    +0.000 A 
ATOM      5  C   UNL     1      48.141   6.145  18.034  0.00  0.00    +0.000 A 
ATOM      6  C   UNL     1      47.913   5.057  18.879  0.00  0.00    +0.000 A 
ATOM      7  C   UNL     1      48.558   3.850  18.637  0.00  0.00    +0.000 A 
ATOM      8  C   UNL     1      49.476   3.754  17.589  0.00  0.00    +0.000 A 
ATOM      9  C   UNL     1      49.711   4.856  16.758  0.00  0.00    +0.000 A 
BRANCH   8  10
ATOM     10  C   UNL     1      50.133   2.514  17.321  0.00  0.00    +0.000 C 
ATOM     11  N   UNL     1      50.672   1.508  17.091  0.00  0.00    +0.000 NA
ENDBRANCH   8  10
ENDBRANCH   1   4
BRANCH   1  12
ATOM     12  N   UNL     1      48.878   6.714  14.478  0.00  0.00    +0.000 N 
ATOM     13  H   UNL     1      49.449   7.194  13.792  0.00  0.00    +0.000 HD
BRANCH  12  17
ATOM     14  C   UNL     1      45.022   5.769  13.001  0.00  0.00    +0.000 A 
ATOM     15  C   UNL     1      45.576   7.036  12.790  0.00  0.00    +0.000 A 
ATOM     16  C   UNL     1      46.860   7.329  13.264  0.00  0.00    +0.000 A 
ATOM     17  C   UNL     1      47.596   6.377  13.981  0.00  0.00    +0.000 A 
ATOM     18  C   UNL     1      47.054   5.094  14.126  0.00  0.00    +0.000 A 
ATOM     19  C   UNL     1      45.771   4.792  13.656  0.00  0.00    +0.000 A 
BRANCH  14  21
ATOM     20  N   UNL     1      42.617   5.246  12.183  0.00  0.00    +0.000 NA
ATOM     21  C   UNL     1      43.692   5.475  12.555  0.00  0.00    +0.000 C 
ENDBRANCH  14  21
ENDBRANCH  12  17
ENDBRANCH   1  12
TORSDOF 5
ENDMDL
