MODEL 1
REMARK VINA RESULT:    -8.119      0.000      0.000
REMARK INTER + INTRA:         -11.117
REMARK INTER:                 -10.492
REMARK INTRA:                  -0.625
REMARK UNBOUND:                -0.625
REMARK  Name = 
REMARK  5 active torsions:
REMARK  status: ('A' for Active; 'I' for Inactive)
REMARK    1  A    between atoms: C_2  and  C_18
REMARK    2  A    between atoms: N_3  and  C_4
REMARK    3  A    between atoms: C_4  and  C_5
REMARK    4  A    between atoms: C_8  and  O_9
REMARK    5  A    between atoms: O_9  and  C_10
REMARK                            x       y       z     vdW  Elec       q    Type
REMARK                         _______ _______ _______ _____ _____    ______ ____
ROOT
ATOM      1  O   UNL     1      48.411   7.358  12.731  0.00  0.00    +0.000 OA
ATOM      2  C   UNL     1      47.712   7.002  13.673  0.00  0.00    +0.000 C 
ATOM      3  N   UNL     1      46.342   6.992  13.616  0.00  0.00    +0.000 N 
ATOM      4  H   UNL     1      45.811   6.872  14.469  0.00  0.00    +0.000 HD
ENDROOT
BRANCH   2   5
ATOM      5  C   UNL     1      48.307   6.508  14.922  0.00  0.00    +0.000 A 
ATOM      6  C   UNL     1      49.300   7.246  15.549  0.00  0.00    +0.000 A 
ATOM      7  S   UNL     1      49.890   6.526  16.977  0.00  0.00    +0.000 S 
ATOM      8  C   UNL     1      48.804   5.224  16.834  0.00  0.00    +0.000 A 
ATOM      9  N   UNL     1      48.761   4.243  17.775  0.00  0.00    +0.000 NA
ATOM     10  C   UNL     1      47.859   3.342  17.567  0.00  0.00    +0.000 A 
ATOM     11  N   UNL     1      47.006   3.326  16.494  0.00  0.00    +0.000 N 
ATOM     12  C   UNL     1      47.069   4.248  15.479  0.00  0.00    +0.000 A 
ATOM     13  O   UNL     1      46.389   4.123  14.465  0.00  0.00    +0.000 OA
ATOM     14  C   UNL     1      48.027   5.319  15.693  0.00  0.00    +0.000 A 
ATOM     15  H   UNL     1      46.346   2.572  16.371  0.00  0.00    +0.000 HD
ENDBRANCH   2   5
BRANCH   3  16
ATOM     16  C   UNL     1      45.612   7.530  12.495  0.00  0.00    +0.000 C 
BRANCH  16  17
ATOM     17  C   UNL     1      45.258   6.444  11.513  0.00  0.00    +0.000 A 
ATOM     18  C   UNL     1      44.116   5.663  11.728  0.00  0.00    +0.000 A 
ATOM     19  C   UNL     1      43.765   4.661  10.823  0.00  0.00    +0.000 A 
ATOM     20  C   UNL     1      44.530   4.452   9.674  0.00  0.00    +0.000 A 
ATOM     21  C   UNL     1      45.704   5.182   9.488  0.00  0.00    +0.000 A 
ATOM     22  C   UNL     1      46.070   6.170  10.404  0.00  0.00    +0.000 A 
BRANCH  20  23
ATOM     23  O   UNL     1      44.238   3.498   8.723  0.00  0.00    +0.000 OA
BRANCH  23  24
ATOM     24  C   UNL     1      45.291   2.841   8.104  0.00  0.00    +0.000 A 
ATOM     25  C   UNL     1      45.654   1.600   8.606  0.00  0.00    +0.000 A 
ATOM     26  N   UNL     1      46.643   0.848   8.057  0.00  0.00    +0.000 NA
ATOM     27  C   UNL     1      47.257   1.403   6.987  0.00  0.00    +0.000 A 
ATOM     28  C   UNL     1      46.917   2.654   6.502  0.00  0.00    +0.000 A 
ATOM     29  N   UNL     1      45.943   3.406   7.058  0.00  0.00    +0.000 NA
ENDBRANCH  23  24
ENDBRANCH  20  23
ENDBRANCH  16  17
ENDBRANCH   3  16
TORSDOF 5
ENDMDL
MODEL 2
REMARK VINA RESULT:    -7.682      1.658      2.388
REMARK INTER + INTRA:         -10.552
REMARK INTER:                 -10.074
REMARK INTRA:                  -0.479
REMARK UNBOUND:                -0.625
REMARK  Name = 
REMARK  5 active torsions:
REMARK  status: ('A' for Active; 'I' for Inactive)
REMARK    1  A    between atoms: C_2  and  C_18
REMARK    2  A    between atoms: N_3  and  C_4
REMARK    3  A    between atoms: C_4  and  C_5
REMARK    4  A    between atoms: C_8  and  O_9
REMARK    5  A    between atoms: O_9  and  C_10
REMARK                            x       y       z     vdW  Elec       q    Type
REMARK                         _______ _______ _______ _____ _____    ______ ____
ROOT
ATOM      1  O   UNL     1      48.154   5.544  13.241  0.00  0.00    +0.000 OA
ATOM      2  C   UNL     1      47.329   5.392  14.135  0.00  0.00    +0.000 C 
ATOM      3  N   UNL     1      46.002   5.695  13.978  0.00  0.00    +0.000 N 
ATOM      4  H   UNL     1      45.401   5.730  14.792  0.00  0.00    +0.000 HD
ENDROOT
BRANCH   2   5
ATOM      5  C   UNL     1      47.708   4.818  15.434  0.00  0.00    +0.000 A 
ATOM      6  C   UNL     1      47.439   3.483  15.699  0.00  0.00    +0.000 A 
ATOM      7  S   UNL     1      47.931   2.982  17.253  0.00  0.00    +0.000 S 
ATOM      8  C   UNL     1      48.567   4.520  17.608  0.00  0.00    +0.000 A 
ATOM      9  N   UNL     1      49.182   4.765  18.796  0.00  0.00    +0.000 NA
ATOM     10  C   UNL     1      49.658   5.959  18.914  0.00  0.00    +0.000 A 
ATOM     11  N   UNL     1      49.562   6.936  17.957  0.00  0.00    +0.000 N 
ATOM     12  C   UNL     1      48.878   6.759  16.779  0.00  0.00    +0.000 A 
ATOM     13  O   UNL     1      48.688   7.696  16.010  0.00  0.00    +0.000 OA
ATOM     14  C   UNL     1      48.373   5.414  16.569  0.00  0.00    +0.000 A 
ATOM     15  H   UNL     1      49.926   7.862  18.127  0.00  0.00    +0.000 HD
ENDBRANCH   2   5
BRANCH   3  16
ATOM     16  C   UNL     1      45.493   6.347  12.797  0.00  0.00    +0.000 C 
BRANCH  16  17
ATOM     17  C   UNL     1      45.318   5.360  11.672  0.00  0.00    +0.000 A 
ATOM     18  C   UNL     1      45.629   5.743  10.362  0.00  0.00    +0.000 A 
ATOM     19  C   UNL     1      45.486   4.840   9.309  0.00  0.00    +0.000 A 
ATOM     20  C   UNL     1      45.066   3.531   9.557  0.00  0.00    +0.000 A 
ATOM     21  C   UNL     1      44.693   3.163  10.850  0.00  0.00    +0.000 A 
ATOM     22  C   UNL     1      44.814   4.073  11.902  0.00  0.00    +0.000 A 
BRANCH  20  23
ATOM     23  O   UNL     1      44.921   2.575   8.575  0.00  0.00    +0.000 OA
BRANCH  23  24
ATOM     24  C   UNL     1      45.917   2.460   7.616  0.00  0.00    +0.000 A 
ATOM     25  C   UNL     1      46.858   1.456   7.789  0.00  0.00    +0.000 A 
ATOM     26  N   UNL     1      47.854   1.223   6.896  0.00  0.00    +0.000 NA
ATOM     27  C   UNL     1      47.868   2.050   5.825  0.00  0.00    +0.000 A 
ATOM     28  C   UNL     1      46.948   3.072   5.665  0.00  0.00    +0.000 A 
ATOM     29  N   UNL     1      45.967   3.311   6.562  0.00  0.00    +0.000 NA
ENDBRANCH  23  24
ENDBRANCH  20  23
ENDBRANCH  16  17
ENDBRANCH   3  16
TORSDOF 5
ENDMDL
MODEL 3
REMARK VINA RESULT:    -7.593      1.646      2.230
REMARK INTER + INTRA:         -10.437
REMARK INTER:                 -10.559
REMARK INTRA:                   0.121
REMARK UNBOUND:                -0.625
REMARK  Name = 
REMARK  5 active torsions:
REMARK  status: ('A' for Active; 'I' for Inactive)
REMARK    1  A    between atoms: C_2  and  C_18
REMARK    2  A    between atoms: N_3  and  C_4
REMARK    3  A    between atoms: C_4  and  C_5
REMARK    4  A    between atoms: C_8  and  O_9
REMARK    5  A    between atoms: O_9  and  C_10
REMARK                            x       y       z     vdW  Elec       q    Type
REMARK                         _______ _______ _______ _____ _____    ______ ____
ROOT
ATOM      1  O   UNL     1      46.675   3.188  13.731  0.00  0.00    +0.000 OA
ATOM      2  C   UNL     1      46.406   4.319  14.120  0.00  0.00    +0.000 C 
ATOM      3  N   UNL     1      45.169   4.886  13.951  0.00  0.00    +0.000 N 
ATOM      4  H   UNL     1      45.051   5.877  14.118  0.00  0.00    +0.000 HD
ENDROOT
BRANCH   2   5
ATOM      5  C   UNL     1      47.390   5.129  14.849  0.00  0.00    +0.000 A 
ATOM      6  C   UNL     1      48.070   6.143  14.189  0.00  0.00    +0.000 A 
ATOM      7  S   UNL     1      49.183   6.977  15.175  0.00  0.00    +0.000 S 
ATOM      8  C   UNL     1      48.761   6.044  16.535  0.00  0.00    +0.000 A 
ATOM      9  N   UNL     1      49.333   6.275  17.747  0.00  0.00    +0.000 NA
ATOM     10  C   UNL     1      48.887   5.526  18.699  0.00  0.00    +0.000 A 
ATOM     11  N   UNL     1      47.930   4.556  18.547  0.00  0.00    +0.000 N 
ATOM     12  C   UNL     1      47.386   4.232  17.328  0.00  0.00    +0.000 A 
ATOM     13  O   UNL     1      46.641   3.266  17.203  0.00  0.00    +0.000 OA
ATOM     14  C   UNL     1      47.810   5.085  16.231  0.00  0.00    +0.000 A 
ATOM     15  H   UNL     1      47.650   3.980  19.327  0.00  0.00    +0.000 HD
ENDBRANCH   2   5
BRANCH   3  16
ATOM     16  C   UNL     1      44.128   4.253  13.179  0.00  0.00    +0.000 C 
BRANCH  16  17
ATOM     17  C   UNL     1      44.445   4.301  11.708  0.00  0.00    +0.000 A 
ATOM     18  C   UNL     1      45.306   5.291  11.218  0.00  0.00    +0.000 A 
ATOM     19  C   UNL     1      45.621   5.344   9.860  0.00  0.00    +0.000 A 
ATOM     20  C   UNL     1      45.110   4.387   8.981  0.00  0.00    +0.000 A 
ATOM     21  C   UNL     1      44.201   3.439   9.451  0.00  0.00    +0.000 A 
ATOM     22  C   UNL     1      43.866   3.398  10.807  0.00  0.00    +0.000 A 
BRANCH  20  23
ATOM     23  O   UNL     1      45.390   4.359   7.633  0.00  0.00    +0.000 OA
BRANCH  23  24
ATOM     24  C   UNL     1      46.225   3.360   7.154  0.00  0.00    +0.000 A 
ATOM     25  C   UNL     1      46.353   2.212   7.923  0.00  0.00    +0.000 A 
ATOM     26  N   UNL     1      47.111   1.153   7.537  0.00  0.00    +0.000 NA
ATOM     27  C   UNL     1      47.740   1.301   6.349  0.00  0.00    +0.000 A 
ATOM     28  C   UNL     1      47.638   2.457   5.594  0.00  0.00    +0.000 A 
ATOM     29  N   UNL     1      46.896   3.515   5.986  0.00  0.00    +0.000 NA
ENDBRANCH  23  24
ENDBRANCH  20  23
ENDBRANCH  16  17
ENDBRANCH   3  16
TORSDOF 5
ENDMDL
MODEL 4
REMARK VINA RESULT:    -7.455      2.071      2.812
REMARK INTER + INTRA:         -10.259
REMARK INTER:                  -9.542
REMARK INTRA:                  -0.717
REMARK UNBOUND:                -0.625
REMARK  Name = 
REMARK  5 active torsions:
REMARK  status: ('A' for Active; 'I' for Inactive)
REMARK    1  A    between atoms: C_2  and  C_18
REMARK    2  A    between atoms: N_3  and  C_4
REMARK    3  A    between atoms: C_4  and  C_5
REMARK    4  A    between atoms: C_8  and  O_9
REMARK    5  A    between atoms: O_9  and  C_10
REMARK                            x       y       z     vdW  Elec       q    Type
REMARK                         _______ _______ _______ _____ _____    ______ ____
ROOT
ATOM      1  O   UNL     1      47.482   4.556  14.213  0.00  0.00    +0.000 OA
ATOM      2  C   UNL     1      47.376   5.709  13.812  0.00  0.00    +0.000 C 
ATOM      3  N   UNL     1      46.184   6.241  13.393  0.00  0.00    +0.000 N 
ATOM      4  H   UNL     1      46.182   7.126  12.901  0.00  0.00    +0.000 HD
ENDROOT
BRANCH   2   5
ATOM      5  C   UNL     1      48.527   6.623  13.803  0.00  0.00    +0.000 A 
ATOM      6  C   UNL     1      48.941   7.194  12.608  0.00  0.00    +0.000 A 
ATOM      7  S   UNL     1      50.295   8.218  12.772  0.00  0.00    +0.000 S 
ATOM      8  C   UNL     1      50.345   7.972  14.456  0.00  0.00    +0.000 A 
ATOM      9  N   UNL     1      51.270   8.605  15.227  0.00  0.00    +0.000 NA
ATOM     10  C   UNL     1      51.164   8.365  16.491  0.00  0.00    +0.000 A 
ATOM     11  N   UNL     1      50.228   7.537  17.053  0.00  0.00    +0.000 N 
ATOM     12  C   UNL     1      49.330   6.814  16.306  0.00  0.00    +0.000 A 
ATOM     13  O   UNL     1      48.602   5.975  16.827  0.00  0.00    +0.000 OA
ATOM     14  C   UNL     1      49.365   7.092  14.882  0.00  0.00    +0.000 A 
ATOM     15  H   UNL     1      50.222   7.364  18.047  0.00  0.00    +0.000 HD
ENDBRANCH   2   5
BRANCH   3  16
ATOM     16  C   UNL     1      44.988   5.447  13.260  0.00  0.00    +0.000 C 
BRANCH  16  17
ATOM     17  C   UNL     1      44.902   4.831  11.889  0.00  0.00    +0.000 A 
ATOM     18  C   UNL     1      44.296   3.579  11.730  0.00  0.00    +0.000 A 
ATOM     19  C   UNL     1      44.196   2.998  10.466  0.00  0.00    +0.000 A 
ATOM     20  C   UNL     1      44.666   3.677   9.340  0.00  0.00    +0.000 A 
ATOM     21  C   UNL     1      45.329   4.894   9.500  0.00  0.00    +0.000 A 
ATOM     22  C   UNL     1      45.451   5.468  10.768  0.00  0.00    +0.000 A 
BRANCH  20  23
ATOM     23  O   UNL     1      44.585   3.181   8.058  0.00  0.00    +0.000 OA
BRANCH  23  24
ATOM     24  C   UNL     1      45.761   2.814   7.418  0.00  0.00    +0.000 A 
ATOM     25  C   UNL     1      46.386   1.653   7.847  0.00  0.00    +0.000 A 
ATOM     26  N   UNL     1      47.519   1.175   7.270  0.00  0.00    +0.000 NA
ATOM     27  C   UNL     1      48.001   1.921   6.249  0.00  0.00    +0.000 A 
ATOM     28  C   UNL     1      47.395   3.096   5.839  0.00  0.00    +0.000 A 
ATOM     29  N   UNL     1      46.276   3.577   6.423  0.00  0.00    +0.000 NA
ENDBRANCH  23  24
ENDBRANCH  20  23
ENDBRANCH  16  17
ENDBRANCH   3  16
TORSDOF 5
ENDMDL
MODEL 5
REMARK VINA RESULT:    -7.427      2.968      3.867
REMARK INTER + INTRA:         -10.222
REMARK INTER:                  -9.553
REMARK INTRA:                  -0.669
REMARK UNBOUND:                -0.625
REMARK  Name = 
REMARK  5 active torsions:
REMARK  status: ('A' for Active; 'I' for Inactive)
REMARK    1  A    between atoms: C_2  and  C_18
REMARK    2  A    between atoms: N_3  and  C_4
REMARK    3  A    between atoms: C_4  and  C_5
REMARK    4  A    between atoms: C_8  and  O_9
REMARK    5  A    between atoms: O_9  and  C_10
REMARK                            x       y       z     vdW  Elec       q    Type
REMARK                         _______ _______ _______ _____ _____    ______ ____
ROOT
ATOM      1  O   UNL     1      44.812   8.452  11.391  0.00  0.00    +0.000 OA
ATOM      2  C   UNL     1      45.682   8.181  12.211  0.00  0.00    +0.000 C 
ATOM      3  N   UNL     1      45.603   7.096  13.045  0.00  0.00    +0.000 N 
ATOM      4  H   UNL     1      46.245   7.021  13.823  0.00  0.00    +0.000 HD
ENDROOT
BRANCH   2   5
ATOM      5  C   UNL     1      46.908   8.985  12.317  0.00  0.00    +0.000 A 
ATOM      6  C   UNL     1      46.840  10.363  12.169  0.00  0.00    +0.000 A 
ATOM      7  S   UNL     1      48.351  11.141  12.308  0.00  0.00    +0.000 S 
ATOM      8  C   UNL     1      49.143   9.667  12.619  0.00  0.00    +0.000 A 
ATOM      9  N   UNL     1      50.479   9.631  12.870  0.00  0.00    +0.000 NA
ATOM     10  C   UNL     1      50.941   8.455  13.135  0.00  0.00    +0.000 A 
ATOM     11  N   UNL     1      50.190   7.308  13.158  0.00  0.00    +0.000 N 
ATOM     12  C   UNL     1      48.856   7.286  12.831  0.00  0.00    +0.000 A 
ATOM     13  O   UNL     1      48.248   6.226  12.721  0.00  0.00    +0.000 OA
ATOM     14  C   UNL     1      48.272   8.592  12.581  0.00  0.00    +0.000 A 
ATOM     15  H   UNL     1      50.619   6.413  13.339  0.00  0.00    +0.000 HD
ENDBRANCH   2   5
BRANCH   3  16
ATOM     16  C   UNL     1      44.426   6.266  13.122  0.00  0.00    +0.000 C 
BRANCH  16  17
ATOM     17  C   UNL     1      44.465   5.181  12.079  0.00  0.00    +0.000 A 
ATOM     18  C   UNL     1      45.259   4.047  12.289  0.00  0.00    +0.000 A 
ATOM     19  C   UNL     1      45.298   3.026  11.340  0.00  0.00    +0.000 A 
ATOM     20  C   UNL     1      44.516   3.108  10.186  0.00  0.00    +0.000 A 
ATOM     21  C   UNL     1      43.774   4.263   9.940  0.00  0.00    +0.000 A 
ATOM     22  C   UNL     1      43.751   5.297  10.878  0.00  0.00    +0.000 A 
BRANCH  20  23
ATOM     23  O   UNL     1      44.483   2.133   9.213  0.00  0.00    +0.000 OA
BRANCH  23  24
ATOM     24  C   UNL     1      45.567   2.024   8.353  0.00  0.00    +0.000 A 
ATOM     25  C   UNL     1      45.948   3.163   7.659  0.00  0.00    +0.000 A 
ATOM     26  N   UNL     1      47.016   3.186   6.821  0.00  0.00    +0.000 NA
ATOM     27  C   UNL     1      47.679   2.013   6.704  0.00  0.00    +0.000 A 
ATOM     28  C   UNL     1      47.282   0.867   7.373  0.00  0.00    +0.000 A 
ATOM     29  N   UNL     1      46.212   0.842   8.195  0.00  0.00    +0.000 NA
ENDBRANCH  23  24
ENDBRANCH  20  23
ENDBRANCH  16  17
ENDBRANCH   3  16
TORSDOF 5
ENDMDL
MODEL 6
REMARK VINA RESULT:    -7.387      1.457      1.969
REMARK INTER + INTRA:         -10.172
REMARK INTER:                  -9.376
REMARK INTRA:                  -0.795
REMARK UNBOUND:                -0.625
REMARK  Name = 
REMARK  5 active torsions:
REMARK  status: ('A' for Active; 'I' for Inactive)
REMARK    1  A    between atoms: C_2  and  C_18
REMARK    2  A    between atoms: N_3  and  C_4
REMARK    3  A    between atoms: C_4  and  C_5
REMARK    4  A    between atoms: C_8  and  O_9
REMARK    5  A    between atoms: O_9  and  C_10
REMARK                            x       y       z     vdW  Elec       q    Type
REMARK                         _______ _______ _______ _____ _____    ______ ____
ROOT
ATOM      1  O   UNL     1      50.010   7.154  14.336  0.00  0.00    +0.000 OA
ATOM      2  C   UNL     1      49.113   7.108  15.170  0.00  0.00    +0.000 C 
ATOM      3  N   UNL     1      47.842   7.553  14.915  0.00  0.00    +0.000 N 
ATOM      4  H   UNL     1      47.193   7.667  15.684  0.00  0.00    +0.000 HD
ENDROOT
BRANCH   2   5
ATOM      5  C   UNL     1      49.334   6.517  16.497  0.00  0.00    +0.000 A 
ATOM      6  C   UNL     1      50.106   7.194  17.430  0.00  0.00    +0.000 A 
ATOM      7  S   UNL     1      50.273   6.366  18.911  0.00  0.00    +0.000 S 
ATOM      8  C   UNL     1      49.277   5.094  18.374  0.00  0.00    +0.000 A 
ATOM      9  N   UNL     1      48.976   4.049  19.191  0.00  0.00    +0.000 NA
ATOM     10  C   UNL     1      48.174   3.180  18.673  0.00  0.00    +0.000 A 
ATOM     11  N   UNL     1      47.658   3.253  17.405  0.00  0.00    +0.000 N 
ATOM     12  C   UNL     1      48.000   4.244  16.518  0.00  0.00    +0.000 A 
ATOM     13  O   UNL     1      47.635   4.201  15.347  0.00  0.00    +0.000 OA
ATOM     14  C   UNL     1      48.853   5.281  17.070  0.00  0.00    +0.000 A 
ATOM     15  H   UNL     1      47.063   2.520  17.046  0.00  0.00    +0.000 HD
ENDBRANCH   2   5
BRANCH   3  16
ATOM     16  C   UNL     1      47.492   8.237  13.695  0.00  0.00    +0.000 C 
BRANCH  16  17
ATOM     17  C   UNL     1      46.627   7.368  12.821  0.00  0.00    +0.000 A 
ATOM     18  C   UNL     1      45.647   7.958  12.013  0.00  0.00    +0.000 A 
ATOM     19  C   UNL     1      44.845   7.171  11.188  0.00  0.00    +0.000 A 
ATOM     20  C   UNL     1      45.037   5.788  11.130  0.00  0.00    +0.000 A 
ATOM     21  C   UNL     1      45.966   5.189  11.979  0.00  0.00    +0.000 A 
ATOM     22  C   UNL     1      46.755   5.972  12.825  0.00  0.00    +0.000 A 
BRANCH  20  23
ATOM     23  O   UNL     1      44.300   4.947  10.325  0.00  0.00    +0.000 OA
BRANCH  23  24
ATOM     24  C   UNL     1      44.979   4.120   9.441  0.00  0.00    +0.000 A 
ATOM     25  C   UNL     1      44.865   2.751   9.630  0.00  0.00    +0.000 A 
ATOM     26  N   UNL     1      45.452   1.846   8.805  0.00  0.00    +0.000 NA
ATOM     27  C   UNL     1      46.166   2.378   7.787  0.00  0.00    +0.000 A 
ATOM     28  C   UNL     1      46.307   3.744   7.614  0.00  0.00    +0.000 A 
ATOM     29  N   UNL     1      45.734   4.642   8.443  0.00  0.00    +0.000 NA
ENDBRANCH  23  24
ENDBRANCH  20  23
ENDBRANCH  16  17
ENDBRANCH   3  16
TORSDOF 5
ENDMDL
MODEL 7
REMARK VINA RESULT:    -7.148      4.043      8.892
REMARK INTER + INTRA:          -9.862
REMARK INTER:                  -9.641
REMARK INTRA:                  -0.221
REMARK UNBOUND:                -0.625
REMARK  Name = 
REMARK  5 active torsions:
REMARK  status: ('A' for Active; 'I' for Inactive)
REMARK    1  A    between atoms: C_2  and  C_18
REMARK    2  A    between atoms: N_3  and  C_4
REMARK    3  A    between atoms: C_4  and  C_5
REMARK    4  A    between atoms: C_8  and  O_9
REMARK    5  A    between atoms: O_9  and  C_10
REMARK                            x       y       z     vdW  Elec       q    Type
REMARK                         _______ _______ _______ _____ _____    ______ ____
ROOT
ATOM      1  O   UNL     1      47.227   3.043  14.096  0.00  0.00    +0.000 OA
ATOM      2  C   UNL     1      46.829   4.107  14.556  0.00  0.00    +0.000 C 
ATOM      3  N   UNL     1      46.836   4.381  15.900  0.00  0.00    +0.000 N 
ATOM      4  H   UNL     1      46.330   5.188  16.243  0.00  0.00    +0.000 HD
ENDROOT
BRANCH   2   5
ATOM      5  C   UNL     1      46.364   5.191  13.681  0.00  0.00    +0.000 A 
ATOM      6  C   UNL     1      47.176   6.295  13.464  0.00  0.00    +0.000 A 
ATOM      7  S   UNL     1      46.482   7.464  12.435  0.00  0.00    +0.000 S 
ATOM      8  C   UNL     1      45.089   6.513  12.204  0.00  0.00    +0.000 A 
ATOM      9  N   UNL     1      44.087   6.928  11.382  0.00  0.00    +0.000 NA
ATOM     10  C   UNL     1      43.113   6.088  11.263  0.00  0.00    +0.000 A 
ATOM     11  N   UNL     1      43.043   4.878  11.903  0.00  0.00    +0.000 N 
ATOM     12  C   UNL     1      43.989   4.456  12.804  0.00  0.00    +0.000 A 
ATOM     13  O   UNL     1      43.825   3.436  13.466  0.00  0.00    +0.000 OA
ATOM     14  C   UNL     1      45.137   5.336  12.931  0.00  0.00    +0.000 A 
ATOM     15  H   UNL     1      42.235   4.283  11.794  0.00  0.00    +0.000 HD
ENDBRANCH   2   5
BRANCH   3  16
ATOM     16  C   UNL     1      47.179   3.390  16.889  0.00  0.00    +0.000 C 
BRANCH  16  17
ATOM     17  C   UNL     1      48.666   3.358  17.124  0.00  0.00    +0.000 A 
ATOM     18  C   UNL     1      49.358   2.146  17.012  0.00  0.00    +0.000 A 
ATOM     19  C   UNL     1      50.737   2.100  17.215  0.00  0.00    +0.000 A 
ATOM     20  C   UNL     1      51.448   3.269  17.494  0.00  0.00    +0.000 A 
ATOM     21  C   UNL     1      50.756   4.467  17.671  0.00  0.00    +0.000 A 
ATOM     22  C   UNL     1      49.371   4.512  17.492  0.00  0.00    +0.000 A 
BRANCH  20  23
ATOM     23  O   UNL     1      52.812   3.309  17.685  0.00  0.00    +0.000 OA
BRANCH  23  24
ATOM     24  C   UNL     1      53.458   2.140  18.063  0.00  0.00    +0.000 A 
ATOM     25  C   UNL     1      54.137   2.148  19.272  0.00  0.00    +0.000 A 
ATOM     26  N   UNL     1      54.772   1.052  19.763  0.00  0.00    +0.000 NA
ATOM     27  C   UNL     1      54.702  -0.049  18.980  0.00  0.00    +0.000 A 
ATOM     28  C   UNL     1      54.051  -0.051  17.758  0.00  0.00    +0.000 A 
ATOM     29  N   UNL     1      53.432   1.044  17.266  0.00  0.00    +0.000 NA
ENDBRANCH  23  24
ENDBRANCH  20  23
ENDBRANCH  16  17
ENDBRANCH   3  16
TORSDOF 5
ENDMDL
MODEL 8
REMARK VINA RESULT:    -6.959      3.663      7.838
REMARK INTER + INTRA:          -9.619
REMARK INTER:                  -8.770
REMARK INTRA:                  -0.848
REMARK UNBOUND:                -0.625
REMARK  Name = 
REMARK  5 active torsions:
REMARK  status: ('A' for Active; 'I' for Inactive)
REMARK    1  A    between atoms: C_2  and  C_18
REMARK    2  A    between atoms: N_3  and  C_4
REMARK    3  A    between atoms: C_4  and  C_5
REMARK    4  A    between atoms: C_8  and  O_9
REMARK    5  A    between atoms: O_9  and  C_10
REMARK                            x       y       z     vdW  Elec       q    Type
REMARK                         _______ _______ _______ _____ _____    ______ ____
ROOT
ATOM      1  O   UNL     1      47.869   7.309  11.432  0.00  0.00    +0.000 OA
ATOM      2  C   UNL     1      47.099   7.021  12.341  0.00  0.00    +0.000 C 
ATOM      3  N   UNL     1      47.397   7.243  13.661  0.00  0.00    +0.000 N 
ATOM      4  H   UNL     1      46.817   6.822  14.377  0.00  0.00    +0.000 HD
ENDROOT
BRANCH   2   5
ATOM      5  C   UNL     1      45.769   6.462  12.067  0.00  0.00    +0.000 A 
ATOM      6  C   UNL     1      44.797   7.258  11.478  0.00  0.00    +0.000 A 
ATOM      7  S   UNL     1      43.309   6.461  11.240  0.00  0.00    +0.000 S 
ATOM      8  C   UNL     1      43.926   5.006  11.874  0.00  0.00    +0.000 A 
ATOM      9  N   UNL     1      43.157   3.885  11.926  0.00  0.00    +0.000 NA
ATOM     10  C   UNL     1      43.765   2.842  12.386  0.00  0.00    +0.000 A 
ATOM     11  N   UNL     1      45.067   2.823  12.813  0.00  0.00    +0.000 N 
ATOM     12  C   UNL     1      45.853   3.948  12.856  0.00  0.00    +0.000 A 
ATOM     13  O   UNL     1      46.964   3.927  13.377  0.00  0.00    +0.000 OA
ATOM     14  C   UNL     1      45.238   5.138  12.294  0.00  0.00    +0.000 A 
ATOM     15  H   UNL     1      45.473   1.982  13.195  0.00  0.00    +0.000 HD
ENDBRANCH   2   5
BRANCH   3  16
ATOM     16  C   UNL     1      48.693   7.701  14.094  0.00  0.00    +0.000 C 
BRANCH  16  17
ATOM     17  C   UNL     1      49.190   6.887  15.259  0.00  0.00    +0.000 A 
ATOM     18  C   UNL     1      48.317   6.007  15.911  0.00  0.00    +0.000 A 
ATOM     19  C   UNL     1      48.762   5.235  16.984  0.00  0.00    +0.000 A 
ATOM     20  C   UNL     1      50.095   5.304  17.395  0.00  0.00    +0.000 A 
ATOM     21  C   UNL     1      50.952   6.225  16.793  0.00  0.00    +0.000 A 
ATOM     22  C   UNL     1      50.502   7.016  15.733  0.00  0.00    +0.000 A 
BRANCH  20  23
ATOM     23  O   UNL     1      50.615   4.559  18.430  0.00  0.00    +0.000 OA
BRANCH  23  24
ATOM     24  C   UNL     1      51.263   3.370  18.126  0.00  0.00    +0.000 A 
ATOM     25  C   UNL     1      50.547   2.415  17.419  0.00  0.00    +0.000 A 
ATOM     26  N   UNL     1      51.089   1.232  17.032  0.00  0.00    +0.000 NA
ATOM     27  C   UNL     1      52.379   1.047  17.393  0.00  0.00    +0.000 A 
ATOM     28  C   UNL     1      53.087   1.986  18.124  0.00  0.00    +0.000 A 
ATOM     29  N   UNL     1      52.542   3.156  18.521  0.00  0.00    +0.000 NA
ENDBRANCH  23  24
ENDBRANCH  20  23
ENDBRANCH  16  17
ENDBRANCH   3  16
TORSDOF 5
ENDMDL
MODEL 9
REMARK VINA RESULT:    -6.843      3.824      9.008
REMARK INTER + INTRA:          -9.467
REMARK INTER:                  -8.874
REMARK INTRA:                  -0.593
REMARK UNBOUND:                -0.625
REMARK  Name = 
REMARK  5 active torsions:
REMARK  status: ('A' for Active; 'I' for Inactive)
REMARK    1  A    between atoms: C_2  and  C_18
REMARK    2  A    between atoms: N_3  and  C_4
REMARK    3  A    between atoms: C_4  and  C_5
REMARK    4  A    between atoms: C_8  and  O_9
REMARK    5  A    between atoms: O_9  and  C_10
REMARK                            x       y       z     vdW  Elec       q    Type
REMARK                         _______ _______ _______ _____ _____    ______ ____
ROOT
ATOM      1  O   UNL     1      47.158   3.019  14.014  0.00  0.00    +0.000 OA
ATOM      2  C   UNL     1      46.806   4.099  14.475  0.00  0.00    +0.000 C 
ATOM      3  N   UNL     1      46.874   4.390  15.813  0.00  0.00    +0.000 N 
ATOM      4  H   UNL     1      46.403   5.214  16.165  0.00  0.00    +0.000 HD
ENDROOT
BRANCH   2   5
ATOM      5  C   UNL     1      46.334   5.183  13.604  0.00  0.00    +0.000 A 
ATOM      6  C   UNL     1      47.168   6.259  13.333  0.00  0.00    +0.000 A 
ATOM      7  S   UNL     1      46.462   7.433  12.317  0.00  0.00    +0.000 S 
ATOM      8  C   UNL     1      45.033   6.521  12.165  0.00  0.00    +0.000 A 
ATOM      9  N   UNL     1      44.008   6.953  11.382  0.00  0.00    +0.000 NA
ATOM     10  C   UNL     1      43.005   6.142  11.319  0.00  0.00    +0.000 A 
ATOM     11  N   UNL     1      42.928   4.944  11.981  0.00  0.00    +0.000 N 
ATOM     12  C   UNL     1      43.902   4.507  12.846  0.00  0.00    +0.000 A 
ATOM     13  O   UNL     1      43.737   3.503  13.530  0.00  0.00    +0.000 OA
ATOM     14  C   UNL     1      45.080   5.354  12.907  0.00  0.00    +0.000 A 
ATOM     15  H   UNL     1      42.099   4.372  11.918  0.00  0.00    +0.000 HD
ENDBRANCH   2   5
BRANCH   3  16
ATOM     16  C   UNL     1      47.231   3.403  16.801  0.00  0.00    +0.000 C 
BRANCH  16  17
ATOM     17  C   UNL     1      48.709   3.438  17.086  0.00  0.00    +0.000 A 
ATOM     18  C   UNL     1      49.318   4.651  17.434  0.00  0.00    +0.000 A 
ATOM     19  C   UNL     1      50.683   4.701  17.713  0.00  0.00    +0.000 A 
ATOM     20  C   UNL     1      51.451   3.535  17.686  0.00  0.00    +0.000 A 
ATOM     21  C   UNL     1      50.864   2.337  17.277  0.00  0.00    +0.000 A 
ATOM     22  C   UNL     1      49.502   2.288  16.974  0.00  0.00    +0.000 A 
BRANCH  20  23
ATOM     23  O   UNL     1      52.798   3.499  17.970  0.00  0.00    +0.000 OA
BRANCH  23  24
ATOM     24  C   UNL     1      53.490   4.700  18.036  0.00  0.00    +0.000 A 
ATOM     25  C   UNL     1      53.789   5.197  19.296  0.00  0.00    +0.000 A 
ATOM     26  N   UNL     1      54.494   6.342  19.483  0.00  0.00    +0.000 NA
ATOM     27  C   UNL     1      54.878   6.970  18.349  0.00  0.00    +0.000 A 
ATOM     28  C   UNL     1      54.555   6.493  17.090  0.00  0.00    +0.000 A 
ATOM     29  N   UNL     1      53.841   5.362  16.906  0.00  0.00    +0.000 NA
ENDBRANCH  23  24
ENDBRANCH  20  23
ENDBRANCH  16  17
ENDBRANCH   3  16
TORSDOF 5
ENDMDL
