MODEL 1
REMARK VINA RESULT:    -4.827      0.000      0.000
REMARK INTER + INTRA:          -8.485
REMARK INTER:                  -7.085
REMARK INTRA:                  -1.400
REMARK UNBOUND:                -1.400
REMARK  Name = 
REMARK  10 active torsions:
REMARK  status: ('A' for Active; 'I' for Inactive)
REMARK    1  A    between atoms: C_1  and  O_2
REMARK    2  A    between atoms: O_2  and  C_3
REMARK    3  A    between atoms: C_10  and  C_11
REMARK    4  A    between atoms: N_13  and  C_14
REMARK    5  A    between atoms: C_14  and  C_15
REMARK    6  A    between atoms: C_18  and  C_19
REMARK    7  A    between atoms: C_19  and  N_20
REMARK    8  A    between atoms: N_20  and  C_21
REMARK    9  A    between atoms: C_21  and  C_22
REMARK   10  A    between atoms: N_25  and  C_26
REMARK                            x       y       z     vdW  Elec       q    Type
REMARK                         _______ _______ _______ _____ _____    ______ ____
ROOT
ATOM      1  C   UNL     1      40.773  -2.964  17.389  0.00  0.00    +0.000 A 
ATOM      2  C   UNL     1      41.420  -4.132  16.964  0.00  0.00    +0.000 A 
ATOM      3  C   UNL     1      41.657  -4.357  15.607  0.00  0.00    +0.000 A 
ATOM      4  C   UNL     1      41.246  -3.426  14.646  0.00  0.00    +0.000 A 
ATOM      5  C   UNL     1      40.690  -2.214  15.081  0.00  0.00    +0.000 A 
ATOM      6  C   UNL     1      40.456  -1.984  16.441  0.00  0.00    +0.000 A 
ENDROOT
BRANCH   1   7
ATOM      7  C   UNL     1      40.419  -2.779  18.840  0.00  0.00    +0.000 C 
BRANCH   7  10
ATOM      8  C   UNL     1      38.816  -0.971  19.227  0.00  0.00    +0.000 C 
ATOM      9  O   UNL     1      37.872  -1.735  19.035  0.00  0.00    +0.000 OA
ATOM     10  N   UNL     1      40.110  -1.409  19.151  0.00  0.00    +0.000 N 
ATOM     11  H   UNL     1      40.881  -0.779  19.327  0.00  0.00    +0.000 HD
BRANCH   8  19
ATOM     12  C   UNL     1      38.363   1.804  17.242  0.00  0.00    +0.000 A 
ATOM     13  N   UNL     1      38.075   3.011  16.716  0.00  0.00    +0.000 NA
ATOM     14  C   UNL     1      37.844   4.021  17.560  0.00  0.00    +0.000 A 
ATOM     15  N   UNL     1      37.880   3.981  18.890  0.00  0.00    +0.000 NA
ATOM     16  C   UNL     1      38.154   2.757  19.369  0.00  0.00    +0.000 A 
ATOM     17  S   UNL     1      38.255   2.519  21.047  0.00  0.00    +0.000 S 
ATOM     18  C   UNL     1      38.573   0.864  20.842  0.00  0.00    +0.000 A 
ATOM     19  C   UNL     1      38.598   0.456  19.514  0.00  0.00    +0.000 A 
ATOM     20  C   UNL     1      38.384   1.600  18.633  0.00  0.00    +0.000 A 
BRANCH  12  22
ATOM     21  C   UNL     1      37.435   0.257  15.752  0.00  0.00    +0.000 C 
ATOM     22  O   UNL     1      38.613   0.759  16.377  0.00  0.00    +0.000 OA
ENDBRANCH  12  22
ENDBRANCH   8  19
ENDBRANCH   7  10
ENDBRANCH   1   7
BRANCH   4  23
ATOM     23  C   UNL     1      41.442  -3.669  13.168  0.00  0.00    +0.000 C 
BRANCH  23  24
ATOM     24  N   UNL     1      41.632  -2.432  12.391  0.00  0.00    +0.000 NA
ATOM     25  H   UNL     1      42.547  -2.466  11.941  0.00  0.00    +0.000 HD
BRANCH  24  26
ATOM     26  C   UNL     1      40.582  -2.342  11.379  0.00  0.00    +0.000 C 
BRANCH  26  27
ATOM     27  C   UNL     1      39.326  -3.191  11.675  0.00  0.00    +0.000 C 
ATOM     28  C   UNL     1      38.797  -3.983  10.474  0.00  0.00    +0.000 C 
ATOM     29  C   UNL     1      38.281  -3.066   9.362  0.00  0.00    +0.000 C 
ATOM     30  N   UNL     1      37.288  -2.086   9.832  0.00  0.00    +0.000 NA
ATOM     31  C   UNL     1      36.963  -1.154   8.747  0.00  0.00    +0.000 C 
ATOM     32  C   UNL     1      37.716  -1.340  11.023  0.00  0.00    +0.000 C 
ATOM     33  C   UNL     1      38.192  -2.266  12.149  0.00  0.00    +0.000 C 
ENDBRANCH  26  27
ENDBRANCH  24  26
ENDBRANCH  23  24
ENDBRANCH   4  23
TORSDOF 8
ENDMDL
MODEL 2
REMARK VINA RESULT:    -4.525      3.121      8.291
REMARK INTER + INTRA:          -8.041
REMARK INTER:                  -6.521
REMARK INTRA:                  -1.520
REMARK UNBOUND:                -1.400
REMARK  Name = 
REMARK  10 active torsions:
REMARK  status: ('A' for Active; 'I' for Inactive)
REMARK    1  A    between atoms: C_1  and  O_2
REMARK    2  A    between atoms: O_2  and  C_3
REMARK    3  A    between atoms: C_10  and  C_11
REMARK    4  A    between atoms: N_13  and  C_14
REMARK    5  A    between atoms: C_14  and  C_15
REMARK    6  A    between atoms: C_18  and  C_19
REMARK    7  A    between atoms: C_19  and  N_20
REMARK    8  A    between atoms: N_20  and  C_21
REMARK    9  A    between atoms: C_21  and  C_22
REMARK   10  A    between atoms: N_25  and  C_26
REMARK                            x       y       z     vdW  Elec       q    Type
REMARK                         _______ _______ _______ _____ _____    ______ ____
ROOT
ATOM      1  C   UNL     1      37.921  -1.099  12.141  0.00  0.00    +0.000 A 
ATOM      2  C   UNL     1      37.609  -1.317  13.489  0.00  0.00    +0.000 A 
ATOM      3  C   UNL     1      36.903  -0.357  14.218  0.00  0.00    +0.000 A 
ATOM      4  C   UNL     1      36.501   0.842  13.618  0.00  0.00    +0.000 A 
ATOM      5  C   UNL     1      36.726   1.012  12.244  0.00  0.00    +0.000 A 
ATOM      6  C   UNL     1      37.429   0.051  11.511  0.00  0.00    +0.000 A 
ENDROOT
BRANCH   1   7
ATOM      7  C   UNL     1      38.779  -2.083  11.393  0.00  0.00    +0.000 C 
BRANCH   7  10
ATOM      8  C   UNL     1      40.665  -3.041  12.625  0.00  0.00    +0.000 C 
ATOM      9  O   UNL     1      41.412  -2.153  12.218  0.00  0.00    +0.000 OA
ATOM     10  N   UNL     1      39.345  -3.079  12.264  0.00  0.00    +0.000 N 
ATOM     11  H   UNL     1      38.733  -3.801  12.616  0.00  0.00    +0.000 HD
BRANCH   8  19
ATOM     12  C   UNL     1      41.222  -3.302  16.010  0.00  0.00    +0.000 A 
ATOM     13  N   UNL     1      41.436  -3.699  17.281  0.00  0.00    +0.000 NA
ATOM     14  C   UNL     1      41.819  -4.963  17.484  0.00  0.00    +0.000 A 
ATOM     15  N   UNL     1      42.035  -5.895  16.560  0.00  0.00    +0.000 NA
ATOM     16  C   UNL     1      41.794  -5.461  15.312  0.00  0.00    +0.000 A 
ATOM     17  S   UNL     1      42.031  -6.512  14.000  0.00  0.00    +0.000 S 
ATOM     18  C   UNL     1      41.529  -5.324  12.895  0.00  0.00    +0.000 A 
ATOM     19  C   UNL     1      41.164  -4.122  13.490  0.00  0.00    +0.000 A 
ATOM     20  C   UNL     1      41.360  -4.195  14.934  0.00  0.00    +0.000 A 
BRANCH  12  22
ATOM     21  C   UNL     1      39.654  -1.636  16.502  0.00  0.00    +0.000 C 
ATOM     22  O   UNL     1      40.836  -1.996  15.793  0.00  0.00    +0.000 OA
ENDBRANCH  12  22
ENDBRANCH   8  19
ENDBRANCH   7  10
ENDBRANCH   1   7
BRANCH   4  23
ATOM     23  C   UNL     1      35.783   1.918  14.396  0.00  0.00    +0.000 C 
BRANCH  23  24
ATOM     24  N   UNL     1      35.539   1.560  15.804  0.00  0.00    +0.000 NA
ATOM     25  H   UNL     1      35.983   0.661  15.994  0.00  0.00    +0.000 HD
BRANCH  24  26
ATOM     26  C   UNL     1      36.117   2.592  16.662  0.00  0.00    +0.000 C 
BRANCH  26  27
ATOM     27  C   UNL     1      37.649   2.747  16.543  0.00  0.00    +0.000 C 
ATOM     28  C   UNL     1      38.454   1.602  17.168  0.00  0.00    +0.000 C 
ATOM     29  C   UNL     1      38.280   1.538  18.688  0.00  0.00    +0.000 C 
ATOM     30  N   UNL     1      38.565   2.817  19.358  0.00  0.00    +0.000 NA
ATOM     31  C   UNL     1      38.227   2.713  20.782  0.00  0.00    +0.000 C 
ATOM     32  C   UNL     1      37.868   3.963  18.760  0.00  0.00    +0.000 C 
ATOM     33  C   UNL     1      38.082   4.046  17.244  0.00  0.00    +0.000 C 
ENDBRANCH  26  27
ENDBRANCH  24  26
ENDBRANCH  23  24
ENDBRANCH   4  23
TORSDOF 8
ENDMDL
MODEL 3
REMARK VINA RESULT:    -4.445      3.377      8.443
REMARK INTER + INTRA:          -7.924
REMARK INTER:                  -6.925
REMARK INTRA:                  -0.999
REMARK UNBOUND:                -1.400
REMARK  Name = 
REMARK  10 active torsions:
REMARK  status: ('A' for Active; 'I' for Inactive)
REMARK    1  A    between atoms: C_1  and  O_2
REMARK    2  A    between atoms: O_2  and  C_3
REMARK    3  A    between atoms: C_10  and  C_11
REMARK    4  A    between atoms: N_13  and  C_14
REMARK    5  A    between atoms: C_14  and  C_15
REMARK    6  A    between atoms: C_18  and  C_19
REMARK    7  A    between atoms: C_19  and  N_20
REMARK    8  A    between atoms: N_20  and  C_21
REMARK    9  A    between atoms: C_21  and  C_22
REMARK   10  A    between atoms: N_25  and  C_26
REMARK                            x       y       z     vdW  Elec       q    Type
REMARK                         _______ _______ _______ _____ _____    ______ ____
ROOT
ATOM      1  C   UNL     1      40.388  -2.782  14.937  0.00  0.00    +0.000 A 
ATOM      2  C   UNL     1      41.047  -2.802  16.173  0.00  0.00    +0.000 A 
ATOM      3  C   UNL     1      40.482  -2.180  17.288  0.00  0.00    +0.000 A 
ATOM      4  C   UNL     1      39.252  -1.518  17.190  0.00  0.00    +0.000 A 
ATOM      5  C   UNL     1      38.549  -1.587  15.979  0.00  0.00    +0.000 A 
ATOM      6  C   UNL     1      39.110  -2.214  14.862  0.00  0.00    +0.000 A 
ENDROOT
BRANCH   1   7
ATOM      7  C   UNL     1      41.053  -3.355  13.714  0.00  0.00    +0.000 C 
BRANCH   7  10
ATOM      8  C   UNL     1      40.276  -2.593  11.523  0.00  0.00    +0.000 C 
ATOM      9  O   UNL     1      41.164  -1.744  11.477  0.00  0.00    +0.000 OA
ATOM     10  N   UNL     1      40.152  -3.433  12.596  0.00  0.00    +0.000 N 
ATOM     11  H   UNL     1      39.430  -4.140  12.619  0.00  0.00    +0.000 HD
BRANCH   8  19
ATOM     12  C   UNL     1      37.604  -0.674  10.513  0.00  0.00    +0.000 A 
ATOM     13  N   UNL     1      36.586  -0.076   9.863  0.00  0.00    +0.000 NA
ATOM     14  C   UNL     1      36.113  -0.670   8.763  0.00  0.00    +0.000 A 
ATOM     15  N   UNL     1      36.526  -1.817   8.229  0.00  0.00    +0.000 NA
ATOM     16  C   UNL     1      37.551  -2.367   8.900  0.00  0.00    +0.000 A 
ATOM     17  S   UNL     1      38.201  -3.844   8.370  0.00  0.00    +0.000 S 
ATOM     18  C   UNL     1      39.357  -3.836   9.613  0.00  0.00    +0.000 A 
ATOM     19  C   UNL     1      39.285  -2.722  10.441  0.00  0.00    +0.000 A 
ATOM     20  C   UNL     1      38.178  -1.864  10.034  0.00  0.00    +0.000 A 
BRANCH  12  22
ATOM     21  C   UNL     1      37.061   0.400  12.521  0.00  0.00    +0.000 C 
ATOM     22  O   UNL     1      38.090  -0.071  11.654  0.00  0.00    +0.000 OA
ENDBRANCH  12  22
ENDBRANCH   8  19
ENDBRANCH   7  10
ENDBRANCH   1   7
BRANCH   4  23
ATOM     23  C   UNL     1      38.644  -0.792  18.366  0.00  0.00    +0.000 C 
BRANCH  23  24
ATOM     24  N   UNL     1      37.729   0.293  17.975  0.00  0.00    +0.000 NA
ATOM     25  H   UNL     1      37.005   0.384  18.688  0.00  0.00    +0.000 HD
BRANCH  24  26
ATOM     26  C   UNL     1      38.486   1.539  17.874  0.00  0.00    +0.000 C 
BRANCH  26  27
ATOM     27  C   UNL     1      37.816   2.633  17.015  0.00  0.00    +0.000 C 
ATOM     28  C   UNL     1      38.157   4.068  17.435  0.00  0.00    +0.000 C 
ATOM     29  C   UNL     1      37.612   4.407  18.825  0.00  0.00    +0.000 C 
ATOM     30  N   UNL     1      36.171   4.139  18.964  0.00  0.00    +0.000 NA
ATOM     31  C   UNL     1      35.765   4.342  20.359  0.00  0.00    +0.000 C 
ATOM     32  C   UNL     1      35.775   2.798  18.516  0.00  0.00    +0.000 C 
ATOM     33  C   UNL     1      36.288   2.481  17.106  0.00  0.00    +0.000 C 
ENDBRANCH  26  27
ENDBRANCH  24  26
ENDBRANCH  23  24
ENDBRANCH   4  23
TORSDOF 8
ENDMDL
MODEL 4
REMARK VINA RESULT:    -4.441      3.103      7.559
REMARK INTER + INTRA:          -7.918
REMARK INTER:                  -6.195
REMARK INTRA:                  -1.723
REMARK UNBOUND:                -1.400
REMARK  Name = 
REMARK  10 active torsions:
REMARK  status: ('A' for Active; 'I' for Inactive)
REMARK    1  A    between atoms: C_1  and  O_2
REMARK    2  A    between atoms: O_2  and  C_3
REMARK    3  A    between atoms: C_10  and  C_11
REMARK    4  A    between atoms: N_13  and  C_14
REMARK    5  A    between atoms: C_14  and  C_15
REMARK    6  A    between atoms: C_18  and  C_19
REMARK    7  A    between atoms: C_19  and  N_20
REMARK    8  A    between atoms: N_20  and  C_21
REMARK    9  A    between atoms: C_21  and  C_22
REMARK   10  A    between atoms: N_25  and  C_26
REMARK                            x       y       z     vdW  Elec       q    Type
REMARK                         _______ _______ _______ _____ _____    ______ ____
ROOT
ATOM      1  C   UNL     1      40.029  -2.666  19.552  0.00  0.00    +0.000 A 
ATOM      2  C   UNL     1      40.367  -1.359  19.925  0.00  0.00    +0.000 A 
ATOM      3  C   UNL     1      39.370  -0.426  20.219  0.00  0.00    +0.000 A 
ATOM      4  C   UNL     1      38.017  -0.776  20.138  0.00  0.00    +0.000 A 
ATOM      5  C   UNL     1      37.686  -2.111  19.864  0.00  0.00    +0.000 A 
ATOM      6  C   UNL     1      38.682  -3.049  19.574  0.00  0.00    +0.000 A 
ENDROOT
BRANCH   1   7
ATOM      7  C   UNL     1      41.101  -3.634  19.127  0.00  0.00    +0.000 C 
BRANCH   7  10
ATOM      8  C   UNL     1      42.015  -4.283  16.952  0.00  0.00    +0.000 C 
ATOM      9  O   UNL     1      43.164  -4.131  17.363  0.00  0.00    +0.000 OA
ATOM     10  N   UNL     1      40.936  -4.059  17.763  0.00  0.00    +0.000 N 
ATOM     11  H   UNL     1      39.995  -4.203  17.424  0.00  0.00    +0.000 HD
BRANCH   8  19
ATOM     12  C   UNL     1      40.500  -2.716  14.289  0.00  0.00    +0.000 A 
ATOM     13  N   UNL     1      40.051  -2.309  13.085  0.00  0.00    +0.000 NA
ATOM     14  C   UNL     1      40.182  -3.148  12.053  0.00  0.00    +0.000 A 
ATOM     15  N   UNL     1      40.700  -4.374  12.076  0.00  0.00    +0.000 NA
ATOM     16  C   UNL     1      41.148  -4.730  13.291  0.00  0.00    +0.000 A 
ATOM     17  S   UNL     1      41.831  -6.269  13.512  0.00  0.00    +0.000 S 
ATOM     18  C   UNL     1      42.139  -5.949  15.152  0.00  0.00    +0.000 A 
ATOM     19  C   UNL     1      41.747  -4.680  15.560  0.00  0.00    +0.000 A 
ATOM     20  C   UNL     1      41.120  -3.967  14.452  0.00  0.00    +0.000 A 
BRANCH  12  22
ATOM     21  C   UNL     1      39.032  -1.821  15.877  0.00  0.00    +0.000 C 
ATOM     22  O   UNL     1      40.359  -1.858  15.360  0.00  0.00    +0.000 OA
ENDBRANCH  12  22
ENDBRANCH   8  19
ENDBRANCH   7  10
ENDBRANCH   1   7
BRANCH   4  23
ATOM     23  C   UNL     1      36.919   0.227  20.399  0.00  0.00    +0.000 C 
BRANCH  23  24
ATOM     24  N   UNL     1      37.384   1.624  20.377  0.00  0.00    +0.000 NA
ATOM     25  H   UNL     1      38.380   1.634  20.153  0.00  0.00    +0.000 HD
BRANCH  24  26
ATOM     26  C   UNL     1      36.638   2.356  19.356  0.00  0.00    +0.000 C 
BRANCH  26  27
ATOM     27  C   UNL     1      37.481   3.355  18.533  0.00  0.00    +0.000 C 
ATOM     28  C   UNL     1      36.737   3.996  17.356  0.00  0.00    +0.000 C 
ATOM     29  C   UNL     1      36.362   2.969  16.283  0.00  0.00    +0.000 C 
ATOM     30  N   UNL     1      37.509   2.172  15.818  0.00  0.00    +0.000 NA
ATOM     31  C   UNL     1      37.040   1.117  14.913  0.00  0.00    +0.000 C 
ATOM     32  C   UNL     1      38.299   1.585  16.907  0.00  0.00    +0.000 C 
ATOM     33  C   UNL     1      38.707   2.626  17.956  0.00  0.00    +0.000 C 
ENDBRANCH  26  27
ENDBRANCH  24  26
ENDBRANCH  23  24
ENDBRANCH   4  23
TORSDOF 8
ENDMDL
MODEL 5
REMARK VINA RESULT:    -4.437      4.444      8.854
REMARK INTER + INTRA:          -7.911
REMARK INTER:                  -6.061
REMARK INTRA:                  -1.851
REMARK UNBOUND:                -1.400
REMARK  Name = 
REMARK  10 active torsions:
REMARK  status: ('A' for Active; 'I' for Inactive)
REMARK    1  A    between atoms: C_1  and  O_2
REMARK    2  A    between atoms: O_2  and  C_3
REMARK    3  A    between atoms: C_10  and  C_11
REMARK    4  A    between atoms: N_13  and  C_14
REMARK    5  A    between atoms: C_14  and  C_15
REMARK    6  A    between atoms: C_18  and  C_19
REMARK    7  A    between atoms: C_19  and  N_20
REMARK    8  A    between atoms: N_20  and  C_21
REMARK    9  A    between atoms: C_21  and  C_22
REMARK   10  A    between atoms: N_25  and  C_26
REMARK                            x       y       z     vdW  Elec       q    Type
REMARK                         _______ _______ _______ _____ _____    ______ ____
ROOT
ATOM      1  C   UNL     1      38.579  -1.827  15.459  0.00  0.00    +0.000 A 
ATOM      2  C   UNL     1      37.889  -2.463  16.499  0.00  0.00    +0.000 A 
ATOM      3  C   UNL     1      38.569  -2.897  17.639  0.00  0.00    +0.000 A 
ATOM      4  C   UNL     1      39.951  -2.713  17.760  0.00  0.00    +0.000 A 
ATOM      5  C   UNL     1      40.620  -1.987  16.764  0.00  0.00    +0.000 A 
ATOM      6  C   UNL     1      39.941  -1.546  15.624  0.00  0.00    +0.000 A 
ENDROOT
BRANCH   1   7
ATOM      7  C   UNL     1      37.863  -1.463  14.186  0.00  0.00    +0.000 C 
BRANCH   7  10
ATOM      8  C   UNL     1      38.536  -1.994  11.894  0.00  0.00    +0.000 C 
ATOM      9  O   UNL     1      38.702  -0.802  11.641  0.00  0.00    +0.000 OA
ATOM     10  N   UNL     1      38.123  -2.406  13.131  0.00  0.00    +0.000 N 
ATOM     11  H   UNL     1      38.005  -3.388  13.337  0.00  0.00    +0.000 HD
BRANCH   8  19
ATOM     12  C   UNL     1      40.064  -5.077  11.906  0.00  0.00    +0.000 A 
ATOM     13  N   UNL     1      40.501  -6.329  11.662  0.00  0.00    +0.000 NA
ATOM     14  C   UNL     1      40.293  -6.837  10.444  0.00  0.00    +0.000 A 
ATOM     15  N   UNL     1      39.705  -6.235   9.412  0.00  0.00    +0.000 NA
ATOM     16  C   UNL     1      39.271  -4.998   9.706  0.00  0.00    +0.000 A 
ATOM     17  S   UNL     1      38.507  -4.073   8.505  0.00  0.00    +0.000 S 
ATOM     18  C   UNL     1      38.264  -2.785   9.584  0.00  0.00    +0.000 A 
ATOM     19  C   UNL     1      38.741  -3.028  10.867  0.00  0.00    +0.000 A 
ATOM     20  C   UNL     1      39.377  -4.340  10.926  0.00  0.00    +0.000 A 
BRANCH  12  22
ATOM     21  C   UNL     1      41.537  -3.875  13.269  0.00  0.00    +0.000 C 
ATOM     22  O   UNL     1      40.284  -4.544  13.158  0.00  0.00    +0.000 OA
ENDBRANCH  12  22
ENDBRANCH   8  19
ENDBRANCH   7  10
ENDBRANCH   1   7
BRANCH   4  23
ATOM     23  C   UNL     1      40.719  -3.220  18.958  0.00  0.00    +0.000 C 
BRANCH  23  24
ATOM     24  N   UNL     1      40.778  -4.689  19.037  0.00  0.00    +0.000 NA
ATOM     25  H   UNL     1      40.321  -5.080  18.213  0.00  0.00    +0.000 HD
BRANCH  24  26
ATOM     26  C   UNL     1      42.178  -5.106  19.074  0.00  0.00    +0.000 C 
BRANCH  26  27
ATOM     27  C   UNL     1      43.059  -4.507  17.955  0.00  0.00    +0.000 C 
ATOM     28  C   UNL     1      42.779  -5.069  16.556  0.00  0.00    +0.000 C 
ATOM     29  C   UNL     1      43.134  -6.554  16.451  0.00  0.00    +0.000 C 
ATOM     30  N   UNL     1      44.511  -6.854  16.879  0.00  0.00    +0.000 NA
ATOM     31  C   UNL     1      44.717  -8.306  16.894  0.00  0.00    +0.000 C 
ATOM     32  C   UNL     1      44.857  -6.284  18.188  0.00  0.00    +0.000 C 
ATOM     33  C   UNL     1      44.538  -4.787  18.272  0.00  0.00    +0.000 C 
ENDBRANCH  26  27
ENDBRANCH  24  26
ENDBRANCH  23  24
ENDBRANCH   4  23
TORSDOF 8
ENDMDL
MODEL 6
REMARK VINA RESULT:    -4.399      4.163      7.755
REMARK INTER + INTRA:          -7.856
REMARK INTER:                  -5.710
REMARK INTRA:                  -2.146
REMARK UNBOUND:                -1.400
REMARK  Name = 
REMARK  10 active torsions:
REMARK  status: ('A' for Active; 'I' for Inactive)
REMARK    1  A    between atoms: C_1  and  O_2
REMARK    2  A    between atoms: O_2  and  C_3
REMARK    3  A    between atoms: C_10  and  C_11
REMARK    4  A    between atoms: N_13  and  C_14
REMARK    5  A    between atoms: C_14  and  C_15
REMARK    6  A    between atoms: C_18  and  C_19
REMARK    7  A    between atoms: C_19  and  N_20
REMARK    8  A    between atoms: N_20  and  C_21
REMARK    9  A    between atoms: C_21  and  C_22
REMARK   10  A    between atoms: N_25  and  C_26
REMARK                            x       y       z     vdW  Elec       q    Type
REMARK                         _______ _______ _______ _____ _____    ______ ____
ROOT
ATOM      1  C   UNL     1      40.073  -5.905  12.617  0.00  0.00    +0.000 A 
ATOM      2  C   UNL     1      39.560  -6.486  13.783  0.00  0.00    +0.000 A 
ATOM      3  C   UNL     1      40.245  -6.369  14.994  0.00  0.00    +0.000 A 
ATOM      4  C   UNL     1      41.459  -5.676  15.064  0.00  0.00    +0.000 A 
ATOM      5  C   UNL     1      41.917  -5.010  13.918  0.00  0.00    +0.000 A 
ATOM      6  C   UNL     1      41.231  -5.122  12.705  0.00  0.00    +0.000 A 
ENDROOT
BRANCH   1   7
ATOM      7  C   UNL     1      39.391  -6.131  11.294  0.00  0.00    +0.000 C 
BRANCH   7  10
ATOM      8  C   UNL     1      38.716  -4.491   9.608  0.00  0.00    +0.000 C 
ATOM      9  O   UNL     1      39.457  -5.008   8.774  0.00  0.00    +0.000 OA
ATOM     10  N   UNL     1      38.623  -4.987  10.880  0.00  0.00    +0.000 N 
ATOM     11  H   UNL     1      37.999  -4.568  11.555  0.00  0.00    +0.000 HD
BRANCH   8  19
ATOM     12  C   UNL     1      38.536  -1.330  10.956  0.00  0.00    +0.000 A 
ATOM     13  N   UNL     1      38.337  -0.023  11.222  0.00  0.00    +0.000 NA
ATOM     14  C   UNL     1      37.484   0.650  10.444  0.00  0.00    +0.000 A 
ATOM     15  N   UNL     1      36.778   0.170   9.424  0.00  0.00    +0.000 NA
ATOM     16  C   UNL     1      37.019  -1.130   9.186  0.00  0.00    +0.000 A 
ATOM     17  S   UNL     1      36.195  -1.917   7.927  0.00  0.00    +0.000 S 
ATOM     18  C   UNL     1      37.008  -3.374   8.241  0.00  0.00    +0.000 A 
ATOM     19  C   UNL     1      37.921  -3.295   9.286  0.00  0.00    +0.000 A 
ATOM     20  C   UNL     1      37.897  -1.960   9.874  0.00  0.00    +0.000 A 
BRANCH  12  22
ATOM     21  C   UNL     1      40.754  -1.992  11.297  0.00  0.00    +0.000 C 
ATOM     22  O   UNL     1      39.408  -2.032  11.761  0.00  0.00    +0.000 OA
ENDBRANCH  12  22
ENDBRANCH   8  19
ENDBRANCH   7  10
ENDBRANCH   1   7
BRANCH   4  23
ATOM     23  C   UNL     1      42.246  -5.578  16.349  0.00  0.00    +0.000 C 
BRANCH  23  24
ATOM     24  N   UNL     1      42.423  -4.195  16.825  0.00  0.00    +0.000 NA
ATOM     25  H   UNL     1      42.751  -3.622  16.047  0.00  0.00    +0.000 HD
BRANCH  24  26
ATOM     26  C   UNL     1      41.139  -3.692  17.307  0.00  0.00    +0.000 C 
BRANCH  26  27
ATOM     27  C   UNL     1      40.857  -2.212  16.966  0.00  0.00    +0.000 C 
ATOM     28  C   UNL     1      39.731  -1.574  17.788  0.00  0.00    +0.000 C 
ATOM     29  C   UNL     1      38.370  -2.210  17.494  0.00  0.00    +0.000 C 
ATOM     30  N   UNL     1      38.038  -2.230  16.060  0.00  0.00    +0.000 NA
ATOM     31  C   UNL     1      36.800  -2.989  15.851  0.00  0.00    +0.000 C 
ATOM     32  C   UNL     1      39.108  -2.773  15.214  0.00  0.00    +0.000 C 
ATOM     33  C   UNL     1      40.460  -2.102  15.484  0.00  0.00    +0.000 C 
ENDBRANCH  26  27
ENDBRANCH  24  26
ENDBRANCH  23  24
ENDBRANCH   4  23
TORSDOF 8
ENDMDL
MODEL 7
REMARK VINA RESULT:    -4.335      2.873      7.867
REMARK INTER + INTRA:          -7.762
REMARK INTER:                  -6.523
REMARK INTRA:                  -1.238
REMARK UNBOUND:                -1.400
REMARK  Name = 
REMARK  10 active torsions:
REMARK  status: ('A' for Active; 'I' for Inactive)
REMARK    1  A    between atoms: C_1  and  O_2
REMARK    2  A    between atoms: O_2  and  C_3
REMARK    3  A    between atoms: C_10  and  C_11
REMARK    4  A    between atoms: N_13  and  C_14
REMARK    5  A    between atoms: C_14  and  C_15
REMARK    6  A    between atoms: C_18  and  C_19
REMARK    7  A    between atoms: C_19  and  N_20
REMARK    8  A    between atoms: N_20  and  C_21
REMARK    9  A    between atoms: C_21  and  C_22
REMARK   10  A    between atoms: N_25  and  C_26
REMARK                            x       y       z     vdW  Elec       q    Type
REMARK                         _______ _______ _______ _____ _____    ______ ____
ROOT
ATOM      1  C   UNL     1      41.240  -3.483  15.946  0.00  0.00    +0.000 A 
ATOM      2  C   UNL     1      40.778  -2.171  16.116  0.00  0.00    +0.000 A 
ATOM      3  C   UNL     1      40.387  -1.715  17.376  0.00  0.00    +0.000 A 
ATOM      4  C   UNL     1      40.439  -2.560  18.490  0.00  0.00    +0.000 A 
ATOM      5  C   UNL     1      40.996  -3.839  18.335  0.00  0.00    +0.000 A 
ATOM      6  C   UNL     1      41.394  -4.296  17.075  0.00  0.00    +0.000 A 
ENDROOT
BRANCH   1   7
ATOM      7  C   UNL     1      41.553  -4.004  14.569  0.00  0.00    +0.000 C 
BRANCH   7  10
ATOM      8  C   UNL     1      40.688  -2.904  12.561  0.00  0.00    +0.000 C 
ATOM      9  O   UNL     1      41.775  -2.367  12.358  0.00  0.00    +0.000 OA
ATOM     10  N   UNL     1      40.494  -3.731  13.634  0.00  0.00    +0.000 N 
ATOM     11  H   UNL     1      39.602  -4.182  13.785  0.00  0.00    +0.000 HD
BRANCH   8  19
ATOM     12  C   UNL     1      37.720  -1.207  12.961  0.00  0.00    +0.000 A 
ATOM     13  N   UNL     1      36.554  -0.547  12.818  0.00  0.00    +0.000 NA
ATOM     14  C   UNL     1      35.947  -0.602  11.628  0.00  0.00    +0.000 A 
ATOM     15  N   UNL     1      36.358  -1.259  10.546  0.00  0.00    +0.000 NA
ATOM     16  C   UNL     1      37.531  -1.888  10.730  0.00  0.00    +0.000 A 
ATOM     17  S   UNL     1      38.203  -2.791   9.459  0.00  0.00    +0.000 S 
ATOM     18  C   UNL     1      39.557  -3.197  10.400  0.00  0.00    +0.000 A 
ATOM     19  C   UNL     1      39.536  -2.654  11.680  0.00  0.00    +0.000 A 
ATOM     20  C   UNL     1      38.303  -1.902  11.886  0.00  0.00    +0.000 A 
BRANCH  12  22
ATOM     21  C   UNL     1      37.655  -0.361  15.141  0.00  0.00    +0.000 C 
ATOM     22  O   UNL     1      38.347  -1.163  14.188  0.00  0.00    +0.000 OA
ENDBRANCH  12  22
ENDBRANCH   8  19
ENDBRANCH   7  10
ENDBRANCH   1   7
BRANCH   4  23
ATOM     23  C   UNL     1      39.972  -2.110  19.853  0.00  0.00    +0.000 C 
BRANCH  23  24
ATOM     24  N   UNL     1      38.892  -1.110  19.802  0.00  0.00    +0.000 NA
ATOM     25  H   UNL     1      38.095  -1.462  20.334  0.00  0.00    +0.000 HD
BRANCH  24  26
ATOM     26  C   UNL     1      39.372   0.138  20.391  0.00  0.00    +0.000 C 
BRANCH  26  27
ATOM     27  C   UNL     1      38.258   1.101  20.858  0.00  0.00    +0.000 C 
ATOM     28  C   UNL     1      37.110   1.276  19.857  0.00  0.00    +0.000 C 
ATOM     29  C   UNL     1      37.569   1.957  18.566  0.00  0.00    +0.000 C 
ATOM     30  N   UNL     1      38.271   3.230  18.800  0.00  0.00    +0.000 NA
ATOM     31  C   UNL     1      38.809   3.736  17.532  0.00  0.00    +0.000 C 
ATOM     32  C   UNL     1      39.343   3.137  19.799  0.00  0.00    +0.000 C 
ATOM     33  C   UNL     1      38.865   2.492  21.105  0.00  0.00    +0.000 C 
ENDBRANCH  26  27
ENDBRANCH  24  26
ENDBRANCH  23  24
ENDBRANCH   4  23
TORSDOF 8
ENDMDL
MODEL 8
REMARK VINA RESULT:    -4.193      3.019      4.837
REMARK INTER + INTRA:          -7.554
REMARK INTER:                  -5.786
REMARK INTRA:                  -1.768
REMARK UNBOUND:                -1.400
REMARK  Name = 
REMARK  10 active torsions:
REMARK  status: ('A' for Active; 'I' for Inactive)
REMARK    1  A    between atoms: C_1  and  O_2
REMARK    2  A    between atoms: O_2  and  C_3
REMARK    3  A    between atoms: C_10  and  C_11
REMARK    4  A    between atoms: N_13  and  C_14
REMARK    5  A    between atoms: C_14  and  C_15
REMARK    6  A    between atoms: C_18  and  C_19
REMARK    7  A    between atoms: C_19  and  N_20
REMARK    8  A    between atoms: N_20  and  C_21
REMARK    9  A    between atoms: C_21  and  C_22
REMARK   10  A    between atoms: N_25  and  C_26
REMARK                            x       y       z     vdW  Elec       q    Type
REMARK                         _______ _______ _______ _____ _____    ______ ____
ROOT
ATOM      1  C   UNL     1      40.705  -3.932  12.778  0.00  0.00    +0.000 A 
ATOM      2  C   UNL     1      39.713  -4.816  12.335  0.00  0.00    +0.000 A 
ATOM      3  C   UNL     1      38.879  -4.471  11.270  0.00  0.00    +0.000 A 
ATOM      4  C   UNL     1      39.012  -3.233  10.631  0.00  0.00    +0.000 A 
ATOM      5  C   UNL     1      40.070  -2.394  11.010  0.00  0.00    +0.000 A 
ATOM      6  C   UNL     1      40.910  -2.739  12.073  0.00  0.00    +0.000 A 
ENDROOT
BRANCH   1   7
ATOM      7  C   UNL     1      41.525  -4.260  13.997  0.00  0.00    +0.000 C 
BRANCH   7  10
ATOM      8  C   UNL     1      40.612  -3.944  16.245  0.00  0.00    +0.000 C 
ATOM      9  O   UNL     1      40.367  -5.145  16.340  0.00  0.00    +0.000 OA
ATOM     10  N   UNL     1      41.187  -3.424  15.117  0.00  0.00    +0.000 N 
ATOM     11  H   UNL     1      41.401  -2.439  15.053  0.00  0.00    +0.000 HD
BRANCH   8  19
ATOM     12  C   UNL     1      39.054  -0.876  16.314  0.00  0.00    +0.000 A 
ATOM     13  N   UNL     1      38.406   0.262  16.631  0.00  0.00    +0.000 NA
ATOM     14  C   UNL     1      38.308   0.585  17.925  0.00  0.00    +0.000 A 
ATOM     15  N   UNL     1      38.798  -0.091  18.961  0.00  0.00    +0.000 NA
ATOM     16  C   UNL     1      39.420  -1.225  18.599  0.00  0.00    +0.000 A 
ATOM     17  S   UNL     1      40.122  -2.211  19.790  0.00  0.00    +0.000 S 
ATOM     18  C   UNL     1      40.625  -3.341  18.626  0.00  0.00    +0.000 A 
ATOM     19  C   UNL     1      40.267  -3.006  17.325  0.00  0.00    +0.000 A 
ATOM     20  C   UNL     1      39.578  -1.719  17.309  0.00  0.00    +0.000 A 
BRANCH  12  22
ATOM     21  C   UNL     1      37.993  -1.822  14.455  0.00  0.00    +0.000 C 
ATOM     22  O   UNL     1      39.167  -1.210  14.981  0.00  0.00    +0.000 OA
ENDBRANCH  12  22
ENDBRANCH   8  19
ENDBRANCH   7  10
ENDBRANCH   1   7
BRANCH   4  23
ATOM     23  C   UNL     1      38.090  -2.812   9.512  0.00  0.00    +0.000 C 
BRANCH  23  24
ATOM     24  N   UNL     1      38.648  -3.055   8.170  0.00  0.00    +0.000 NA
ATOM     25  H   UNL     1      39.629  -3.318   8.267  0.00  0.00    +0.000 HD
BRANCH  24  26
ATOM     26  C   UNL     1      37.902  -4.139   7.535  0.00  0.00    +0.000 C 
BRANCH  26  27
ATOM     27  C   UNL     1      38.410  -5.557   7.875  0.00  0.00    +0.000 C 
ATOM     28  C   UNL     1      39.929  -5.733   7.754  0.00  0.00    +0.000 C 
ATOM     29  C   UNL     1      40.414  -5.581   6.310  0.00  0.00    +0.000 C 
ATOM     30  N   UNL     1      39.700  -6.454   5.364  0.00  0.00    +0.000 NA
ATOM     31  C   UNL     1      40.114  -6.137   3.993  0.00  0.00    +0.000 C 
ATOM     32  C   UNL     1      38.238  -6.375   5.478  0.00  0.00    +0.000 C 
ATOM     33  C   UNL     1      37.756  -6.570   6.920  0.00  0.00    +0.000 C 
ENDBRANCH  26  27
ENDBRANCH  24  26
ENDBRANCH  23  24
ENDBRANCH   4  23
TORSDOF 8
ENDMDL
MODEL 9
REMARK VINA RESULT:    -4.124      3.064      6.118
REMARK INTER + INTRA:          -7.452
REMARK INTER:                  -5.555
REMARK INTRA:                  -1.897
REMARK UNBOUND:                -1.400
REMARK  Name = 
REMARK  10 active torsions:
REMARK  status: ('A' for Active; 'I' for Inactive)
REMARK    1  A    between atoms: C_1  and  O_2
REMARK    2  A    between atoms: O_2  and  C_3
REMARK    3  A    between atoms: C_10  and  C_11
REMARK    4  A    between atoms: N_13  and  C_14
REMARK    5  A    between atoms: C_14  and  C_15
REMARK    6  A    between atoms: C_18  and  C_19
REMARK    7  A    between atoms: C_19  and  N_20
REMARK    8  A    between atoms: N_20  and  C_21
REMARK    9  A    between atoms: C_21  and  C_22
REMARK   10  A    between atoms: N_25  and  C_26
REMARK                            x       y       z     vdW  Elec       q    Type
REMARK                         _______ _______ _______ _____ _____    ______ ____
ROOT
ATOM      1  C   UNL     1      39.571  -5.412  14.393  0.00  0.00    +0.000 A 
ATOM      2  C   UNL     1      40.826  -5.272  13.788  0.00  0.00    +0.000 A 
ATOM      3  C   UNL     1      41.904  -6.057  14.202  0.00  0.00    +0.000 A 
ATOM      4  C   UNL     1      41.754  -6.990  15.234  0.00  0.00    +0.000 A 
ATOM      5  C   UNL     1      40.474  -7.199  15.767  0.00  0.00    +0.000 A 
ATOM      6  C   UNL     1      39.391  -6.418  15.351  0.00  0.00    +0.000 A 
ENDROOT
BRANCH   1   7
ATOM      7  C   UNL     1      38.443  -4.487  14.022  0.00  0.00    +0.000 C 
BRANCH   7  10
ATOM      8  C   UNL     1      38.833  -2.233  14.890  0.00  0.00    +0.000 C 
ATOM      9  O   UNL     1      39.559  -1.965  13.934  0.00  0.00    +0.000 OA
ATOM     10  N   UNL     1      38.240  -3.460  15.008  0.00  0.00    +0.000 N 
ATOM     11  H   UNL     1      37.630  -3.667  15.787  0.00  0.00    +0.000 HD
BRANCH   8  19
ATOM     12  C   UNL     1      37.368   0.879  14.992  0.00  0.00    +0.000 A 
ATOM     13  N   UNL     1      36.777   2.044  15.326  0.00  0.00    +0.000 NA
ATOM     14  C   UNL     1      36.787   2.402  16.613  0.00  0.00    +0.000 A 
ATOM     15  N   UNL     1      37.337   1.740  17.627  0.00  0.00    +0.000 NA
ATOM     16  C   UNL     1      37.899   0.579  17.251  0.00  0.00    +0.000 A 
ATOM     17  S   UNL     1      38.663  -0.395  18.412  0.00  0.00    +0.000 S 
ATOM     18  C   UNL     1      39.046  -1.569  17.245  0.00  0.00    +0.000 A 
ATOM     19  C   UNL     1      38.597  -1.258  15.967  0.00  0.00    +0.000 A 
ATOM     20  C   UNL     1      37.945   0.047  15.967  0.00  0.00    +0.000 A 
BRANCH  12  22
ATOM     21  C   UNL     1      36.125  -0.035  13.232  0.00  0.00    +0.000 C 
ATOM     22  O   UNL     1      37.370   0.508  13.663  0.00  0.00    +0.000 OA
ENDBRANCH  12  22
ENDBRANCH   8  19
ENDBRANCH   7  10
ENDBRANCH   1   7
BRANCH   4  23
ATOM     23  C   UNL     1      42.915  -7.814  15.737  0.00  0.00    +0.000 C 
BRANCH  23  24
ATOM     24  N   UNL     1      44.021  -7.002  16.272  0.00  0.00    +0.000 NA
ATOM     25  H   UNL     1      44.202  -6.230  15.629  0.00  0.00    +0.000 HD
BRANCH  24  26
ATOM     26  C   UNL     1      43.636  -6.479  17.581  0.00  0.00    +0.000 C 
BRANCH  26  27
ATOM     27  C   UNL     1      43.884  -4.967  17.769  0.00  0.00    +0.000 C 
ATOM     28  C   UNL     1      44.200  -4.550  19.211  0.00  0.00    +0.000 C 
ATOM     29  C   UNL     1      43.012  -4.775  20.150  0.00  0.00    +0.000 C 
ATOM     30  N   UNL     1      41.769  -4.147  19.674  0.00  0.00    +0.000 NA
ATOM     31  C   UNL     1      40.655  -4.538  20.544  0.00  0.00    +0.000 C 
ATOM     32  C   UNL     1      41.448  -4.460  18.276  0.00  0.00    +0.000 C 
ATOM     33  C   UNL     1      42.628  -4.191  17.334  0.00  0.00    +0.000 C 
ENDBRANCH  26  27
ENDBRANCH  24  26
ENDBRANCH  23  24
ENDBRANCH   4  23
TORSDOF 8
ENDMDL
