MODEL 1
REMARK VINA RESULT:    -7.962      0.000      0.000
REMARK INTER + INTRA:         -12.938
REMARK INTER:                 -11.686
REMARK INTRA:                  -1.252
REMARK UNBOUND:                -1.252
REMARK  Name = 
REMARK  8 active torsions:
REMARK  status: ('A' for Active; 'I' for Inactive)
REMARK    1  A    between atoms: C_2  and  C_3
REMARK    2  A    between atoms: C_3  and  N_4
REMARK    3  A    between atoms: C_3  and  C_26
REMARK    4  A    between atoms: N_4  and  C_5
REMARK    5  A    between atoms: C_5  and  C_6
REMARK    6  A    between atoms: C_9  and  C_10
REMARK    7  A    between atoms: C_10  and  N_11
REMARK    8  A    between atoms: C_12  and  C_14
REMARK                            x       y       z     vdW  Elec       q    Type
REMARK                         _______ _______ _______ _____ _____    ______ ____
ROOT
ATOM      1  C   UNL     1      45.475   6.740  11.314  0.00  0.00    +0.000 A 
ATOM      2  C   UNL     1      46.779   6.283  11.490  0.00  0.00    +0.000 A 
ATOM      3  C   UNL     1      47.587   6.893  12.447  0.00  0.00    +0.000 A 
ATOM      4  C   UNL     1      47.091   7.960  13.197  0.00  0.00    +0.000 A 
ATOM      5  C   UNL     1      45.774   8.343  12.960  0.00  0.00    +0.000 A 
ATOM      6  N   UNL     1      44.961   7.764  12.043  0.00  0.00    +0.000 NA
ENDROOT
BRANCH   1   7
ATOM      7  C   UNL     1      44.560   6.080  10.297  0.00  0.00    +0.000 C 
BRANCH   7   8
ATOM      8  N   UNL     1      45.318   5.344   9.273  0.00  0.00    +0.000 NA
ATOM      9  H   UNL     1      45.382   5.953   8.453  0.00  0.00    +0.000 HD
BRANCH   8  10
ATOM     10  C   UNL     1      44.644   4.081   8.871  0.00  0.00    +0.000 C 
BRANCH  10  11
ATOM     11  C   UNL     1      45.635   3.138   8.186  0.00  0.00    +0.000 A 
ATOM     12  C   UNL     1      46.506   3.611   7.199  0.00  0.00    +0.000 A 
ATOM     13  C   UNL     1      47.408   2.728   6.610  0.00  0.00    +0.000 A 
ATOM     14  C   UNL     1      47.414   1.398   7.007  0.00  0.00    +0.000 A 
ATOM     15  C   UNL     1      46.510   1.003   7.978  0.00  0.00    +0.000 A 
ATOM     16  N   UNL     1      45.625   1.836   8.574  0.00  0.00    +0.000 NA
ENDBRANCH  10  11
BRANCH  10  18
ATOM     17  N   UNL     1      43.525   2.790  11.065  0.00  0.00    +0.000 NA
ATOM     18  C   UNL     1      44.032   3.375  10.070  0.00  0.00    +0.000 C 
ENDBRANCH  10  18
ENDBRANCH   8  10
ENDBRANCH   7   8
ENDBRANCH   1   7
BRANCH   4  19
ATOM     19  C   UNL     1      47.912   8.609  14.271  0.00  0.00    +0.000 C 
BRANCH  19  20
ATOM     20  N   UNL     1      48.176   7.669  15.332  0.00  0.00    +0.000 N 
ATOM     21  C   UNL     1      49.420   7.137  15.551  0.00  0.00    +0.000 C 
ATOM     22  O   UNL     1      50.397   7.462  14.883  0.00  0.00    +0.000 OA
ATOM     23  H   UNL     1      47.368   7.200  15.725  0.00  0.00    +0.000 HD
BRANCH  21  24
ATOM     24  C   UNL     1      49.528   6.210  16.685  0.00  0.00    +0.000 A 
ATOM     25  C   UNL     1      50.452   6.449  17.692  0.00  0.00    +0.000 A 
ATOM     26  S   UNL     1      50.366   5.331  18.977  0.00  0.00    +0.000 S 
ATOM     27  C   UNL     1      49.128   4.453  18.207  0.00  0.00    +0.000 A 
ATOM     28  N   UNL     1      48.587   3.346  18.784  0.00  0.00    +0.000 NA
ATOM     29  C   UNL     1      47.680   2.762  18.074  0.00  0.00    +0.000 A 
ATOM     30  N   UNL     1      47.268   3.180  16.835  0.00  0.00    +0.000 N 
ATOM     31  C   UNL     1      47.772   4.301  16.222  0.00  0.00    +0.000 A 
ATOM     32  O   UNL     1      47.364   4.661  15.122  0.00  0.00    +0.000 OA
ATOM     33  C   UNL     1      48.789   5.004  16.983  0.00  0.00    +0.000 A 
ATOM     34  H   UNL     1      46.556   2.676  16.329  0.00  0.00    +0.000 HD
ENDBRANCH  21  24
ENDBRANCH  19  20
ENDBRANCH   4  19
TORSDOF 8
ENDMDL
MODEL 2
REMARK VINA RESULT:    -7.777      2.562      3.094
REMARK INTER + INTRA:         -12.667
REMARK INTER:                 -11.650
REMARK INTRA:                  -1.017
REMARK UNBOUND:                -1.252
REMARK  Name = 
REMARK  8 active torsions:
REMARK  status: ('A' for Active; 'I' for Inactive)
REMARK    1  A    between atoms: C_2  and  C_3
REMARK    2  A    between atoms: C_3  and  N_4
REMARK    3  A    between atoms: C_3  and  C_26
REMARK    4  A    between atoms: N_4  and  C_5
REMARK    5  A    between atoms: C_5  and  C_6
REMARK    6  A    between atoms: C_9  and  C_10
REMARK    7  A    between atoms: C_10  and  N_11
REMARK    8  A    between atoms: C_12  and  C_14
REMARK                            x       y       z     vdW  Elec       q    Type
REMARK                         _______ _______ _______ _____ _____    ______ ____
ROOT
ATOM      1  C   UNL     1      46.632   4.800  13.458  0.00  0.00    +0.000 A 
ATOM      2  C   UNL     1      47.288   5.963  13.060  0.00  0.00    +0.000 A 
ATOM      3  C   UNL     1      48.079   6.644  13.983  0.00  0.00    +0.000 A 
ATOM      4  C   UNL     1      48.188   6.167  15.290  0.00  0.00    +0.000 A 
ATOM      5  C   UNL     1      47.506   4.993  15.595  0.00  0.00    +0.000 A 
ATOM      6  N   UNL     1      46.735   4.304  14.718  0.00  0.00    +0.000 NA
ENDROOT
BRANCH   1   7
ATOM      7  C   UNL     1      45.783   4.021  12.469  0.00  0.00    +0.000 C 
BRANCH   7   8
ATOM      8  N   UNL     1      45.305   4.870  11.367  0.00  0.00    +0.000 NA
ATOM      9  H   UNL     1      44.776   5.639  11.789  0.00  0.00    +0.000 HD
BRANCH   8  10
ATOM     10  C   UNL     1      44.408   4.136  10.436  0.00  0.00    +0.000 C 
BRANCH  10  11
ATOM     11  C   UNL     1      45.212   3.518   9.291  0.00  0.00    +0.000 A 
ATOM     12  C   UNL     1      45.787   4.326   8.305  0.00  0.00    +0.000 A 
ATOM     13  C   UNL     1      46.527   3.731   7.286  0.00  0.00    +0.000 A 
ATOM     14  C   UNL     1      46.668   2.350   7.267  0.00  0.00    +0.000 A 
ATOM     15  C   UNL     1      46.054   1.618   8.268  0.00  0.00    +0.000 A 
ATOM     16  N   UNL     1      45.333   2.165   9.274  0.00  0.00    +0.000 NA
ENDBRANCH  10  11
BRANCH  10  18
ATOM     17  N   UNL     1      43.011   2.125  11.757  0.00  0.00    +0.000 NA
ATOM     18  C   UNL     1      43.644   3.037  11.158  0.00  0.00    +0.000 C 
ENDBRANCH  10  18
ENDBRANCH   8  10
ENDBRANCH   7   8
ENDBRANCH   1   7
BRANCH   4  19
ATOM     19  C   UNL     1      49.070   6.843  16.298  0.00  0.00    +0.000 C 
BRANCH  19  20
ATOM     20  N   UNL     1      50.136   5.958  16.699  0.00  0.00    +0.000 N 
ATOM     21  C   UNL     1      50.305   5.552  17.996  0.00  0.00    +0.000 C 
ATOM     22  O   UNL     1      49.533   5.882  18.892  0.00  0.00    +0.000 OA
ATOM     23  H   UNL     1      50.915   5.877  16.056  0.00  0.00    +0.000 HD
BRANCH  21  24
ATOM     24  C   UNL     1      51.427   4.634  18.237  0.00  0.00    +0.000 A 
ATOM     25  C   UNL     1      52.574   5.091  18.871  0.00  0.00    +0.000 A 
ATOM     26  S   UNL     1      53.727   3.867  19.161  0.00  0.00    +0.000 S 
ATOM     27  C   UNL     1      52.757   2.694  18.401  0.00  0.00    +0.000 A 
ATOM     28  N   UNL     1      53.167   1.400  18.303  0.00  0.00    +0.000 NA
ATOM     29  C   UNL     1      52.347   0.626  17.674  0.00  0.00    +0.000 A 
ATOM     30  N   UNL     1      51.155   1.028  17.129  0.00  0.00    +0.000 N 
ATOM     31  C   UNL     1      50.692   2.318  17.220  0.00  0.00    +0.000 A 
ATOM     32  O   UNL     1      49.609   2.640  16.740  0.00  0.00    +0.000 OA
ATOM     33  C   UNL     1      51.573   3.229  17.928  0.00  0.00    +0.000 A 
ATOM     34  H   UNL     1      50.559   0.373  16.645  0.00  0.00    +0.000 HD
ENDBRANCH  21  24
ENDBRANCH  19  20
ENDBRANCH   4  19
TORSDOF 8
ENDMDL
MODEL 3
REMARK VINA RESULT:    -7.502      0.926      1.361
REMARK INTER + INTRA:         -12.263
REMARK INTER:                 -11.262
REMARK INTRA:                  -1.001
REMARK UNBOUND:                -1.252
REMARK  Name = 
REMARK  8 active torsions:
REMARK  status: ('A' for Active; 'I' for Inactive)
REMARK    1  A    between atoms: C_2  and  C_3
REMARK    2  A    between atoms: C_3  and  N_4
REMARK    3  A    between atoms: C_3  and  C_26
REMARK    4  A    between atoms: N_4  and  C_5
REMARK    5  A    between atoms: C_5  and  C_6
REMARK    6  A    between atoms: C_9  and  C_10
REMARK    7  A    between atoms: C_10  and  N_11
REMARK    8  A    between atoms: C_12  and  C_14
REMARK                            x       y       z     vdW  Elec       q    Type
REMARK                         _______ _______ _______ _____ _____    ______ ____
ROOT
ATOM      1  C   UNL     1      45.422   6.733  11.887  0.00  0.00    +0.000 A 
ATOM      2  C   UNL     1      45.237   8.075  12.210  0.00  0.00    +0.000 A 
ATOM      3  C   UNL     1      46.177   8.714  13.015  0.00  0.00    +0.000 A 
ATOM      4  C   UNL     1      47.274   8.001  13.502  0.00  0.00    +0.000 A 
ATOM      5  C   UNL     1      47.383   6.668  13.120  0.00  0.00    +0.000 A 
ATOM      6  N   UNL     1      46.490   6.020  12.331  0.00  0.00    +0.000 NA
ENDROOT
BRANCH   1   7
ATOM      7  C   UNL     1      44.429   6.014  10.991  0.00  0.00    +0.000 C 
BRANCH   7   8
ATOM      8  N   UNL     1      45.069   5.483   9.778  0.00  0.00    +0.000 NA
ATOM      9  H   UNL     1      44.999   6.210   9.059  0.00  0.00    +0.000 HD
BRANCH   8  10
ATOM     10  C   UNL     1      44.395   4.257   9.274  0.00  0.00    +0.000 C 
BRANCH  10  11
ATOM     11  C   UNL     1      45.379   3.386   8.491  0.00  0.00    +0.000 A 
ATOM     12  C   UNL     1      45.491   2.017   8.758  0.00  0.00    +0.000 A 
ATOM     13  C   UNL     1      46.385   1.251   8.015  0.00  0.00    +0.000 A 
ATOM     14  C   UNL     1      47.151   1.864   7.033  0.00  0.00    +0.000 A 
ATOM     15  C   UNL     1      46.996   3.226   6.839  0.00  0.00    +0.000 A 
ATOM     16  N   UNL     1      46.133   3.997   7.541  0.00  0.00    +0.000 NA
ENDBRANCH  10  11
BRANCH  10  18
ATOM     17  N   UNL     1      43.320   2.766  11.362  0.00  0.00    +0.000 NA
ATOM     18  C   UNL     1      43.807   3.441  10.415  0.00  0.00    +0.000 C 
ENDBRANCH  10  18
ENDBRANCH   8  10
ENDBRANCH   7   8
ENDBRANCH   1   7
BRANCH   4  19
ATOM     19  C   UNL     1      48.334   8.666  14.329  0.00  0.00    +0.000 C 
BRANCH  19  20
ATOM     20  N   UNL     1      48.603   7.888  15.513  0.00  0.00    +0.000 N 
ATOM     21  C   UNL     1      49.825   7.317  15.755  0.00  0.00    +0.000 C 
ATOM     22  O   UNL     1      50.780   7.469  15.000  0.00  0.00    +0.000 OA
ATOM     23  H   UNL     1      47.793   7.540  16.012  0.00  0.00    +0.000 HD
BRANCH  21  24
ATOM     24  C   UNL     1      49.943   6.573  17.016  0.00  0.00    +0.000 A 
ATOM     25  C   UNL     1      50.818   7.010  18.001  0.00  0.00    +0.000 A 
ATOM     26  S   UNL     1      50.747   6.088  19.435  0.00  0.00    +0.000 S 
ATOM     27  C   UNL     1      49.586   5.038  18.770  0.00  0.00    +0.000 A 
ATOM     28  N   UNL     1      49.085   3.997  19.491  0.00  0.00    +0.000 NA
ATOM     29  C   UNL     1      48.236   3.264  18.851  0.00  0.00    +0.000 A 
ATOM     30  N   UNL     1      47.845   3.472  17.554  0.00  0.00    +0.000 N 
ATOM     31  C   UNL     1      48.309   4.518  16.795  0.00  0.00    +0.000 A 
ATOM     32  O   UNL     1      47.921   4.689  15.643  0.00  0.00    +0.000 OA
ATOM     33  C   UNL     1      49.260   5.383  17.471  0.00  0.00    +0.000 A 
ATOM     34  H   UNL     1      47.179   2.859  17.109  0.00  0.00    +0.000 HD
ENDBRANCH  21  24
ENDBRANCH  19  20
ENDBRANCH   4  19
TORSDOF 8
ENDMDL
MODEL 4
REMARK VINA RESULT:    -7.088      2.120      2.879
REMARK INTER + INTRA:         -11.655
REMARK INTER:                 -10.690
REMARK INTRA:                  -0.965
REMARK UNBOUND:                -1.252
REMARK  Name = 
REMARK  8 active torsions:
REMARK  status: ('A' for Active; 'I' for Inactive)
REMARK    1  A    between atoms: C_2  and  C_3
REMARK    2  A    between atoms: C_3  and  N_4
REMARK    3  A    between atoms: C_3  and  C_26
REMARK    4  A    between atoms: N_4  and  C_5
REMARK    5  A    between atoms: C_5  and  C_6
REMARK    6  A    between atoms: C_9  and  C_10
REMARK    7  A    between atoms: C_10  and  N_11
REMARK    8  A    between atoms: C_12  and  C_14
REMARK                            x       y       z     vdW  Elec       q    Type
REMARK                         _______ _______ _______ _____ _____    ______ ____
ROOT
ATOM      1  C   UNL     1      45.755   6.467  12.114  0.00  0.00    +0.000 A 
ATOM      2  C   UNL     1      46.571   5.512  12.715  0.00  0.00    +0.000 A 
ATOM      3  C   UNL     1      47.532   5.925  13.635  0.00  0.00    +0.000 A 
ATOM      4  C   UNL     1      47.677   7.283  13.926  0.00  0.00    +0.000 A 
ATOM      5  C   UNL     1      46.812   8.164  13.285  0.00  0.00    +0.000 A 
ATOM      6  N   UNL     1      45.862   7.792  12.392  0.00  0.00    +0.000 NA
ENDROOT
BRANCH   1   7
ATOM      7  C   UNL     1      44.681   6.046  11.125  0.00  0.00    +0.000 C 
BRANCH   7   8
ATOM      8  N   UNL     1      45.257   5.523   9.878  0.00  0.00    +0.000 NA
ATOM      9  H   UNL     1      45.225   6.282   9.191  0.00  0.00    +0.000 HD
BRANCH   8  10
ATOM     10  C   UNL     1      44.489   4.369   9.341  0.00  0.00    +0.000 C 
BRANCH  10  11
ATOM     11  C   UNL     1      45.397   3.456   8.515  0.00  0.00    +0.000 A 
ATOM     12  C   UNL     1      45.492   2.091   8.804  0.00  0.00    +0.000 A 
ATOM     13  C   UNL     1      46.315   1.286   8.021  0.00  0.00    +0.000 A 
ATOM     14  C   UNL     1      47.031   1.859   6.978  0.00  0.00    +0.000 A 
ATOM     15  C   UNL     1      46.897   3.220   6.765  0.00  0.00    +0.000 A 
ATOM     16  N   UNL     1      46.102   4.028   7.504  0.00  0.00    +0.000 NA
ENDBRANCH  10  11
BRANCH  10  18
ATOM     17  N   UNL     1      43.328   2.886  11.387  0.00  0.00    +0.000 NA
ATOM     18  C   UNL     1      43.854   3.559  10.460  0.00  0.00    +0.000 C 
ENDBRANCH  10  18
ENDBRANCH   8  10
ENDBRANCH   7   8
ENDBRANCH   1   7
BRANCH   4  19
ATOM     19  C   UNL     1      48.665   7.762  14.948  0.00  0.00    +0.000 C 
BRANCH  19  20
ATOM     20  N   UNL     1      49.392   6.646  15.499  0.00  0.00    +0.000 N 
ATOM     21  C   UNL     1      49.163   6.170  16.763  0.00  0.00    +0.000 C 
ATOM     22  O   UNL     1      48.293   6.639  17.491  0.00  0.00    +0.000 OA
ATOM     23  H   UNL     1      50.264   6.410  15.039  0.00  0.00    +0.000 HD
BRANCH  21  24
ATOM     24  C   UNL     1      49.974   5.014  17.168  0.00  0.00    +0.000 A 
ATOM     25  C   UNL     1      49.367   3.788  17.400  0.00  0.00    +0.000 A 
ATOM     26  S   UNL     1      50.470   2.536  17.757  0.00  0.00    +0.000 S 
ATOM     27  C   UNL     1      51.794   3.601  17.669  0.00  0.00    +0.000 A 
ATOM     28  N   UNL     1      53.065   3.161  17.879  0.00  0.00    +0.000 NA
ATOM     29  C   UNL     1      53.967   4.082  17.812  0.00  0.00    +0.000 A 
ATOM     30  N   UNL     1      53.715   5.406  17.560  0.00  0.00    +0.000 N 
ATOM     31  C   UNL     1      52.453   5.892  17.324  0.00  0.00    +0.000 A 
ATOM     32  O   UNL     1      52.265   7.080  17.078  0.00  0.00    +0.000 OA
ATOM     33  C   UNL     1      51.399   4.894  17.376  0.00  0.00    +0.000 A 
ATOM     34  H   UNL     1      54.466   6.078  17.525  0.00  0.00    +0.000 HD
ENDBRANCH  21  24
ENDBRANCH  19  20
ENDBRANCH   4  19
TORSDOF 8
ENDMDL
MODEL 5
REMARK VINA RESULT:    -6.932      3.560      4.921
REMARK INTER + INTRA:         -11.426
REMARK INTER:                 -10.505
REMARK INTRA:                  -0.921
REMARK UNBOUND:                -1.252
REMARK  Name = 
REMARK  8 active torsions:
REMARK  status: ('A' for Active; 'I' for Inactive)
REMARK    1  A    between atoms: C_2  and  C_3
REMARK    2  A    between atoms: C_3  and  N_4
REMARK    3  A    between atoms: C_3  and  C_26
REMARK    4  A    between atoms: N_4  and  C_5
REMARK    5  A    between atoms: C_5  and  C_6
REMARK    6  A    between atoms: C_9  and  C_10
REMARK    7  A    between atoms: C_10  and  N_11
REMARK    8  A    between atoms: C_12  and  C_14
REMARK                            x       y       z     vdW  Elec       q    Type
REMARK                         _______ _______ _______ _____ _____    ______ ____
ROOT
ATOM      1  C   UNL     1      45.908   6.035  11.936  0.00  0.00    +0.000 A 
ATOM      2  C   UNL     1      46.706   7.154  11.708  0.00  0.00    +0.000 A 
ATOM      3  C   UNL     1      47.723   7.457  12.611  0.00  0.00    +0.000 A 
ATOM      4  C   UNL     1      47.915   6.652  13.735  0.00  0.00    +0.000 A 
ATOM      5  C   UNL     1      47.078   5.551  13.877  0.00  0.00    +0.000 A 
ATOM      6  N   UNL     1      46.085   5.225  13.012  0.00  0.00    +0.000 NA
ENDROOT
BRANCH   1   7
ATOM      7  C   UNL     1      44.808   5.664  10.958  0.00  0.00    +0.000 C 
BRANCH   7   8
ATOM      8  N   UNL     1      45.350   5.223   9.664  0.00  0.00    +0.000 NA
ATOM      9  H   UNL     1      45.253   6.009   9.014  0.00  0.00    +0.000 HD
BRANCH   8  10
ATOM     10  C   UNL     1      44.610   4.059   9.108  0.00  0.00    +0.000 C 
BRANCH  10  11
ATOM     11  C   UNL     1      45.558   3.137   8.338  0.00  0.00    +0.000 A 
ATOM     12  C   UNL     1      46.367   3.639   7.313  0.00  0.00    +0.000 A 
ATOM     13  C   UNL     1      47.231   2.775   6.646  0.00  0.00    +0.000 A 
ATOM     14  C   UNL     1      47.262   1.434   7.005  0.00  0.00    +0.000 A 
ATOM     15  C   UNL     1      46.419   1.011   8.019  0.00  0.00    +0.000 A 
ATOM     16  N   UNL     1      45.572   1.825   8.690  0.00  0.00    +0.000 NA
ENDBRANCH  10  11
BRANCH  10  18
ATOM     17  N   UNL     1      43.359   2.604  11.121  0.00  0.00    +0.000 NA
ATOM     18  C   UNL     1      43.926   3.263  10.208  0.00  0.00    +0.000 C 
ENDBRANCH  10  18
ENDBRANCH   8  10
ENDBRANCH   7   8
ENDBRANCH   1   7
BRANCH   4  19
ATOM     19  C   UNL     1      49.031   6.916  14.703  0.00  0.00    +0.000 C 
BRANCH  19  20
ATOM     20  N   UNL     1      50.225   7.302  13.992  0.00  0.00    +0.000 N 
ATOM     21  C   UNL     1      50.668   8.597  13.949  0.00  0.00    +0.000 C 
ATOM     22  O   UNL     1      50.100   9.505  14.550  0.00  0.00    +0.000 OA
ATOM     23  H   UNL     1      50.563   6.647  13.297  0.00  0.00    +0.000 HD
BRANCH  21  24
ATOM     24  C   UNL     1      51.912   8.823  13.200  0.00  0.00    +0.000 A 
ATOM     25  C   UNL     1      52.953   9.533  13.781  0.00  0.00    +0.000 A 
ATOM     26  S   UNL     1      54.354   9.606  12.810  0.00  0.00    +0.000 S 
ATOM     27  C   UNL     1      53.600   8.739  11.556  0.00  0.00    +0.000 A 
ATOM     28  N   UNL     1      54.263   8.452  10.402  0.00  0.00    +0.000 NA
ATOM     29  C   UNL     1      53.559   7.817   9.525  0.00  0.00    +0.000 A 
ATOM     30  N   UNL     1      52.250   7.448   9.693  0.00  0.00    +0.000 N 
ATOM     31  C   UNL     1      51.547   7.700  10.845  0.00  0.00    +0.000 A 
ATOM     32  O   UNL     1      50.382   7.335  10.971  0.00  0.00    +0.000 OA
ATOM     33  C   UNL     1      52.296   8.403  11.871  0.00  0.00    +0.000 A 
ATOM     34  H   UNL     1      51.753   6.956   8.966  0.00  0.00    +0.000 HD
ENDBRANCH  21  24
ENDBRANCH  19  20
ENDBRANCH   4  19
TORSDOF 8
ENDMDL
MODEL 6
REMARK VINA RESULT:    -6.870      3.215      8.103
REMARK INTER + INTRA:         -11.336
REMARK INTER:                  -9.824
REMARK INTRA:                  -1.512
REMARK UNBOUND:                -1.252
REMARK  Name = 
REMARK  8 active torsions:
REMARK  status: ('A' for Active; 'I' for Inactive)
REMARK    1  A    between atoms: C_2  and  C_3
REMARK    2  A    between atoms: C_3  and  N_4
REMARK    3  A    between atoms: C_3  and  C_26
REMARK    4  A    between atoms: N_4  and  C_5
REMARK    5  A    between atoms: C_5  and  C_6
REMARK    6  A    between atoms: C_9  and  C_10
REMARK    7  A    between atoms: C_10  and  N_11
REMARK    8  A    between atoms: C_12  and  C_14
REMARK                            x       y       z     vdW  Elec       q    Type
REMARK                         _______ _______ _______ _____ _____    ______ ____
ROOT
ATOM      1  C   UNL     1      48.595   7.873  16.301  0.00  0.00    +0.000 A 
ATOM      2  C   UNL     1      48.776   6.707  15.560  0.00  0.00    +0.000 A 
ATOM      3  C   UNL     1      48.679   6.765  14.172  0.00  0.00    +0.000 A 
ATOM      4  C   UNL     1      48.384   7.978  13.547  0.00  0.00    +0.000 A 
ATOM      5  C   UNL     1      48.229   9.092  14.365  0.00  0.00    +0.000 A 
ATOM      6  N   UNL     1      48.325   9.069  15.718  0.00  0.00    +0.000 NA
ENDROOT
BRANCH   1   7
ATOM      7  C   UNL     1      48.720   7.847  17.815  0.00  0.00    +0.000 C 
BRANCH   7   8
ATOM      8  N   UNL     1      47.521   7.285  18.455  0.00  0.00    +0.000 NA
ATOM      9  H   UNL     1      47.116   8.025  19.035  0.00  0.00    +0.000 HD
BRANCH   8  10
ATOM     10  C   UNL     1      47.839   6.123  19.327  0.00  0.00    +0.000 C 
BRANCH  10  11
ATOM     11  C   UNL     1      48.068   4.866  18.485  0.00  0.00    +0.000 A 
ATOM     12  C   UNL     1      49.317   4.238  18.464  0.00  0.00    +0.000 A 
ATOM     13  C   UNL     1      49.485   3.086  17.700  0.00  0.00    +0.000 A 
ATOM     14  C   UNL     1      48.412   2.594  16.969  0.00  0.00    +0.000 A 
ATOM     15  C   UNL     1      47.212   3.281  17.028  0.00  0.00    +0.000 A 
ATOM     16  N   UNL     1      47.015   4.400  17.764  0.00  0.00    +0.000 NA
ENDBRANCH  10  11
BRANCH  10  18
ATOM     17  N   UNL     1      50.101   6.606  20.871  0.00  0.00    +0.000 NA
ATOM     18  C   UNL     1      49.075   6.388  20.171  0.00  0.00    +0.000 C 
ENDBRANCH  10  18
ENDBRANCH   8  10
ENDBRANCH   7   8
ENDBRANCH   1   7
BRANCH   4  19
ATOM     19  C   UNL     1      48.321   8.092  12.052  0.00  0.00    +0.000 C 
BRANCH  19  20
ATOM     20  N   UNL     1      47.579   6.986  11.499  0.00  0.00    +0.000 N 
ATOM     21  C   UNL     1      46.215   7.009  11.368  0.00  0.00    +0.000 C 
ATOM     22  O   UNL     1      45.544   7.990  11.674  0.00  0.00    +0.000 OA
ATOM     23  H   UNL     1      48.057   6.093  11.477  0.00  0.00    +0.000 HD
BRANCH  21  24
ATOM     24  C   UNL     1      45.611   5.812  10.768  0.00  0.00    +0.000 A 
ATOM     25  C   UNL     1      45.803   5.539   9.421  0.00  0.00    +0.000 A 
ATOM     26  S   UNL     1      45.119   4.058   8.920  0.00  0.00    +0.000 S 
ATOM     27  C   UNL     1      44.495   3.755  10.474  0.00  0.00    +0.000 A 
ATOM     28  N   UNL     1      43.784   2.626  10.738  0.00  0.00    +0.000 NA
ATOM     29  C   UNL     1      43.344   2.542  11.949  0.00  0.00    +0.000 A 
ATOM     30  N   UNL     1      43.545   3.488  12.921  0.00  0.00    +0.000 N 
ATOM     31  C   UNL     1      44.271   4.633  12.706  0.00  0.00    +0.000 A 
ATOM     32  O   UNL     1      44.452   5.449  13.605  0.00  0.00    +0.000 OA
ATOM     33  C   UNL     1      44.799   4.773  11.361  0.00  0.00    +0.000 A 
ATOM     34  H   UNL     1      43.171   3.364  13.849  0.00  0.00    +0.000 HD
ENDBRANCH  21  24
ENDBRANCH  19  20
ENDBRANCH   4  19
TORSDOF 8
ENDMDL
MODEL 7
REMARK VINA RESULT:    -6.823      2.575      3.329
REMARK INTER + INTRA:         -11.266
REMARK INTER:                 -10.589
REMARK INTRA:                  -0.677
REMARK UNBOUND:                -1.252
REMARK  Name = 
REMARK  8 active torsions:
REMARK  status: ('A' for Active; 'I' for Inactive)
REMARK    1  A    between atoms: C_2  and  C_3
REMARK    2  A    between atoms: C_3  and  N_4
REMARK    3  A    between atoms: C_3  and  C_26
REMARK    4  A    between atoms: N_4  and  C_5
REMARK    5  A    between atoms: C_5  and  C_6
REMARK    6  A    between atoms: C_9  and  C_10
REMARK    7  A    between atoms: C_10  and  N_11
REMARK    8  A    between atoms: C_12  and  C_14
REMARK                            x       y       z     vdW  Elec       q    Type
REMARK                         _______ _______ _______ _____ _____    ______ ____
ROOT
ATOM      1  C   UNL     1      45.800   5.534  12.137  0.00  0.00    +0.000 A 
ATOM      2  C   UNL     1      45.510   4.390  12.878  0.00  0.00    +0.000 A 
ATOM      3  C   UNL     1      46.223   4.142  14.048  0.00  0.00    +0.000 A 
ATOM      4  C   UNL     1      47.227   5.025  14.450  0.00  0.00    +0.000 A 
ATOM      5  C   UNL     1      47.442   6.145  13.654  0.00  0.00    +0.000 A 
ATOM      6  N   UNL     1      46.759   6.419  12.515  0.00  0.00    +0.000 NA
ENDROOT
BRANCH   1   7
ATOM      7  C   UNL     1      45.023   5.847  10.870  0.00  0.00    +0.000 C 
BRANCH   7   8
ATOM      8  N   UNL     1      45.664   5.273   9.677  0.00  0.00    +0.000 NA
ATOM      9  H   UNL     1      45.810   6.042   9.017  0.00  0.00    +0.000 HD
BRANCH   8  10
ATOM     10  C   UNL     1      44.816   4.243   9.021  0.00  0.00    +0.000 C 
BRANCH  10  11
ATOM     11  C   UNL     1      45.682   3.259   8.231  0.00  0.00    +0.000 A 
ATOM     12  C   UNL     1      46.440   3.692   7.138  0.00  0.00    +0.000 A 
ATOM     13  C   UNL     1      47.230   2.773   6.453  0.00  0.00    +0.000 A 
ATOM     14  C   UNL     1      47.238   1.446   6.863  0.00  0.00    +0.000 A 
ATOM     15  C   UNL     1      46.447   1.092   7.942  0.00  0.00    +0.000 A 
ATOM     16  N   UNL     1      45.674   1.962   8.633  0.00  0.00    +0.000 NA
ENDBRANCH  10  11
BRANCH  10  18
ATOM     17  N   UNL     1      43.309   2.836  10.888  0.00  0.00    +0.000 NA
ATOM     18  C   UNL     1      43.993   3.473  10.041  0.00  0.00    +0.000 C 
ENDBRANCH  10  18
ENDBRANCH   8  10
ENDBRANCH   7   8
ENDBRANCH   1   7
BRANCH   4  19
ATOM     19  C   UNL     1      47.982   4.819  15.730  0.00  0.00    +0.000 C 
BRANCH  19  20
ATOM     20  N   UNL     1      48.220   6.085  16.377  0.00  0.00    +0.000 N 
ATOM     21  C   UNL     1      49.480   6.538  16.666  0.00  0.00    +0.000 C 
ATOM     22  O   UNL     1      50.489   5.912  16.353  0.00  0.00    +0.000 OA
ATOM     23  H   UNL     1      47.430   6.494  16.864  0.00  0.00    +0.000 HD
BRANCH  21  24
ATOM     24  C   UNL     1      49.554   7.857  17.308  0.00  0.00    +0.000 A 
ATOM     25  C   UNL     1      50.385   8.838  16.786  0.00  0.00    +0.000 A 
ATOM     26  S   UNL     1      50.265  10.336  17.593  0.00  0.00    +0.000 S 
ATOM     27  C   UNL     1      49.138   9.712  18.705  0.00  0.00    +0.000 A 
ATOM     28  N   UNL     1      48.617  10.492  19.690  0.00  0.00    +0.000 NA
ATOM     29  C   UNL     1      47.799   9.880  20.480  0.00  0.00    +0.000 A 
ATOM     30  N   UNL     1      47.459   8.555  20.378  0.00  0.00    +0.000 N 
ATOM     31  C   UNL     1      47.945   7.735  19.390  0.00  0.00    +0.000 A 
ATOM     32  O   UNL     1      47.601   6.559  19.314  0.00  0.00    +0.000 OA
ATOM     33  C   UNL     1      48.862   8.377  18.466  0.00  0.00    +0.000 A 
ATOM     34  H   UNL     1      46.815   8.135  21.031  0.00  0.00    +0.000 HD
ENDBRANCH  21  24
ENDBRANCH  19  20
ENDBRANCH   4  19
TORSDOF 8
ENDMDL
MODEL 8
REMARK VINA RESULT:    -6.800      3.191      5.486
REMARK INTER + INTRA:         -11.233
REMARK INTER:                 -10.100
REMARK INTRA:                  -1.132
REMARK UNBOUND:                -1.252
REMARK  Name = 
REMARK  8 active torsions:
REMARK  status: ('A' for Active; 'I' for Inactive)
REMARK    1  A    between atoms: C_2  and  C_3
REMARK    2  A    between atoms: C_3  and  N_4
REMARK    3  A    between atoms: C_3  and  C_26
REMARK    4  A    between atoms: N_4  and  C_5
REMARK    5  A    between atoms: C_5  and  C_6
REMARK    6  A    between atoms: C_9  and  C_10
REMARK    7  A    between atoms: C_10  and  N_11
REMARK    8  A    between atoms: C_12  and  C_14
REMARK                            x       y       z     vdW  Elec       q    Type
REMARK                         _______ _______ _______ _____ _____    ______ ____
ROOT
ATOM      1  C   UNL     1      47.703   5.916  14.491  0.00  0.00    +0.000 A 
ATOM      2  C   UNL     1      47.024   4.700  14.449  0.00  0.00    +0.000 A 
ATOM      3  C   UNL     1      47.168   3.807  15.508  0.00  0.00    +0.000 A 
ATOM      4  C   UNL     1      48.000   4.130  16.581  0.00  0.00    +0.000 A 
ATOM      5  C   UNL     1      48.630   5.370  16.543  0.00  0.00    +0.000 A 
ATOM      6  N   UNL     1      48.504   6.264  15.531  0.00  0.00    +0.000 NA
ENDROOT
BRANCH   1   7
ATOM      7  C   UNL     1      47.548   6.922  13.364  0.00  0.00    +0.000 C 
BRANCH   7   8
ATOM      8  N   UNL     1      46.160   7.391  13.234  0.00  0.00    +0.000 NA
ATOM      9  H   UNL     1      45.601   6.865  13.913  0.00  0.00    +0.000 HD
BRANCH   8  10
ATOM     10  C   UNL     1      45.605   7.144  11.877  0.00  0.00    +0.000 C 
BRANCH  10  11
ATOM     11  C   UNL     1      44.800   5.843  11.853  0.00  0.00    +0.000 A 
ATOM     12  C   UNL     1      45.005   4.894  10.846  0.00  0.00    +0.000 A 
ATOM     13  C   UNL     1      44.268   3.713  10.865  0.00  0.00    +0.000 A 
ATOM     14  C   UNL     1      43.339   3.510  11.876  0.00  0.00    +0.000 A 
ATOM     15  C   UNL     1      43.181   4.503  12.828  0.00  0.00    +0.000 A 
ATOM     16  N   UNL     1      43.886   5.659  12.840  0.00  0.00    +0.000 NA
ENDBRANCH  10  11
BRANCH  10  18
ATOM     17  N   UNL     1      43.970   9.240  11.058  0.00  0.00    +0.000 NA
ATOM     18  C   UNL     1      44.712   8.290  11.428  0.00  0.00    +0.000 C 
ENDBRANCH  10  18
ENDBRANCH   8  10
ENDBRANCH   7   8
ENDBRANCH   1   7
BRANCH   4  19
ATOM     19  C   UNL     1      48.141   3.217  17.764  0.00  0.00    +0.000 C 
BRANCH  19  20
ATOM     20  N   UNL     1      49.531   2.919  18.000  0.00  0.00    +0.000 N 
ATOM     21  C   UNL     1      50.266   2.124  17.160  0.00  0.00    +0.000 C 
ATOM     22  O   UNL     1      49.796   1.651  16.129  0.00  0.00    +0.000 OA
ATOM     23  H   UNL     1      49.868   3.076  18.943  0.00  0.00    +0.000 HD
BRANCH  21  24
ATOM     24  C   UNL     1      51.675   1.934  17.530  0.00  0.00    +0.000 A 
ATOM     25  C   UNL     1      52.180   0.653  17.705  0.00  0.00    +0.000 A 
ATOM     26  S   UNL     1      53.855   0.618  18.027  0.00  0.00    +0.000 S 
ATOM     27  C   UNL     1      53.954   2.316  17.999  0.00  0.00    +0.000 A 
ATOM     28  N   UNL     1      55.137   2.955  18.209  0.00  0.00    +0.000 NA
ATOM     29  C   UNL     1      55.060   4.243  18.192  0.00  0.00    +0.000 A 
ATOM     30  N   UNL     1      53.905   4.954  17.989  0.00  0.00    +0.000 N 
ATOM     31  C   UNL     1      52.693   4.353  17.755  0.00  0.00    +0.000 A 
ATOM     32  O   UNL     1      51.682   5.020  17.554  0.00  0.00    +0.000 OA
ATOM     33  C   UNL     1      52.725   2.902  17.752  0.00  0.00    +0.000 A 
ATOM     34  H   UNL     1      53.911   5.963  17.990  0.00  0.00    +0.000 HD
ENDBRANCH  21  24
ENDBRANCH  19  20
ENDBRANCH   4  19
TORSDOF 8
ENDMDL
MODEL 9
REMARK VINA RESULT:    -6.788      2.883      8.482
REMARK INTER + INTRA:         -11.215
REMARK INTER:                  -9.815
REMARK INTRA:                  -1.400
REMARK UNBOUND:                -1.252
REMARK  Name = 
REMARK  8 active torsions:
REMARK  status: ('A' for Active; 'I' for Inactive)
REMARK    1  A    between atoms: C_2  and  C_3
REMARK    2  A    between atoms: C_3  and  N_4
REMARK    3  A    between atoms: C_3  and  C_26
REMARK    4  A    between atoms: N_4  and  C_5
REMARK    5  A    between atoms: C_5  and  C_6
REMARK    6  A    between atoms: C_9  and  C_10
REMARK    7  A    between atoms: C_10  and  N_11
REMARK    8  A    between atoms: C_12  and  C_14
REMARK                            x       y       z     vdW  Elec       q    Type
REMARK                         _______ _______ _______ _____ _____    ______ ____
ROOT
ATOM      1  C   UNL     1      49.079   7.664  16.094  0.00  0.00    +0.000 A 
ATOM      2  C   UNL     1      48.418   8.824  15.696  0.00  0.00    +0.000 A 
ATOM      3  C   UNL     1      47.875   8.888  14.414  0.00  0.00    +0.000 A 
ATOM      4  C   UNL     1      48.017   7.804  13.545  0.00  0.00    +0.000 A 
ATOM      5  C   UNL     1      48.684   6.685  14.032  0.00  0.00    +0.000 A 
ATOM      6  N   UNL     1      49.216   6.589  15.276  0.00  0.00    +0.000 NA
ENDROOT
BRANCH   1   7
ATOM      7  C   UNL     1      49.660   7.553  17.493  0.00  0.00    +0.000 C 
BRANCH   7   8
ATOM      8  N   UNL     1      48.635   7.199  18.486  0.00  0.00    +0.000 NA
ATOM      9  H   UNL     1      48.578   7.977  19.149  0.00  0.00    +0.000 HD
BRANCH   8  10
ATOM     10  C   UNL     1      48.981   5.963  19.238  0.00  0.00    +0.000 C 
BRANCH  10  11
ATOM     11  C   UNL     1      48.816   4.729  18.349  0.00  0.00    +0.000 A 
ATOM     12  C   UNL     1      47.580   4.428  17.766  0.00  0.00    +0.000 A 
ATOM     13  C   UNL     1      47.470   3.307  16.949  0.00  0.00    +0.000 A 
ATOM     14  C   UNL     1      48.586   2.508  16.739  0.00  0.00    +0.000 A 
ATOM     15  C   UNL     1      49.769   2.862  17.364  0.00  0.00    +0.000 A 
ATOM     16  N   UNL     1      49.910   3.948  18.159  0.00  0.00    +0.000 NA
ENDBRANCH  10  11
BRANCH  10  18
ATOM     17  N   UNL     1      51.593   6.058  20.189  0.00  0.00    +0.000 NA
ATOM     18  C   UNL     1      50.408   6.014  19.758  0.00  0.00    +0.000 C 
ENDBRANCH  10  18
ENDBRANCH   8  10
ENDBRANCH   7   8
ENDBRANCH   1   7
BRANCH   4  19
ATOM     19  C   UNL     1      47.403   7.815  12.176  0.00  0.00    +0.000 C 
BRANCH  19  20
ATOM     20  N   UNL     1      46.731   6.564  11.923  0.00  0.00    +0.000 N 
ATOM     21  C   UNL     1      45.373   6.478  11.764  0.00  0.00    +0.000 C 
ATOM     22  O   UNL     1      44.647   7.468  11.786  0.00  0.00    +0.000 OA
ATOM     23  H   UNL     1      47.251   5.724  12.148  0.00  0.00    +0.000 HD
BRANCH  21  24
ATOM     24  C   UNL     1      44.846   5.135  11.492  0.00  0.00    +0.000 A 
ATOM     25  C   UNL     1      44.136   4.456  12.472  0.00  0.00    +0.000 A 
ATOM     26  S   UNL     1      43.509   2.958  11.947  0.00  0.00    +0.000 S 
ATOM     27  C   UNL     1      44.212   3.138  10.408  0.00  0.00    +0.000 A 
ATOM     28  N   UNL     1      44.059   2.184   9.450  0.00  0.00    +0.000 NA
ATOM     29  C   UNL     1      44.672   2.437   8.342  0.00  0.00    +0.000 A 
ATOM     30  N   UNL     1      45.431   3.555   8.106  0.00  0.00    +0.000 N 
ATOM     31  C   UNL     1      45.598   4.551   9.036  0.00  0.00    +0.000 A 
ATOM     32  O   UNL     1      46.266   5.550   8.783  0.00  0.00    +0.000 OA
ATOM     33  C   UNL     1      44.919   4.322  10.298  0.00  0.00    +0.000 A 
ATOM     34  H   UNL     1      45.889   3.691   7.217  0.00  0.00    +0.000 HD
ENDBRANCH  21  24
ENDBRANCH  19  20
ENDBRANCH   4  19
TORSDOF 8
ENDMDL
