MODEL 1
REMARK VINA RESULT:    -7.443      0.000      0.000
REMARK INTER + INTRA:          -9.883
REMARK INTER:                  -9.401
REMARK INTRA:                  -0.481
REMARK UNBOUND:                -0.481
REMARK  Name = 
REMARK  5 active torsions:
REMARK  status: ('A' for Active; 'I' for Inactive)
REMARK    1  A    between atoms: N_1  and  C_2
REMARK    2  A    between atoms: C_2  and  C_3
REMARK    3  A    between atoms: C_6  and  O_7
REMARK    4  A    between atoms: O_7  and  C_8
REMARK    5  A    between atoms: C_8  and  C_9
REMARK                            x       y       z     vdW  Elec       q    Type
REMARK                         _______ _______ _______ _____ _____    ______ ____
ROOT
ATOM      1  C   UNL     1      46.550   2.241   7.572  0.00  0.00    +0.000 A 
ATOM      2  C   UNL     1      45.758   1.445   8.413  0.00  0.00    +0.000 A 
ATOM      3  C   UNL     1      44.792   2.026   9.239  0.00  0.00    +0.000 A 
ATOM      4  C   UNL     1      44.616   3.409   9.245  0.00  0.00    +0.000 A 
ATOM      5  C   UNL     1      45.354   4.199   8.363  0.00  0.00    +0.000 A 
ATOM      6  C   UNL     1      46.323   3.621   7.541  0.00  0.00    +0.000 A 
ENDROOT
BRANCH   1   7
ATOM      7  C   UNL     1      47.645   1.634   6.734  0.00  0.00    +0.000 C 
BRANCH   7   8
ATOM      8  N   UNL     1      48.628   2.628   6.326  0.00  0.00    +0.000 NA
ATOM      9  H   UNL     1      48.511   2.818   5.333  0.00  0.00    +0.000 HD
ATOM     10  H   UNL     1      49.559   2.230   6.435  0.00  0.00    +0.000 HD
ENDBRANCH   7   8
ENDBRANCH   1   7
BRANCH   4  11
ATOM     11  O   UNL     1      43.707   3.896  10.149  0.00  0.00    +0.000 OA
BRANCH  11  12
ATOM     12  C   UNL     1      43.870   3.384  11.478  0.00  0.00    +0.000 C 
BRANCH  12  13
ATOM     13  C   UNL     1      44.979   4.085  12.231  0.00  0.00    +0.000 A 
ATOM     14  C   UNL     1      45.039   5.478  12.310  0.00  0.00    +0.000 A 
ATOM     15  C   UNL     1      46.029   6.071  13.091  0.00  0.00    +0.000 A 
ATOM     16  C   UNL     1      46.915   5.259  13.778  0.00  0.00    +0.000 A 
ATOM     17  F   UNL     1      47.871   5.798  14.545  0.00  0.00    +0.000 F 
ATOM     18  C   UNL     1      46.789   3.888  13.667  0.00  0.00    +0.000 A 
ATOM     19  N   UNL     1      45.840   3.283  12.914  0.00  0.00    +0.000 NA
ENDBRANCH  12  13
ENDBRANCH  11  12
ENDBRANCH   4  11
TORSDOF 5
ENDMDL
MODEL 2
REMARK VINA RESULT:    -7.272      0.763      1.207
REMARK INTER + INTRA:          -9.666
REMARK INTER:                  -9.125
REMARK INTRA:                  -0.541
REMARK UNBOUND:                -0.481
REMARK  Name = 
REMARK  5 active torsions:
REMARK  status: ('A' for Active; 'I' for Inactive)
REMARK    1  A    between atoms: N_1  and  C_2
REMARK    2  A    between atoms: C_2  and  C_3
REMARK    3  A    between atoms: C_6  and  O_7
REMARK    4  A    between atoms: O_7  and  C_8
REMARK    5  A    between atoms: C_8  and  C_9
REMARK                            x       y       z     vdW  Elec       q    Type
REMARK                         _______ _______ _______ _____ _____    ______ ____
ROOT
ATOM      1  C   UNL     1      46.625   2.233   7.632  0.00  0.00    +0.000 A 
ATOM      2  C   UNL     1      45.783   1.405   8.388  0.00  0.00    +0.000 A 
ATOM      3  C   UNL     1      44.735   1.951   9.135  0.00  0.00    +0.000 A 
ATOM      4  C   UNL     1      44.525   3.328   9.146  0.00  0.00    +0.000 A 
ATOM      5  C   UNL     1      45.319   4.150   8.343  0.00  0.00    +0.000 A 
ATOM      6  C   UNL     1      46.369   3.608   7.602  0.00  0.00    +0.000 A 
ENDROOT
BRANCH   1   7
ATOM      7  C   UNL     1      47.805   1.665   6.884  0.00  0.00    +0.000 C 
BRANCH   7   8
ATOM      8  N   UNL     1      48.610   2.711   6.270  0.00  0.00    +0.000 NA
ATOM      9  H   UNL     1      49.581   2.582   6.544  0.00  0.00    +0.000 HD
ATOM     10  H   UNL     1      48.321   3.611   6.651  0.00  0.00    +0.000 HD
ENDBRANCH   7   8
ENDBRANCH   1   7
BRANCH   4  11
ATOM     11  O   UNL     1      43.529   3.779   9.974  0.00  0.00    +0.000 OA
BRANCH  11  12
ATOM     12  C   UNL     1      43.616   3.289  11.317  0.00  0.00    +0.000 C 
BRANCH  12  13
ATOM     13  C   UNL     1      44.645   4.038  12.136  0.00  0.00    +0.000 A 
ATOM     14  C   UNL     1      45.716   3.377  12.741  0.00  0.00    +0.000 A 
ATOM     15  C   UNL     1      46.685   4.125  13.408  0.00  0.00    +0.000 A 
ATOM     16  C   UNL     1      46.563   5.504  13.437  0.00  0.00    +0.000 A 
ATOM     17  F   UNL     1      47.482   6.251  14.060  0.00  0.00    +0.000 F 
ATOM     18  C   UNL     1      45.486   6.094  12.804  0.00  0.00    +0.000 A 
ATOM     19  N   UNL     1      44.527   5.394  12.151  0.00  0.00    +0.000 NA
ENDBRANCH  12  13
ENDBRANCH  11  12
ENDBRANCH   4  11
TORSDOF 5
ENDMDL
MODEL 3
REMARK VINA RESULT:    -7.171      2.911      5.957
REMARK INTER + INTRA:          -9.539
REMARK INTER:                  -9.118
REMARK INTRA:                  -0.421
REMARK UNBOUND:                -0.481
REMARK  Name = 
REMARK  5 active torsions:
REMARK  status: ('A' for Active; 'I' for Inactive)
REMARK    1  A    between atoms: N_1  and  C_2
REMARK    2  A    between atoms: C_2  and  C_3
REMARK    3  A    between atoms: C_6  and  O_7
REMARK    4  A    between atoms: O_7  and  C_8
REMARK    5  A    between atoms: C_8  and  C_9
REMARK                            x       y       z     vdW  Elec       q    Type
REMARK                         _______ _______ _______ _____ _____    ______ ____
ROOT
ATOM      1  C   UNL     1      46.685   5.678  12.805  0.00  0.00    +0.000 A 
ATOM      2  C   UNL     1      46.400   6.288  11.574  0.00  0.00    +0.000 A 
ATOM      3  C   UNL     1      45.537   5.677  10.661  0.00  0.00    +0.000 A 
ATOM      4  C   UNL     1      44.960   4.445  10.960  0.00  0.00    +0.000 A 
ATOM      5  C   UNL     1      45.186   3.865  12.209  0.00  0.00    +0.000 A 
ATOM      6  C   UNL     1      46.052   4.471  13.120  0.00  0.00    +0.000 A 
ENDROOT
BRANCH   1   7
ATOM      7  C   UNL     1      47.673   6.290  13.765  0.00  0.00    +0.000 C 
BRANCH   7   8
ATOM      8  N   UNL     1      49.021   6.310  13.214  0.00  0.00    +0.000 NA
ATOM      9  H   UNL     1      49.656   5.882  13.882  0.00  0.00    +0.000 HD
ATOM     10  H   UNL     1      49.317   7.280  13.115  0.00  0.00    +0.000 HD
ENDBRANCH   7   8
ENDBRANCH   1   7
BRANCH   4  11
ATOM     11  O   UNL     1      44.196   3.882   9.969  0.00  0.00    +0.000 OA
BRANCH  11  12
ATOM     12  C   UNL     1      44.528   2.519   9.675  0.00  0.00    +0.000 C 
BRANCH  12  13
ATOM     13  C   UNL     1      45.449   2.397   8.481  0.00  0.00    +0.000 A 
ATOM     14  C   UNL     1      45.652   3.466   7.606  0.00  0.00    +0.000 A 
ATOM     15  C   UNL     1      46.580   3.330   6.575  0.00  0.00    +0.000 A 
ATOM     16  C   UNL     1      47.283   2.143   6.459  0.00  0.00    +0.000 A 
ATOM     17  F   UNL     1      48.188   1.986   5.485  0.00  0.00    +0.000 F 
ATOM     18  C   UNL     1      47.043   1.132   7.369  0.00  0.00    +0.000 A 
ATOM     19  N   UNL     1      46.146   1.233   8.379  0.00  0.00    +0.000 NA
ENDBRANCH  12  13
ENDBRANCH  11  12
ENDBRANCH   4  11
TORSDOF 5
ENDMDL
MODEL 4
REMARK VINA RESULT:    -6.501      3.327      6.114
REMARK INTER + INTRA:          -8.693
REMARK INTER:                  -8.283
REMARK INTRA:                  -0.410
REMARK UNBOUND:                -0.481
REMARK  Name = 
REMARK  5 active torsions:
REMARK  status: ('A' for Active; 'I' for Inactive)
REMARK    1  A    between atoms: N_1  and  C_2
REMARK    2  A    between atoms: C_2  and  C_3
REMARK    3  A    between atoms: C_6  and  O_7
REMARK    4  A    between atoms: O_7  and  C_8
REMARK    5  A    between atoms: C_8  and  C_9
REMARK                            x       y       z     vdW  Elec       q    Type
REMARK                         _______ _______ _______ _____ _____    ______ ____
ROOT
ATOM      1  C   UNL     1      44.472   7.087  11.340  0.00  0.00    +0.000 A 
ATOM      2  C   UNL     1      45.740   6.504  11.207  0.00  0.00    +0.000 A 
ATOM      3  C   UNL     1      45.872   5.126  11.009  0.00  0.00    +0.000 A 
ATOM      4  C   UNL     1      44.741   4.315  10.956  0.00  0.00    +0.000 A 
ATOM      5  C   UNL     1      43.474   4.897  11.022  0.00  0.00    +0.000 A 
ATOM      6  C   UNL     1      43.341   6.272  11.226  0.00  0.00    +0.000 A 
ENDROOT
BRANCH   1   7
ATOM      7  C   UNL     1      44.320   8.558  11.630  0.00  0.00    +0.000 C 
BRANCH   7   8
ATOM      8  N   UNL     1      43.207   9.142  10.893  0.00  0.00    +0.000 NA
ATOM      9  H   UNL     1      42.346   8.682  11.179  0.00  0.00    +0.000 HD
ATOM     10  H   UNL     1      43.329   8.937   9.903  0.00  0.00    +0.000 HD
ENDBRANCH   7   8
ENDBRANCH   1   7
BRANCH   4  11
ATOM     11  O   UNL     1      44.971   2.967  10.846  0.00  0.00    +0.000 OA
BRANCH  11  12
ATOM     12  C   UNL     1      44.390   2.367   9.682  0.00  0.00    +0.000 C 
BRANCH  12  13
ATOM     13  C   UNL     1      45.363   2.299   8.525  0.00  0.00    +0.000 A 
ATOM     14  C   UNL     1      45.593   3.403   7.702  0.00  0.00    +0.000 A 
ATOM     15  C   UNL     1      46.566   3.315   6.707  0.00  0.00    +0.000 A 
ATOM     16  C   UNL     1      47.285   2.139   6.576  0.00  0.00    +0.000 A 
ATOM     17  F   UNL     1      48.232   2.027   5.637  0.00  0.00    +0.000 F 
ATOM     18  C   UNL     1      47.015   1.091   7.434  0.00  0.00    +0.000 A 
ATOM     19  N   UNL     1      46.075   1.145   8.408  0.00  0.00    +0.000 NA
ENDBRANCH  12  13
ENDBRANCH  11  12
ENDBRANCH   4  11
TORSDOF 5
ENDMDL
MODEL 5
REMARK VINA RESULT:    -5.604      4.720      7.950
REMARK INTER + INTRA:          -7.559
REMARK INTER:                  -7.247
REMARK INTRA:                  -0.312
REMARK UNBOUND:                -0.481
REMARK  Name = 
REMARK  5 active torsions:
REMARK  status: ('A' for Active; 'I' for Inactive)
REMARK    1  A    between atoms: N_1  and  C_2
REMARK    2  A    between atoms: C_2  and  C_3
REMARK    3  A    between atoms: C_6  and  O_7
REMARK    4  A    between atoms: O_7  and  C_8
REMARK    5  A    between atoms: C_8  and  C_9
REMARK                            x       y       z     vdW  Elec       q    Type
REMARK                         _______ _______ _______ _____ _____    ______ ____
ROOT
ATOM      1  C   UNL     1      48.676   4.453  18.544  0.00  0.00    +0.000 A 
ATOM      2  C   UNL     1      48.197   3.177  18.214  0.00  0.00    +0.000 A 
ATOM      3  C   UNL     1      47.646   2.928  16.954  0.00  0.00    +0.000 A 
ATOM      4  C   UNL     1      47.556   3.954  16.015  0.00  0.00    +0.000 A 
ATOM      5  C   UNL     1      48.090   5.208  16.314  0.00  0.00    +0.000 A 
ATOM      6  C   UNL     1      48.635   5.460  17.573  0.00  0.00    +0.000 A 
ENDROOT
BRANCH   1   7
ATOM      7  C   UNL     1      49.202   4.753  19.925  0.00  0.00    +0.000 C 
BRANCH   7   8
ATOM      8  N   UNL     1      48.493   3.998  20.949  0.00  0.00    +0.000 NA
ATOM      9  H   UNL     1      48.827   3.037  20.941  0.00  0.00    +0.000 HD
ATOM     10  H   UNL     1      47.505   3.961  20.701  0.00  0.00    +0.000 HD
ENDBRANCH   7   8
ENDBRANCH   1   7
BRANCH   4  11
ATOM     11  O   UNL     1      46.923   3.639  14.839  0.00  0.00    +0.000 OA
BRANCH  11  12
ATOM     12  C   UNL     1      46.939   4.690  13.865  0.00  0.00    +0.000 C 
BRANCH  12  13
ATOM     13  C   UNL     1      45.559   4.988  13.320  0.00  0.00    +0.000 A 
ATOM     14  C   UNL     1      45.305   6.139  12.572  0.00  0.00    +0.000 A 
ATOM     15  C   UNL     1      44.039   6.321  12.017  0.00  0.00    +0.000 A 
ATOM     16  C   UNL     1      43.076   5.345  12.212  0.00  0.00    +0.000 A 
ATOM     17  F   UNL     1      41.855   5.486  11.683  0.00  0.00    +0.000 F 
ATOM     18  C   UNL     1      43.401   4.224  12.951  0.00  0.00    +0.000 A 
ATOM     19  N   UNL     1      44.620   4.021  13.505  0.00  0.00    +0.000 NA
ENDBRANCH  12  13
ENDBRANCH  11  12
ENDBRANCH   4  11
TORSDOF 5
ENDMDL
MODEL 6
REMARK VINA RESULT:    -5.515      3.133      6.136
REMARK INTER + INTRA:          -7.447
REMARK INTER:                  -7.233
REMARK INTRA:                  -0.214
REMARK UNBOUND:                -0.481
REMARK  Name = 
REMARK  5 active torsions:
REMARK  status: ('A' for Active; 'I' for Inactive)
REMARK    1  A    between atoms: N_1  and  C_2
REMARK    2  A    between atoms: C_2  and  C_3
REMARK    3  A    between atoms: C_6  and  O_7
REMARK    4  A    between atoms: O_7  and  C_8
REMARK    5  A    between atoms: C_8  and  C_9
REMARK                            x       y       z     vdW  Elec       q    Type
REMARK                         _______ _______ _______ _____ _____    ______ ____
ROOT
ATOM      1  C   UNL     1      46.610   7.534  13.057  0.00  0.00    +0.000 A 
ATOM      2  C   UNL     1      46.597   6.132  13.107  0.00  0.00    +0.000 A 
ATOM      3  C   UNL     1      45.704   5.400  12.320  0.00  0.00    +0.000 A 
ATOM      4  C   UNL     1      44.805   6.060  11.484  0.00  0.00    +0.000 A 
ATOM      5  C   UNL     1      44.857   7.451  11.380  0.00  0.00    +0.000 A 
ATOM      6  C   UNL     1      45.744   8.183  12.170  0.00  0.00    +0.000 A 
ENDROOT
BRANCH   1   7
ATOM      7  C   UNL     1      47.514   8.335  13.957  0.00  0.00    +0.000 C 
BRANCH   7   8
ATOM      8  N   UNL     1      47.504   9.750  13.613  0.00  0.00    +0.000 NA
ATOM      9  H   UNL     1      48.044   9.886  12.762  0.00  0.00    +0.000 HD
ATOM     10  H   UNL     1      47.987  10.268  14.346  0.00  0.00    +0.000 HD
ENDBRANCH   7   8
ENDBRANCH   1   7
BRANCH   4  11
ATOM     11  O   UNL     1      43.910   5.264  10.815  0.00  0.00    +0.000 OA
BRANCH  11  12
ATOM     12  C   UNL     1      44.230   3.867  10.847  0.00  0.00    +0.000 C 
BRANCH  12  13
ATOM     13  C   UNL     1      44.926   3.408   9.585  0.00  0.00    +0.000 A 
ATOM     14  C   UNL     1      45.411   4.322   8.647  0.00  0.00    +0.000 A 
ATOM     15  C   UNL     1      46.124   3.850   7.546  0.00  0.00    +0.000 A 
ATOM     16  C   UNL     1      46.342   2.488   7.424  0.00  0.00    +0.000 A 
ATOM     17  F   UNL     1      47.032   2.005   6.384  0.00  0.00    +0.000 F 
ATOM     18  C   UNL     1      45.846   1.642   8.397  0.00  0.00    +0.000 A 
ATOM     19  N   UNL     1      45.148   2.070   9.475  0.00  0.00    +0.000 NA
ENDBRANCH  12  13
ENDBRANCH  11  12
ENDBRANCH   4  11
TORSDOF 5
ENDMDL
MODEL 7
REMARK VINA RESULT:    -5.065      3.760      6.308
REMARK INTER + INTRA:          -6.878
REMARK INTER:                  -6.526
REMARK INTRA:                  -0.352
REMARK UNBOUND:                -0.481
REMARK  Name = 
REMARK  5 active torsions:
REMARK  status: ('A' for Active; 'I' for Inactive)
REMARK    1  A    between atoms: N_1  and  C_2
REMARK    2  A    between atoms: C_2  and  C_3
REMARK    3  A    between atoms: C_6  and  O_7
REMARK    4  A    between atoms: O_7  and  C_8
REMARK    5  A    between atoms: C_8  and  C_9
REMARK                            x       y       z     vdW  Elec       q    Type
REMARK                         _______ _______ _______ _____ _____    ______ ____
ROOT
ATOM      1  C   UNL     1      49.861   7.895  12.906  0.00  0.00    +0.000 A 
ATOM      2  C   UNL     1      49.145   7.932  11.700  0.00  0.00    +0.000 A 
ATOM      3  C   UNL     1      47.885   7.335  11.604  0.00  0.00    +0.000 A 
ATOM      4  C   UNL     1      47.333   6.683  12.704  0.00  0.00    +0.000 A 
ATOM      5  C   UNL     1      48.011   6.699  13.924  0.00  0.00    +0.000 A 
ATOM      6  C   UNL     1      49.272   7.290  14.021  0.00  0.00    +0.000 A 
ENDROOT
BRANCH   1   7
ATOM      7  C   UNL     1      51.252   8.468  13.001  0.00  0.00    +0.000 C 
BRANCH   7   8
ATOM      8  N   UNL     1      52.131   7.927  11.973  0.00  0.00    +0.000 NA
ATOM      9  H   UNL     1      52.475   8.692  11.398  0.00  0.00    +0.000 HD
ATOM     10  H   UNL     1      51.583   7.328  11.358  0.00  0.00    +0.000 HD
ENDBRANCH   7   8
ENDBRANCH   1   7
BRANCH   4  11
ATOM     11  O   UNL     1      46.133   6.053  12.491  0.00  0.00    +0.000 OA
BRANCH  11  12
ATOM     12  C   UNL     1      45.560   6.303  11.202  0.00  0.00    +0.000 C 
BRANCH  12  13
ATOM     13  C   UNL     1      45.188   5.026  10.481  0.00  0.00    +0.000 A 
ATOM     14  C   UNL     1      45.549   4.811   9.149  0.00  0.00    +0.000 A 
ATOM     15  C   UNL     1      45.262   3.580   8.560  0.00  0.00    +0.000 A 
ATOM     16  C   UNL     1      44.639   2.604   9.319  0.00  0.00    +0.000 A 
ATOM     17  F   UNL     1      44.359   1.409   8.784  0.00  0.00    +0.000 F 
ATOM     18  C   UNL     1      44.323   2.880  10.635  0.00  0.00    +0.000 A 
ATOM     19  N   UNL     1      44.587   4.066  11.234  0.00  0.00    +0.000 NA
ENDBRANCH  12  13
ENDBRANCH  11  12
ENDBRANCH   4  11
TORSDOF 5
ENDMDL
MODEL 8
REMARK VINA RESULT:    -5.020      4.946      7.996
REMARK INTER + INTRA:          -6.822
REMARK INTER:                  -6.538
REMARK INTRA:                  -0.285
REMARK UNBOUND:                -0.481
REMARK  Name = 
REMARK  5 active torsions:
REMARK  status: ('A' for Active; 'I' for Inactive)
REMARK    1  A    between atoms: N_1  and  C_2
REMARK    2  A    between atoms: C_2  and  C_3
REMARK    3  A    between atoms: C_6  and  O_7
REMARK    4  A    between atoms: O_7  and  C_8
REMARK    5  A    between atoms: C_8  and  C_9
REMARK                            x       y       z     vdW  Elec       q    Type
REMARK                         _______ _______ _______ _____ _____    ______ ____
ROOT
ATOM      1  C   UNL     1      51.532   2.319  17.521  0.00  0.00    +0.000 A 
ATOM      2  C   UNL     1      50.330   1.779  17.040  0.00  0.00    +0.000 A 
ATOM      3  C   UNL     1      49.213   2.596  16.840  0.00  0.00    +0.000 A 
ATOM      4  C   UNL     1      49.281   3.957  17.132  0.00  0.00    +0.000 A 
ATOM      5  C   UNL     1      50.492   4.511  17.547  0.00  0.00    +0.000 A 
ATOM      6  C   UNL     1      51.606   3.696  17.752  0.00  0.00    +0.000 A 
ENDROOT
BRANCH   1   7
ATOM      7  C   UNL     1      52.718   1.436  17.812  0.00  0.00    +0.000 C 
BRANCH   7   8
ATOM      8  N   UNL     1      52.310   0.089  18.187  0.00  0.00    +0.000 NA
ATOM      9  H   UNL     1      51.705   0.144  19.003  0.00  0.00    +0.000 HD
ATOM     10  H   UNL     1      53.136  -0.433  18.477  0.00  0.00    +0.000 HD
ENDBRANCH   7   8
ENDBRANCH   1   7
BRANCH   4  11
ATOM     11  O   UNL     1      48.113   4.662  16.987  0.00  0.00    +0.000 OA
BRANCH  11  12
ATOM     12  C   UNL     1      47.175   4.064  16.083  0.00  0.00    +0.000 C 
BRANCH  12  13
ATOM     13  C   UNL     1      47.127   4.778  14.750  0.00  0.00    +0.000 A 
ATOM     14  C   UNL     1      46.140   4.491  13.805  0.00  0.00    +0.000 A 
ATOM     15  C   UNL     1      46.086   5.241  12.631  0.00  0.00    +0.000 A 
ATOM     16  C   UNL     1      47.006   6.259  12.446  0.00  0.00    +0.000 A 
ATOM     17  F   UNL     1      46.974   7.004  11.334  0.00  0.00    +0.000 F 
ATOM     18  C   UNL     1      47.947   6.499  13.429  0.00  0.00    +0.000 A 
ATOM     19  N   UNL     1      48.026   5.786  14.578  0.00  0.00    +0.000 NA
ENDBRANCH  12  13
ENDBRANCH  11  12
ENDBRANCH   4  11
TORSDOF 5
ENDMDL
MODEL 9
REMARK VINA RESULT:    -4.889      4.505      5.917
REMARK INTER + INTRA:          -6.656
REMARK INTER:                  -6.341
REMARK INTRA:                  -0.315
REMARK UNBOUND:                -0.481
REMARK  Name = 
REMARK  5 active torsions:
REMARK  status: ('A' for Active; 'I' for Inactive)
REMARK    1  A    between atoms: N_1  and  C_2
REMARK    2  A    between atoms: C_2  and  C_3
REMARK    3  A    between atoms: C_6  and  O_7
REMARK    4  A    between atoms: O_7  and  C_8
REMARK    5  A    between atoms: C_8  and  C_9
REMARK                            x       y       z     vdW  Elec       q    Type
REMARK                         _______ _______ _______ _____ _____    ______ ____
ROOT
ATOM      1  C   UNL     1      44.626   5.488  11.711  0.00  0.00    +0.000 A 
ATOM      2  C   UNL     1      45.659   6.365  11.349  0.00  0.00    +0.000 A 
ATOM      3  C   UNL     1      46.878   6.349  12.033  0.00  0.00    +0.000 A 
ATOM      4  C   UNL     1      47.074   5.466  13.093  0.00  0.00    +0.000 A 
ATOM      5  C   UNL     1      46.075   4.546  13.415  0.00  0.00    +0.000 A 
ATOM      6  C   UNL     1      44.855   4.565  12.737  0.00  0.00    +0.000 A 
ENDROOT
BRANCH   1   7
ATOM      7  C   UNL     1      43.282   5.549  11.032  0.00  0.00    +0.000 C 
BRANCH   7   8
ATOM      8  N   UNL     1      42.650   6.850  11.199  0.00  0.00    +0.000 NA
ATOM      9  H   UNL     1      41.657   6.763  10.996  0.00  0.00    +0.000 HD
ATOM     10  H   UNL     1      43.031   7.489  10.503  0.00  0.00    +0.000 HD
ENDBRANCH   7   8
ENDBRANCH   1   7
BRANCH   4  11
ATOM     11  O   UNL     1      48.268   5.581  13.759  0.00  0.00    +0.000 OA
BRANCH  11  12
ATOM     12  C   UNL     1      48.278   6.593  14.774  0.00  0.00    +0.000 C 
BRANCH  12  13
ATOM     13  C   UNL     1      48.640   6.037  16.134  0.00  0.00    +0.000 A 
ATOM     14  C   UNL     1      48.892   6.878  17.220  0.00  0.00    +0.000 A 
ATOM     15  C   UNL     1      49.131   6.314  18.472  0.00  0.00    +0.000 A 
ATOM     16  C   UNL     1      49.097   4.936  18.603  0.00  0.00    +0.000 A 
ATOM     17  F   UNL     1      49.313   4.365  19.794  0.00  0.00    +0.000 F 
ATOM     18  C   UNL     1      48.828   4.165  17.489  0.00  0.00    +0.000 A 
ATOM     19  N   UNL     1      48.594   4.683  16.260  0.00  0.00    +0.000 NA
ENDBRANCH  12  13
ENDBRANCH  11  12
ENDBRANCH   4  11
TORSDOF 5
ENDMDL
