MODEL 1
REMARK VINA RESULT:    -6.012      0.000      0.000
REMARK INTER + INTRA:          -7.987
REMARK INTER:                  -7.418
REMARK INTRA:                  -0.569
REMARK UNBOUND:                -0.569
REMARK  Name = 
REMARK  7 active torsions:
REMARK  status: ('A' for Active; 'I' for Inactive)
REMARK    1  A    between atoms: C_1  and  C_2
REMARK    2  A    between atoms: C_2  and  C_3
REMARK    3  A    between atoms: C_2  and  C_4
REMARK    4  A    between atoms: C_2  and  C_5
REMARK    5  A    between atoms: C_9  and  C_10
REMARK    6  A    between atoms: N_16  and  C_17
REMARK    7  A    between atoms: C_17  and  C_18
REMARK                            x       y       z     vdW  Elec       q    Type
REMARK                         _______ _______ _______ _____ _____    ______ ____
ROOT
ATOM      1  C   UNL     1      48.216   6.678  14.498  0.00  0.00    +0.000 A 
ATOM      2  N   UNL     1      47.611   5.506  14.624  0.00  0.00    +0.000 NA
ATOM      3  C   UNL     1      46.847   5.323  13.497  0.00  0.00    +0.000 A 
ATOM      4  C   UNL     1      45.991   4.257  13.157  0.00  0.00    +0.000 A 
ATOM      5  C   UNL     1      45.311   4.294  11.930  0.00  0.00    +0.000 A 
ATOM      6  C   UNL     1      45.519   5.369  11.053  0.00  0.00    +0.000 A 
ATOM      7  C   UNL     1      46.372   6.431  11.374  0.00  0.00    +0.000 A 
ATOM      8  C   UNL     1      46.999   6.392  12.626  0.00  0.00    +0.000 A 
ATOM      9  N   UNL     1      47.802   7.288  13.318  0.00  0.00    +0.000 N 
ENDROOT
BRANCH   5  10
ATOM     10  C   UNL     1      44.338   3.237  11.493  0.00  0.00    +0.000 C 
ATOM     11  N   UNL     1      43.816   2.399  12.424  0.00  0.00    +0.000 N 
ATOM     12  O   UNL     1      44.008   3.129  10.317  0.00  0.00    +0.000 OA
ATOM     13  H   UNL     1      44.032   2.402  13.411  0.00  0.00    +0.000 HD
ATOM     14  H   UNL     1      43.166   1.693  12.091  0.00  0.00    +0.000 HD
ENDBRANCH   5  10
BRANCH   1  16
ATOM     15  C   UNL     1      49.331   6.313  16.752  0.00  0.00    +0.000 C 
ATOM     16  C   UNL     1      49.197   7.252  15.527  0.00  0.00    +0.000 C 
ATOM     17  C   UNL     1      48.696   8.594  16.081  0.00  0.00    +0.000 C 
ATOM     18  C   UNL     1      50.612   7.387  14.931  0.00  0.00    +0.000 C 
ENDBRANCH   1  16
BRANCH   9  19
ATOM     19  C   UNL     1      48.108   8.631  12.832  0.00  0.00    +0.000 C 
BRANCH  19  20
ATOM     20  C   UNL     1      49.356   8.740  11.994  0.00  0.00    +0.000 A 
ATOM     21  C   UNL     1      50.030   7.643  11.453  0.00  0.00    +0.000 A 
ATOM     22  C   UNL     1      51.249   7.827  10.804  0.00  0.00    +0.000 A 
ATOM     23  C   UNL     1      51.755   9.111  10.700  0.00  0.00    +0.000 A 
ATOM     24  N   UNL     1      51.116  10.203  11.166  0.00  0.00    +0.000 NA
ATOM     25  C   UNL     1      49.941   9.993  11.801  0.00  0.00    +0.000 A 
ENDBRANCH  19  20
ENDBRANCH   9  19
TORSDOF 4
ENDMDL
MODEL 2
REMARK VINA RESULT:    -5.938      3.339      5.875
REMARK INTER + INTRA:          -7.896
REMARK INTER:                  -7.431
REMARK INTRA:                  -0.464
REMARK UNBOUND:                -0.569
REMARK  Name = 
REMARK  7 active torsions:
REMARK  status: ('A' for Active; 'I' for Inactive)
REMARK    1  A    between atoms: C_1  and  C_2
REMARK    2  A    between atoms: C_2  and  C_3
REMARK    3  A    between atoms: C_2  and  C_4
REMARK    4  A    between atoms: C_2  and  C_5
REMARK    5  A    between atoms: C_9  and  C_10
REMARK    6  A    between atoms: N_16  and  C_17
REMARK    7  A    between atoms: C_17  and  C_18
REMARK                            x       y       z     vdW  Elec       q    Type
REMARK                         _______ _______ _______ _____ _____    ______ ____
ROOT
ATOM      1  C   UNL     1      45.089   4.704  12.555  0.00  0.00    +0.000 A 
ATOM      2  N   UNL     1      45.362   4.020  13.656  0.00  0.00    +0.000 NA
ATOM      3  C   UNL     1      46.416   4.650  14.273  0.00  0.00    +0.000 A 
ATOM      4  C   UNL     1      47.102   4.304  15.454  0.00  0.00    +0.000 A 
ATOM      5  C   UNL     1      48.157   5.118  15.892  0.00  0.00    +0.000 A 
ATOM      6  C   UNL     1      48.490   6.274  15.169  0.00  0.00    +0.000 A 
ATOM      7  C   UNL     1      47.812   6.633  13.998  0.00  0.00    +0.000 A 
ATOM      8  C   UNL     1      46.796   5.777  13.558  0.00  0.00    +0.000 A 
ATOM      9  N   UNL     1      46.002   5.746  12.420  0.00  0.00    +0.000 N 
ENDROOT
BRANCH   5  10
ATOM     10  C   UNL     1      48.986   4.813  17.106  0.00  0.00    +0.000 C 
ATOM     11  N   UNL     1      48.399   4.846  18.329  0.00  0.00    +0.000 N 
ATOM     12  O   UNL     1      50.176   4.531  17.005  0.00  0.00    +0.000 OA
ATOM     13  H   UNL     1      47.432   5.076  18.515  0.00  0.00    +0.000 HD
ATOM     14  H   UNL     1      48.991   4.641  19.127  0.00  0.00    +0.000 HD
ENDBRANCH   5  10
BRANCH   1  16
ATOM     15  C   UNL     1      43.447   2.910  11.821  0.00  0.00    +0.000 C 
ATOM     16  C   UNL     1      43.951   4.356  11.589  0.00  0.00    +0.000 C 
ATOM     17  C   UNL     1      44.427   4.407  10.131  0.00  0.00    +0.000 C 
ATOM     18  C   UNL     1      42.734   5.276  11.812  0.00  0.00    +0.000 C 
ENDBRANCH   1  16
BRANCH   9  19
ATOM     19  C   UNL     1      46.163   6.675  11.304  0.00  0.00    +0.000 C 
BRANCH  19  20
ATOM     20  C   UNL     1      45.484   8.009  11.480  0.00  0.00    +0.000 A 
ATOM     21  C   UNL     1      44.194   8.293  11.026  0.00  0.00    +0.000 A 
ATOM     22  C   UNL     1      43.697   9.592  11.111  0.00  0.00    +0.000 A 
ATOM     23  C   UNL     1      44.502  10.572  11.664  0.00  0.00    +0.000 A 
ATOM     24  N   UNL     1      45.734  10.334  12.157  0.00  0.00    +0.000 NA
ATOM     25  C   UNL     1      46.195   9.067  12.051  0.00  0.00    +0.000 A 
ENDBRANCH  19  20
ENDBRANCH   9  19
TORSDOF 4
ENDMDL
MODEL 3
REMARK VINA RESULT:    -5.742      2.592      5.488
REMARK INTER + INTRA:          -7.654
REMARK INTER:                  -7.330
REMARK INTRA:                  -0.324
REMARK UNBOUND:                -0.569
REMARK  Name = 
REMARK  7 active torsions:
REMARK  status: ('A' for Active; 'I' for Inactive)
REMARK    1  A    between atoms: C_1  and  C_2
REMARK    2  A    between atoms: C_2  and  C_3
REMARK    3  A    between atoms: C_2  and  C_4
REMARK    4  A    between atoms: C_2  and  C_5
REMARK    5  A    between atoms: C_9  and  C_10
REMARK    6  A    between atoms: N_16  and  C_17
REMARK    7  A    between atoms: C_17  and  C_18
REMARK                            x       y       z     vdW  Elec       q    Type
REMARK                         _______ _______ _______ _____ _____    ______ ____
ROOT
ATOM      1  C   UNL     1      47.885   7.801  13.328  0.00  0.00    +0.000 A 
ATOM      2  N   UNL     1      48.188   7.512  14.585  0.00  0.00    +0.000 NA
ATOM      3  C   UNL     1      47.872   6.190  14.785  0.00  0.00    +0.000 A 
ATOM      4  C   UNL     1      47.974   5.409  15.952  0.00  0.00    +0.000 A 
ATOM      5  C   UNL     1      47.588   4.061  15.905  0.00  0.00    +0.000 A 
ATOM      6  C   UNL     1      47.141   3.507  14.696  0.00  0.00    +0.000 A 
ATOM      7  C   UNL     1      47.042   4.270  13.527  0.00  0.00    +0.000 A 
ATOM      8  C   UNL     1      47.387   5.624  13.614  0.00  0.00    +0.000 A 
ATOM      9  N   UNL     1      47.315   6.685  12.723  0.00  0.00    +0.000 N 
ENDROOT
BRANCH   5  10
ATOM     10  C   UNL     1      47.608   3.154  17.102  0.00  0.00    +0.000 C 
ATOM     11  N   UNL     1      48.802   2.800  17.639  0.00  0.00    +0.000 N 
ATOM     12  O   UNL     1      46.566   2.740  17.599  0.00  0.00    +0.000 OA
ATOM     13  H   UNL     1      49.712   3.080  17.297  0.00  0.00    +0.000 HD
ATOM     14  H   UNL     1      48.777   2.181  18.444  0.00  0.00    +0.000 HD
ENDBRANCH   5  10
BRANCH   1  16
ATOM     15  C   UNL     1      49.118   9.071  11.505  0.00  0.00    +0.000 C 
ATOM     16  C   UNL     1      48.117   9.172  12.683  0.00  0.00    +0.000 C 
ATOM     17  C   UNL     1      48.744  10.155  13.683  0.00  0.00    +0.000 C 
ATOM     18  C   UNL     1      46.811   9.736  12.091  0.00  0.00    +0.000 C 
ENDBRANCH   1  16
BRANCH   9  19
ATOM     19  C   UNL     1      46.719   6.578  11.394  0.00  0.00    +0.000 C 
BRANCH  19  20
ATOM     20  C   UNL     1      45.326   6.003  11.362  0.00  0.00    +0.000 A 
ATOM     21  C   UNL     1      44.306   6.380  12.239  0.00  0.00    +0.000 A 
ATOM     22  C   UNL     1      43.090   5.700  12.225  0.00  0.00    +0.000 A 
ATOM     23  C   UNL     1      42.921   4.669  11.318  0.00  0.00    +0.000 A 
ATOM     24  N   UNL     1      43.859   4.302  10.423  0.00  0.00    +0.000 NA
ATOM     25  C   UNL     1      45.033   4.971  10.467  0.00  0.00    +0.000 A 
ENDBRANCH  19  20
ENDBRANCH   9  19
TORSDOF 4
ENDMDL
MODEL 4
REMARK VINA RESULT:    -5.704      2.707      4.334
REMARK INTER + INTRA:          -7.607
REMARK INTER:                  -7.119
REMARK INTRA:                  -0.488
REMARK UNBOUND:                -0.569
REMARK  Name = 
REMARK  7 active torsions:
REMARK  status: ('A' for Active; 'I' for Inactive)
REMARK    1  A    between atoms: C_1  and  C_2
REMARK    2  A    between atoms: C_2  and  C_3
REMARK    3  A    between atoms: C_2  and  C_4
REMARK    4  A    between atoms: C_2  and  C_5
REMARK    5  A    between atoms: C_9  and  C_10
REMARK    6  A    between atoms: N_16  and  C_17
REMARK    7  A    between atoms: C_17  and  C_18
REMARK                            x       y       z     vdW  Elec       q    Type
REMARK                         _______ _______ _______ _____ _____    ______ ____
ROOT
ATOM      1  C   UNL     1      47.805   4.579  16.207  0.00  0.00    +0.000 A 
ATOM      2  N   UNL     1      46.824   4.161  15.421  0.00  0.00    +0.000 NA
ATOM      3  C   UNL     1      46.841   4.953  14.298  0.00  0.00    +0.000 A 
ATOM      4  C   UNL     1      45.988   4.940  13.178  0.00  0.00    +0.000 A 
ATOM      5  C   UNL     1      46.212   5.858  12.140  0.00  0.00    +0.000 A 
ATOM      6  C   UNL     1      47.294   6.746  12.220  0.00  0.00    +0.000 A 
ATOM      7  C   UNL     1      48.155   6.765  13.323  0.00  0.00    +0.000 A 
ATOM      8  C   UNL     1      47.879   5.872  14.366  0.00  0.00    +0.000 A 
ATOM      9  N   UNL     1      48.425   5.681  15.627  0.00  0.00    +0.000 N 
ENDROOT
BRANCH   5  10
ATOM     10  C   UNL     1      45.333   5.963  10.927  0.00  0.00    +0.000 C 
ATOM     11  N   UNL     1      44.305   6.849  10.935  0.00  0.00    +0.000 N 
ATOM     12  O   UNL     1      45.536   5.269   9.937  0.00  0.00    +0.000 OA
ATOM     13  H   UNL     1      44.052   7.455  11.703  0.00  0.00    +0.000 HD
ATOM     14  H   UNL     1      43.728   6.888  10.100  0.00  0.00    +0.000 HD
ENDBRANCH   5  10
BRANCH   1  16
ATOM     15  C   UNL     1      47.377   2.614  17.760  0.00  0.00    +0.000 C 
ATOM     16  C   UNL     1      48.157   3.936  17.554  0.00  0.00    +0.000 C 
ATOM     17  C   UNL     1      47.755   4.847  18.723  0.00  0.00    +0.000 C 
ATOM     18  C   UNL     1      49.652   3.569  17.620  0.00  0.00    +0.000 C 
ENDBRANCH   1  16
BRANCH   9  19
ATOM     19  C   UNL     1      49.465   6.539  16.189  0.00  0.00    +0.000 C 
BRANCH  19  20
ATOM     20  C   UNL     1      48.977   7.844  16.766  0.00  0.00    +0.000 A 
ATOM     21  C   UNL     1      48.302   7.954  17.983  0.00  0.00    +0.000 A 
ATOM     22  C   UNL     1      47.769   9.181  18.374  0.00  0.00    +0.000 A 
ATOM     23  C   UNL     1      47.941  10.271  17.540  0.00  0.00    +0.000 A 
ATOM     24  N   UNL     1      48.624  10.221  16.379  0.00  0.00    +0.000 NA
ATOM     25  C   UNL     1      49.121   9.016  16.020  0.00  0.00    +0.000 A 
ENDBRANCH  19  20
ENDBRANCH   9  19
TORSDOF 4
ENDMDL
MODEL 5
REMARK VINA RESULT:    -5.650      2.577      3.752
REMARK INTER + INTRA:          -7.541
REMARK INTER:                  -7.065
REMARK INTRA:                  -0.476
REMARK UNBOUND:                -0.569
REMARK  Name = 
REMARK  7 active torsions:
REMARK  status: ('A' for Active; 'I' for Inactive)
REMARK    1  A    between atoms: C_1  and  C_2
REMARK    2  A    between atoms: C_2  and  C_3
REMARK    3  A    between atoms: C_2  and  C_4
REMARK    4  A    between atoms: C_2  and  C_5
REMARK    5  A    between atoms: C_9  and  C_10
REMARK    6  A    between atoms: N_16  and  C_17
REMARK    7  A    between atoms: C_17  and  C_18
REMARK                            x       y       z     vdW  Elec       q    Type
REMARK                         _______ _______ _______ _____ _____    ______ ____
ROOT
ATOM      1  C   UNL     1      47.909   4.491  16.289  0.00  0.00    +0.000 A 
ATOM      2  N   UNL     1      47.082   3.894  15.444  0.00  0.00    +0.000 NA
ATOM      3  C   UNL     1      46.915   4.741  14.374  0.00  0.00    +0.000 A 
ATOM      4  C   UNL     1      46.114   4.590  13.226  0.00  0.00    +0.000 A 
ATOM      5  C   UNL     1      46.114   5.604  12.257  0.00  0.00    +0.000 A 
ATOM      6  C   UNL     1      46.932   6.731  12.430  0.00  0.00    +0.000 A 
ATOM      7  C   UNL     1      47.739   6.891  13.562  0.00  0.00    +0.000 A 
ATOM      8  C   UNL     1      47.682   5.886  14.536  0.00  0.00    +0.000 A 
ATOM      9  N   UNL     1      48.236   5.753  15.802  0.00  0.00    +0.000 N 
ENDROOT
BRANCH   5  10
ATOM     10  C   UNL     1      45.259   5.567  11.022  0.00  0.00    +0.000 C 
ATOM     11  N   UNL     1      44.553   6.673  10.679  0.00  0.00    +0.000 N 
ATOM     12  O   UNL     1      45.199   4.560  10.325  0.00  0.00    +0.000 OA
ATOM     13  H   UNL     1      44.530   7.544  11.192  0.00  0.00    +0.000 HD
ATOM     14  H   UNL     1      43.981   6.609   9.842  0.00  0.00    +0.000 HD
ENDBRANCH   5  10
BRANCH   1  16
ATOM     15  C   UNL     1      47.481   2.684  18.023  0.00  0.00    +0.000 C 
ATOM     16  C   UNL     1      48.389   3.867  17.604  0.00  0.00    +0.000 C 
ATOM     17  C   UNL     1      48.317   4.879  18.756  0.00  0.00    +0.000 C 
ATOM     18  C   UNL     1      49.810   3.288  17.457  0.00  0.00    +0.000 C 
ENDBRANCH   1  16
BRANCH   9  19
ATOM     19  C   UNL     1      49.012   6.806  16.452  0.00  0.00    +0.000 C 
BRANCH  19  20
ATOM     20  C   UNL     1      50.473   6.845  16.084  0.00  0.00    +0.000 A 
ATOM     21  C   UNL     1      51.463   6.111  16.741  0.00  0.00    +0.000 A 
ATOM     22  C   UNL     1      52.804   6.311  16.422  0.00  0.00    +0.000 A 
ATOM     23  C   UNL     1      53.119   7.233  15.439  0.00  0.00    +0.000 A 
ATOM     24  N   UNL     1      52.194   7.928  14.747  0.00  0.00    +0.000 NA
ATOM     25  C   UNL     1      50.902   7.723  15.086  0.00  0.00    +0.000 A 
ENDBRANCH  19  20
ENDBRANCH   9  19
TORSDOF 4
ENDMDL
MODEL 6
REMARK VINA RESULT:    -5.545      2.766      5.056
REMARK INTER + INTRA:          -7.411
REMARK INTER:                  -6.782
REMARK INTRA:                  -0.629
REMARK UNBOUND:                -0.569
REMARK  Name = 
REMARK  7 active torsions:
REMARK  status: ('A' for Active; 'I' for Inactive)
REMARK    1  A    between atoms: C_1  and  C_2
REMARK    2  A    between atoms: C_2  and  C_3
REMARK    3  A    between atoms: C_2  and  C_4
REMARK    4  A    between atoms: C_2  and  C_5
REMARK    5  A    between atoms: C_9  and  C_10
REMARK    6  A    between atoms: N_16  and  C_17
REMARK    7  A    between atoms: C_17  and  C_18
REMARK                            x       y       z     vdW  Elec       q    Type
REMARK                         _______ _______ _______ _____ _____    ______ ____
ROOT
ATOM      1  C   UNL     1      45.977   4.798  12.963  0.00  0.00    +0.000 A 
ATOM      2  N   UNL     1      46.319   3.672  13.571  0.00  0.00    +0.000 NA
ATOM      3  C   UNL     1      47.121   4.014  14.633  0.00  0.00    +0.000 A 
ATOM      4  C   UNL     1      47.768   3.187  15.572  0.00  0.00    +0.000 A 
ATOM      5  C   UNL     1      48.540   3.779  16.583  0.00  0.00    +0.000 A 
ATOM      6  C   UNL     1      48.628   5.177  16.662  0.00  0.00    +0.000 A 
ATOM      7  C   UNL     1      47.984   6.011  15.741  0.00  0.00    +0.000 A 
ATOM      8  C   UNL     1      47.261   5.392  14.713  0.00  0.00    +0.000 A 
ATOM      9  N   UNL     1      46.602   5.871  13.590  0.00  0.00    +0.000 N 
ENDROOT
BRANCH   5  10
ATOM     10  C   UNL     1      49.312   2.991  17.602  0.00  0.00    +0.000 C 
ATOM     11  N   UNL     1      49.137   3.268  18.919  0.00  0.00    +0.000 N 
ATOM     12  O   UNL     1      50.086   2.103  17.260  0.00  0.00    +0.000 OA
ATOM     13  H   UNL     1      48.532   3.983  19.298  0.00  0.00    +0.000 HD
ATOM     14  H   UNL     1      49.680   2.718  19.578  0.00  0.00    +0.000 HD
ENDBRANCH   5  10
BRANCH   1  16
ATOM     15  C   UNL     1      44.726   3.447  11.211  0.00  0.00    +0.000 C 
ATOM     16  C   UNL     1      45.051   4.865  11.742  0.00  0.00    +0.000 C 
ATOM     17  C   UNL     1      45.725   5.604  10.577  0.00  0.00    +0.000 C 
ATOM     18  C   UNL     1      43.699   5.509  12.106  0.00  0.00    +0.000 C 
ENDBRANCH   1  16
BRANCH   9  19
ATOM     19  C   UNL     1      46.616   7.275  13.189  0.00  0.00    +0.000 C 
BRANCH  19  20
ATOM     20  C   UNL     1      47.967   7.817  12.799  0.00  0.00    +0.000 A 
ATOM     21  C   UNL     1      48.799   7.225  11.845  0.00  0.00    +0.000 A 
ATOM     22  C   UNL     1      50.087   7.717  11.645  0.00  0.00    +0.000 A 
ATOM     23  C   UNL     1      50.504   8.801  12.396  0.00  0.00    +0.000 A 
ATOM     24  N   UNL     1      49.720   9.432  13.293  0.00  0.00    +0.000 NA
ATOM     25  C   UNL     1      48.480   8.926  13.475  0.00  0.00    +0.000 A 
ENDBRANCH  19  20
ENDBRANCH   9  19
TORSDOF 4
ENDMDL
MODEL 7
REMARK VINA RESULT:    -5.488      2.572      4.872
REMARK INTER + INTRA:          -7.340
REMARK INTER:                  -6.941
REMARK INTRA:                  -0.399
REMARK UNBOUND:                -0.569
REMARK  Name = 
REMARK  7 active torsions:
REMARK  status: ('A' for Active; 'I' for Inactive)
REMARK    1  A    between atoms: C_1  and  C_2
REMARK    2  A    between atoms: C_2  and  C_3
REMARK    3  A    between atoms: C_2  and  C_4
REMARK    4  A    between atoms: C_2  and  C_5
REMARK    5  A    between atoms: C_9  and  C_10
REMARK    6  A    between atoms: N_16  and  C_17
REMARK    7  A    between atoms: C_17  and  C_18
REMARK                            x       y       z     vdW  Elec       q    Type
REMARK                         _______ _______ _______ _____ _____    ______ ____
ROOT
ATOM      1  C   UNL     1      48.888   6.838  15.207  0.00  0.00    +0.000 A 
ATOM      2  N   UNL     1      48.708   7.139  13.929  0.00  0.00    +0.000 NA
ATOM      3  C   UNL     1      47.677   6.356  13.469  0.00  0.00    +0.000 A 
ATOM      4  C   UNL     1      47.121   6.271  12.179  0.00  0.00    +0.000 A 
ATOM      5  C   UNL     1      46.055   5.386  11.953  0.00  0.00    +0.000 A 
ATOM      6  C   UNL     1      45.543   4.629  13.017  0.00  0.00    +0.000 A 
ATOM      7  C   UNL     1      46.081   4.710  14.307  0.00  0.00    +0.000 A 
ATOM      8  C   UNL     1      47.175   5.564  14.492  0.00  0.00    +0.000 A 
ATOM      9  N   UNL     1      48.016   5.816  15.567  0.00  0.00    +0.000 N 
ENDROOT
BRANCH   5  10
ATOM     10  C   UNL     1      45.424   5.180  10.606  0.00  0.00    +0.000 C 
ATOM     11  N   UNL     1      44.209   4.580  10.534  0.00  0.00    +0.000 N 
ATOM     12  O   UNL     1      45.986   5.552   9.581  0.00  0.00    +0.000 OA
ATOM     13  H   UNL     1      43.674   4.232  11.317  0.00  0.00    +0.000 HD
ATOM     14  H   UNL     1      43.816   4.452   9.606  0.00  0.00    +0.000 HD
ENDBRANCH   5  10
BRANCH   1  16
ATOM     15  C   UNL     1      51.228   6.683  16.183  0.00  0.00    +0.000 C 
ATOM     16  C   UNL     1      49.925   7.516  16.110  0.00  0.00    +0.000 C 
ATOM     17  C   UNL     1      49.414   7.624  17.554  0.00  0.00    +0.000 C 
ATOM     18  C   UNL     1      50.326   8.896  15.554  0.00  0.00    +0.000 C 
ENDBRANCH   1  16
BRANCH   9  19
ATOM     19  C   UNL     1      47.945   5.084  16.829  0.00  0.00    +0.000 C 
BRANCH  19  20
ATOM     20  C   UNL     1      48.888   3.913  16.944  0.00  0.00    +0.000 A 
ATOM     21  C   UNL     1      50.094   3.949  17.648  0.00  0.00    +0.000 A 
ATOM     22  C   UNL     1      50.966   2.864  17.589  0.00  0.00    +0.000 A 
ATOM     23  C   UNL     1      50.599   1.762  16.837  0.00  0.00    +0.000 A 
ATOM     24  N   UNL     1      49.425   1.666  16.180  0.00  0.00    +0.000 NA
ATOM     25  C   UNL     1      48.604   2.737  16.245  0.00  0.00    +0.000 A 
ENDBRANCH  19  20
ENDBRANCH   9  19
TORSDOF 4
ENDMDL
MODEL 8
REMARK VINA RESULT:    -5.340      1.463      4.412
REMARK INTER + INTRA:          -7.157
REMARK INTER:                  -6.610
REMARK INTRA:                  -0.548
REMARK UNBOUND:                -0.569
REMARK  Name = 
REMARK  7 active torsions:
REMARK  status: ('A' for Active; 'I' for Inactive)
REMARK    1  A    between atoms: C_1  and  C_2
REMARK    2  A    between atoms: C_2  and  C_3
REMARK    3  A    between atoms: C_2  and  C_4
REMARK    4  A    between atoms: C_2  and  C_5
REMARK    5  A    between atoms: C_9  and  C_10
REMARK    6  A    between atoms: N_16  and  C_17
REMARK    7  A    between atoms: C_17  and  C_18
REMARK                            x       y       z     vdW  Elec       q    Type
REMARK                         _______ _______ _______ _____ _____    ______ ____
ROOT
ATOM      1  C   UNL     1      48.257   8.189  12.629  0.00  0.00    +0.000 A 
ATOM      2  N   UNL     1      47.268   7.855  11.813  0.00  0.00    +0.000 NA
ATOM      3  C   UNL     1      46.742   6.673  12.278  0.00  0.00    +0.000 A 
ATOM      4  C   UNL     1      45.699   5.886  11.752  0.00  0.00    +0.000 A 
ATOM      5  C   UNL     1      45.334   4.706  12.417  0.00  0.00    +0.000 A 
ATOM      6  C   UNL     1      45.988   4.348  13.605  0.00  0.00    +0.000 A 
ATOM      7  C   UNL     1      47.020   5.124  14.144  0.00  0.00    +0.000 A 
ATOM      8  C   UNL     1      47.397   6.270  13.433  0.00  0.00    +0.000 A 
ATOM      9  N   UNL     1      48.418   7.197  13.591  0.00  0.00    +0.000 N 
ENDROOT
BRANCH   5  10
ATOM     10  C   UNL     1      44.273   3.770  11.915  0.00  0.00    +0.000 C 
ATOM     11  N   UNL     1      44.293   2.475  12.320  0.00  0.00    +0.000 N 
ATOM     12  O   UNL     1      43.393   4.160  11.154  0.00  0.00    +0.000 OA
ATOM     13  H   UNL     1      44.979   2.058  12.935  0.00  0.00    +0.000 HD
ATOM     14  H   UNL     1      43.563   1.870  11.956  0.00  0.00    +0.000 HD
ENDBRANCH   5  10
BRANCH   1  16
ATOM     15  C   UNL     1      48.634  10.296  11.259  0.00  0.00    +0.000 C 
ATOM     16  C   UNL     1      49.090   9.468  12.487  0.00  0.00    +0.000 C 
ATOM     17  C   UNL     1      50.570   9.141  12.246  0.00  0.00    +0.000 C 
ATOM     18  C   UNL     1      48.913  10.385  13.713  0.00  0.00    +0.000 C 
ENDBRANCH   1  16
BRANCH   9  19
ATOM     19  C   UNL     1      49.456   7.080  14.611  0.00  0.00    +0.000 C 
BRANCH  19  20
ATOM     20  C   UNL     1      48.982   7.259  16.031  0.00  0.00    +0.000 A 
ATOM     21  C   UNL     1      48.509   8.467  16.548  0.00  0.00    +0.000 A 
ATOM     22  C   UNL     1      48.219   8.575  17.907  0.00  0.00    +0.000 A 
ATOM     23  C   UNL     1      48.396   7.463  18.711  0.00  0.00    +0.000 A 
ATOM     24  N   UNL     1      48.806   6.266  18.246  0.00  0.00    +0.000 NA
ATOM     25  C   UNL     1      49.091   6.193  16.927  0.00  0.00    +0.000 A 
ENDBRANCH  19  20
ENDBRANCH   9  19
TORSDOF 4
ENDMDL
MODEL 9
REMARK VINA RESULT:    -5.075      4.815      7.421
REMARK INTER + INTRA:          -6.831
REMARK INTER:                  -6.272
REMARK INTRA:                  -0.559
REMARK UNBOUND:                -0.569
REMARK  Name = 
REMARK  7 active torsions:
REMARK  status: ('A' for Active; 'I' for Inactive)
REMARK    1  A    between atoms: C_1  and  C_2
REMARK    2  A    between atoms: C_2  and  C_3
REMARK    3  A    between atoms: C_2  and  C_4
REMARK    4  A    between atoms: C_2  and  C_5
REMARK    5  A    between atoms: C_9  and  C_10
REMARK    6  A    between atoms: N_16  and  C_17
REMARK    7  A    between atoms: C_17  and  C_18
REMARK                            x       y       z     vdW  Elec       q    Type
REMARK                         _______ _______ _______ _____ _____    ______ ____
ROOT
ATOM      1  C   UNL     1      50.630   5.750  18.558  0.00  0.00    +0.000 A 
ATOM      2  N   UNL     1      51.818   5.199  18.765  0.00  0.00    +0.000 NA
ATOM      3  C   UNL     1      51.752   3.909  18.298  0.00  0.00    +0.000 A 
ATOM      4  C   UNL     1      52.733   2.898  18.312  0.00  0.00    +0.000 A 
ATOM      5  C   UNL     1      52.428   1.644  17.764  0.00  0.00    +0.000 A 
ATOM      6  C   UNL     1      51.168   1.427  17.185  0.00  0.00    +0.000 A 
ATOM      7  C   UNL     1      50.186   2.424  17.157  0.00  0.00    +0.000 A 
ATOM      8  C   UNL     1      50.502   3.650  17.755  0.00  0.00    +0.000 A 
ATOM      9  N   UNL     1      49.771   4.802  18.011  0.00  0.00    +0.000 N 
ENDROOT
BRANCH   5  10
ATOM     10  C   UNL     1      53.381   0.483  17.773  0.00  0.00    +0.000 C 
ATOM     11  N   UNL     1      53.072  -0.615  18.508  0.00  0.00    +0.000 N 
ATOM     12  O   UNL     1      54.422   0.515  17.125  0.00  0.00    +0.000 OA
ATOM     13  H   UNL     1      52.247  -0.732  19.080  0.00  0.00    +0.000 HD
ATOM     14  H   UNL     1      53.743  -1.377  18.495  0.00  0.00    +0.000 HD
ENDBRANCH   5  10
BRANCH   1  16
ATOM     15  C   UNL     1      51.404   7.850  19.760  0.00  0.00    +0.000 C 
ATOM     16  C   UNL     1      50.287   7.203  18.904  0.00  0.00    +0.000 C 
ATOM     17  C   UNL     1      49.009   7.283  19.752  0.00  0.00    +0.000 C 
ATOM     18  C   UNL     1      50.166   8.063  17.631  0.00  0.00    +0.000 C 
ENDBRANCH   1  16
BRANCH   9  19
ATOM     19  C   UNL     1      48.342   4.922  17.736  0.00  0.00    +0.000 C 
BRANCH  19  20
ATOM     20  C   UNL     1      47.976   5.018  16.276  0.00  0.00    +0.000 A 
ATOM     21  C   UNL     1      48.335   6.087  15.452  0.00  0.00    +0.000 A 
ATOM     22  C   UNL     1      47.840   6.157  14.151  0.00  0.00    +0.000 A 
ATOM     23  C   UNL     1      47.009   5.145  13.704  0.00  0.00    +0.000 A 
ATOM     24  N   UNL     1      46.675   4.072  14.450  0.00  0.00    +0.000 NA
ATOM     25  C   UNL     1      47.160   4.036  15.711  0.00  0.00    +0.000 A 
ENDBRANCH  19  20
ENDBRANCH   9  19
TORSDOF 4
ENDMDL
