MODEL 1
REMARK VINA RESULT:    -8.148      0.000      0.000
REMARK INTER + INTRA:         -12.045
REMARK INTER:                 -11.006
REMARK INTRA:                  -1.039
REMARK UNBOUND:                -1.039
REMARK  Name = 
REMARK  7 active torsions:
REMARK  status: ('A' for Active; 'I' for Inactive)
REMARK    1  A    between atoms: C_1  and  C_2
REMARK    2  A    between atoms: C_2  and  N_3
REMARK    3  A    between atoms: C_2  and  C_16
REMARK    4  A    between atoms: C_4  and  C_6
REMARK    5  A    between atoms: C_19  and  C_20
REMARK    6  A    between atoms: C_20  and  N_21
REMARK    7  A    between atoms: C_22  and  C_24
REMARK                            x       y       z     vdW  Elec       q    Type
REMARK                         _______ _______ _______ _____ _____    ______ ____
ROOT
ATOM      1  C   UNL     1      47.514   9.159  13.657  0.00  0.00    +0.000 C 
ATOM      2  C   UNL     1      47.995   7.773  14.093  0.00  0.00    +0.000 C 
ENDROOT
BRANCH   2   3
ATOM      3  C   UNL     1      47.058   6.702  13.520  0.00  0.00    +0.000 A 
ATOM      4  C   UNL     1      46.058   7.018  12.590  0.00  0.00    +0.000 A 
ATOM      5  C   UNL     1      45.257   6.017  12.013  0.00  0.00    +0.000 A 
ATOM      6  C   UNL     1      45.423   4.666  12.356  0.00  0.00    +0.000 A 
ATOM      7  C   UNL     1      46.401   4.354  13.309  0.00  0.00    +0.000 A 
ATOM      8  C   UNL     1      47.190   5.354  13.894  0.00  0.00    +0.000 A 
BRANCH   6   9
ATOM      9  C   UNL     1      44.583   3.572  11.737  0.00  0.00    +0.000 C 
BRANCH   9  10
ATOM     10  N   UNL     1      45.215   2.916  10.618  0.00  0.00    +0.000 N 
ATOM     11  C   UNL     1      45.026   3.348   9.316  0.00  0.00    +0.000 C 
ATOM     12  O   UNL     1      44.320   4.313   9.018  0.00  0.00    +0.000 OA
ATOM     13  H   UNL     1      46.026   2.318  10.767  0.00  0.00    +0.000 HD
BRANCH  11  14
ATOM     14  C   UNL     1      45.763   2.571   8.264  0.00  0.00    +0.000 A 
ATOM     15  C   UNL     1      46.156   3.189   7.079  0.00  0.00    +0.000 A 
ATOM     16  C   UNL     1      46.843   2.433   6.131  0.00  0.00    +0.000 A 
ATOM     17  C   UNL     1      47.112   1.094   6.393  0.00  0.00    +0.000 A 
ATOM     18  C   UNL     1      46.679   0.559   7.597  0.00  0.00    +0.000 A 
ATOM     19  N   UNL     1      46.016   1.261   8.545  0.00  0.00    +0.000 NA
ENDBRANCH  11  14
ENDBRANCH   9  10
ENDBRANCH   6   9
ENDBRANCH   2   3
BRANCH   2  20
ATOM     20  N   UNL     1      48.071   7.665  15.551  0.00  0.00    +0.000 N 
ATOM     21  C   UNL     1      49.106   7.041  16.218  0.00  0.00    +0.000 C 
ATOM     22  O   UNL     1      50.060   6.533  15.658  0.00  0.00    +0.000 OA
ATOM     23  H   UNL     1      47.173   7.691  16.027  0.00  0.00    +0.000 HD
BRANCH  21  24
ATOM     24  C   UNL     1      49.008   7.070  17.692  0.00  0.00    +0.000 A 
ATOM     25  C   UNL     1      49.164   8.265  18.377  0.00  0.00    +0.000 A 
ATOM     26  S   UNL     1      49.093   8.094  20.076  0.00  0.00    +0.000 S 
ATOM     27  C   UNL     1      48.867   6.410  19.951  0.00  0.00    +0.000 A 
ATOM     28  N   UNL     1      48.779   5.624  21.060  0.00  0.00    +0.000 NA
ATOM     29  C   UNL     1      48.626   4.367  20.807  0.00  0.00    +0.000 A 
ATOM     30  N   UNL     1      48.522   3.826  19.550  0.00  0.00    +0.000 N 
ATOM     31  C   UNL     1      48.549   4.587  18.413  0.00  0.00    +0.000 A 
ATOM     32  O   UNL     1      48.359   4.084  17.304  0.00  0.00    +0.000 OA
ATOM     33  C   UNL     1      48.785   5.999  18.633  0.00  0.00    +0.000 A 
ATOM     34  H   UNL     1      48.356   2.838  19.421  0.00  0.00    +0.000 HD
ENDBRANCH  21  24
ENDBRANCH   2  20
TORSDOF 6
ENDMDL
MODEL 2
REMARK VINA RESULT:    -7.454      5.237      9.595
REMARK INTER + INTRA:         -11.107
REMARK INTER:                 -10.167
REMARK INTRA:                  -0.940
REMARK UNBOUND:                -1.039
REMARK  Name = 
REMARK  7 active torsions:
REMARK  status: ('A' for Active; 'I' for Inactive)
REMARK    1  A    between atoms: C_1  and  C_2
REMARK    2  A    between atoms: C_2  and  N_3
REMARK    3  A    between atoms: C_2  and  C_16
REMARK    4  A    between atoms: C_4  and  C_6
REMARK    5  A    between atoms: C_19  and  C_20
REMARK    6  A    between atoms: C_20  and  N_21
REMARK    7  A    between atoms: C_22  and  C_24
REMARK                            x       y       z     vdW  Elec       q    Type
REMARK                         _______ _______ _______ _____ _____    ______ ____
ROOT
ATOM      1  C   UNL     1      46.975   4.765  18.376  0.00  0.00    +0.000 C 
ATOM      2  C   UNL     1      47.457   4.055  17.108  0.00  0.00    +0.000 C 
ENDROOT
BRANCH   2   3
ATOM      3  C   UNL     1      48.939   3.689  17.258  0.00  0.00    +0.000 A 
ATOM      4  C   UNL     1      49.904   4.646  17.601  0.00  0.00    +0.000 A 
ATOM      5  C   UNL     1      51.246   4.284  17.812  0.00  0.00    +0.000 A 
ATOM      6  C   UNL     1      51.669   2.952  17.676  0.00  0.00    +0.000 A 
ATOM      7  C   UNL     1      50.711   2.001  17.302  0.00  0.00    +0.000 A 
ATOM      8  C   UNL     1      49.376   2.366  17.078  0.00  0.00    +0.000 A 
BRANCH   6   9
ATOM      9  C   UNL     1      53.104   2.539  17.913  0.00  0.00    +0.000 C 
BRANCH   9  10
ATOM     10  N   UNL     1      53.261   1.141  18.235  0.00  0.00    +0.000 N 
ATOM     11  C   UNL     1      54.221   0.354  17.622  0.00  0.00    +0.000 C 
ATOM     12  O   UNL     1      55.005   0.780  16.772  0.00  0.00    +0.000 OA
ATOM     13  H   UNL     1      52.883   0.771  19.105  0.00  0.00    +0.000 HD
BRANCH  11  14
ATOM     14  C   UNL     1      54.270  -1.077  18.075  0.00  0.00    +0.000 A 
ATOM     15  C   UNL     1      54.995  -2.020  17.351  0.00  0.00    +0.000 A 
ATOM     16  C   UNL     1      55.019  -3.335  17.810  0.00  0.00    +0.000 A 
ATOM     17  C   UNL     1      54.321  -3.666  18.966  0.00  0.00    +0.000 A 
ATOM     18  C   UNL     1      53.620  -2.664  19.621  0.00  0.00    +0.000 A 
ATOM     19  N   UNL     1      53.578  -1.375  19.212  0.00  0.00    +0.000 NA
ENDBRANCH  11  14
ENDBRANCH   9  10
ENDBRANCH   6   9
ENDBRANCH   2   3
BRANCH   2  20
ATOM     20  N   UNL     1      47.247   4.881  15.918  0.00  0.00    +0.000 N 
ATOM     21  C   UNL     1      47.172   4.372  14.637  0.00  0.00    +0.000 C 
ATOM     22  O   UNL     1      47.259   3.185  14.377  0.00  0.00    +0.000 OA
ATOM     23  H   UNL     1      47.563   5.843  16.006  0.00  0.00    +0.000 HD
BRANCH  21  24
ATOM     24  C   UNL     1      46.923   5.372  13.578  0.00  0.00    +0.000 A 
ATOM     25  C   UNL     1      47.945   6.211  13.160  0.00  0.00    +0.000 A 
ATOM     26  S   UNL     1      47.455   7.349  11.983  0.00  0.00    +0.000 S 
ATOM     27  C   UNL     1      45.855   6.767  12.007  0.00  0.00    +0.000 A 
ATOM     28  N   UNL     1      44.880   7.345  11.251  0.00  0.00    +0.000 NA
ATOM     29  C   UNL     1      43.715   6.805  11.387  0.00  0.00    +0.000 A 
ATOM     30  N   UNL     1      43.438   5.723  12.185  0.00  0.00    +0.000 N 
ATOM     31  C   UNL     1      44.400   5.079  12.915  0.00  0.00    +0.000 A 
ATOM     32  O   UNL     1      44.140   4.053  13.548  0.00  0.00    +0.000 OA
ATOM     33  C   UNL     1      45.715   5.682  12.853  0.00  0.00    +0.000 A 
ATOM     34  H   UNL     1      42.513   5.319  12.212  0.00  0.00    +0.000 HD
ENDBRANCH  21  24
ENDBRANCH   2  20
TORSDOF 6
ENDMDL
MODEL 3
REMARK VINA RESULT:    -7.215      4.072      8.996
REMARK INTER + INTRA:         -10.785
REMARK INTER:                  -9.671
REMARK INTRA:                  -1.114
REMARK UNBOUND:                -1.039
REMARK  Name = 
REMARK  7 active torsions:
REMARK  status: ('A' for Active; 'I' for Inactive)
REMARK    1  A    between atoms: C_1  and  C_2
REMARK    2  A    between atoms: C_2  and  N_3
REMARK    3  A    between atoms: C_2  and  C_16
REMARK    4  A    between atoms: C_4  and  C_6
REMARK    5  A    between atoms: C_19  and  C_20
REMARK    6  A    between atoms: C_20  and  N_21
REMARK    7  A    between atoms: C_22  and  C_24
REMARK                            x       y       z     vdW  Elec       q    Type
REMARK                         _______ _______ _______ _____ _____    ______ ____
ROOT
ATOM      1  C   UNL     1      49.256   7.499  13.012  0.00  0.00    +0.000 C 
ATOM      2  C   UNL     1      47.960   6.959  13.623  0.00  0.00    +0.000 C 
ENDROOT
BRANCH   2   3
ATOM      3  C   UNL     1      48.278   6.225  14.932  0.00  0.00    +0.000 A 
ATOM      4  C   UNL     1      47.529   5.121  15.359  0.00  0.00    +0.000 A 
ATOM      5  C   UNL     1      47.878   4.409  16.521  0.00  0.00    +0.000 A 
ATOM      6  C   UNL     1      48.984   4.786  17.298  0.00  0.00    +0.000 A 
ATOM      7  C   UNL     1      49.714   5.909  16.889  0.00  0.00    +0.000 A 
ATOM      8  C   UNL     1      49.357   6.626  15.738  0.00  0.00    +0.000 A 
BRANCH   6   9
ATOM      9  C   UNL     1      49.386   4.026  18.542  0.00  0.00    +0.000 C 
BRANCH   9  10
ATOM     10  N   UNL     1      50.722   3.482  18.485  0.00  0.00    +0.000 N 
ATOM     11  C   UNL     1      51.036   2.401  17.679  0.00  0.00    +0.000 C 
ATOM     12  O   UNL     1      50.214   1.832  16.957  0.00  0.00    +0.000 OA
ATOM     13  H   UNL     1      51.515   4.039  18.798  0.00  0.00    +0.000 HD
BRANCH  11  14
ATOM     14  C   UNL     1      52.471   1.961  17.718  0.00  0.00    +0.000 A 
ATOM     15  C   UNL     1      52.791   0.606  17.722  0.00  0.00    +0.000 A 
ATOM     16  C   UNL     1      54.136   0.240  17.752  0.00  0.00    +0.000 A 
ATOM     17  C   UNL     1      55.110   1.232  17.780  0.00  0.00    +0.000 A 
ATOM     18  C   UNL     1      54.701   2.557  17.780  0.00  0.00    +0.000 A 
ATOM     19  N   UNL     1      53.407   2.952  17.744  0.00  0.00    +0.000 NA
ENDBRANCH  11  14
ENDBRANCH   9  10
ENDBRANCH   6   9
ENDBRANCH   2   3
BRANCH   2  20
ATOM     20  N   UNL     1      47.257   6.074  12.693  0.00  0.00    +0.000 N 
ATOM     21  C   UNL     1      46.263   6.500  11.835  0.00  0.00    +0.000 C 
ATOM     22  O   UNL     1      45.886   7.656  11.761  0.00  0.00    +0.000 OA
ATOM     23  H   UNL     1      47.225   5.098  12.975  0.00  0.00    +0.000 HD
BRANCH  21  24
ATOM     24  C   UNL     1      45.703   5.454  10.955  0.00  0.00    +0.000 A 
ATOM     25  C   UNL     1      45.842   5.554   9.579  0.00  0.00    +0.000 A 
ATOM     26  S   UNL     1      45.070   4.294   8.721  0.00  0.00    +0.000 S 
ATOM     27  C   UNL     1      44.509   3.582  10.164  0.00  0.00    +0.000 A 
ATOM     28  N   UNL     1      43.721   2.471  10.144  0.00  0.00    +0.000 NA
ATOM     29  C   UNL     1      43.361   2.057  11.314  0.00  0.00    +0.000 A 
ATOM     30  N   UNL     1      43.740   2.631  12.501  0.00  0.00    +0.000 N 
ATOM     31  C   UNL     1      44.575   3.713  12.565  0.00  0.00    +0.000 A 
ATOM     32  O   UNL     1      44.973   4.149  13.648  0.00  0.00    +0.000 OA
ATOM     33  C   UNL     1      44.959   4.262  11.281  0.00  0.00    +0.000 A 
ATOM     34  H   UNL     1      43.460   2.231  13.385  0.00  0.00    +0.000 HD
ENDBRANCH  21  24
ENDBRANCH   2  20
TORSDOF 6
ENDMDL
MODEL 4
REMARK VINA RESULT:    -7.181      3.668      9.259
REMARK INTER + INTRA:         -10.739
REMARK INTER:                  -9.571
REMARK INTRA:                  -1.169
REMARK UNBOUND:                -1.039
REMARK  Name = 
REMARK  7 active torsions:
REMARK  status: ('A' for Active; 'I' for Inactive)
REMARK    1  A    between atoms: C_1  and  C_2
REMARK    2  A    between atoms: C_2  and  N_3
REMARK    3  A    between atoms: C_2  and  C_16
REMARK    4  A    between atoms: C_4  and  C_6
REMARK    5  A    between atoms: C_19  and  C_20
REMARK    6  A    between atoms: C_20  and  N_21
REMARK    7  A    between atoms: C_22  and  C_24
REMARK                            x       y       z     vdW  Elec       q    Type
REMARK                         _______ _______ _______ _____ _____    ______ ____
ROOT
ATOM      1  C   UNL     1      48.752   7.740  11.383  0.00  0.00    +0.000 C 
ATOM      2  C   UNL     1      47.765   7.371  12.494  0.00  0.00    +0.000 C 
ENDROOT
BRANCH   2   3
ATOM      3  C   UNL     1      48.536   7.060  13.782  0.00  0.00    +0.000 A 
ATOM      4  C   UNL     1      49.798   7.612  14.038  0.00  0.00    +0.000 A 
ATOM      5  C   UNL     1      50.461   7.381  15.257  0.00  0.00    +0.000 A 
ATOM      6  C   UNL     1      49.885   6.582  16.257  0.00  0.00    +0.000 A 
ATOM      7  C   UNL     1      48.637   6.004  15.988  0.00  0.00    +0.000 A 
ATOM      8  C   UNL     1      47.984   6.223  14.768  0.00  0.00    +0.000 A 
BRANCH   6   9
ATOM      9  C   UNL     1      50.573   6.334  17.580  0.00  0.00    +0.000 C 
BRANCH   9  10
ATOM     10  N   UNL     1      51.474   5.207  17.565  0.00  0.00    +0.000 N 
ATOM     11  C   UNL     1      51.058   3.934  17.918  0.00  0.00    +0.000 C 
ATOM     12  O   UNL     1      49.904   3.670  18.263  0.00  0.00    +0.000 OA
ATOM     13  H   UNL     1      52.339   5.251  17.029  0.00  0.00    +0.000 HD
BRANCH  11  14
ATOM     14  C   UNL     1      52.109   2.865  17.837  0.00  0.00    +0.000 A 
ATOM     15  C   UNL     1      51.758   1.557  17.513  0.00  0.00    +0.000 A 
ATOM     16  C   UNL     1      52.765   0.596  17.442  0.00  0.00    +0.000 A 
ATOM     17  C   UNL     1      54.080   0.969  17.698  0.00  0.00    +0.000 A 
ATOM     18  C   UNL     1      54.339   2.293  18.019  0.00  0.00    +0.000 A 
ATOM     19  N   UNL     1      53.391   3.256  18.091  0.00  0.00    +0.000 NA
ENDBRANCH  11  14
ENDBRANCH   9  10
ENDBRANCH   6   9
ENDBRANCH   2   3
BRANCH   2  20
ATOM     20  N   UNL     1      46.924   6.236  12.108  0.00  0.00    +0.000 N 
ATOM     21  C   UNL     1      45.545   6.255  12.158  0.00  0.00    +0.000 C 
ATOM     22  O   UNL     1      44.896   7.222  12.514  0.00  0.00    +0.000 OA
ATOM     23  H   UNL     1      47.370   5.327  12.197  0.00  0.00    +0.000 HD
BRANCH  21  24
ATOM     24  C   UNL     1      44.884   5.017  11.695  0.00  0.00    +0.000 A 
ATOM     25  C   UNL     1      44.067   4.300  12.556  0.00  0.00    +0.000 A 
ATOM     26  S   UNL     1      43.449   2.861  11.871  0.00  0.00    +0.000 S 
ATOM     27  C   UNL     1      44.269   3.143  10.405  0.00  0.00    +0.000 A 
ATOM     28  N   UNL     1      44.210   2.248   9.379  0.00  0.00    +0.000 NA
ATOM     29  C   UNL     1      44.897   2.590   8.339  0.00  0.00    +0.000 A 
ATOM     30  N   UNL     1      45.610   3.755   8.217  0.00  0.00    +0.000 N 
ATOM     31  C   UNL     1      45.648   4.705   9.202  0.00  0.00    +0.000 A 
ATOM     32  O   UNL     1      46.221   5.783   9.027  0.00  0.00    +0.000 OA
ATOM     33  C   UNL     1      44.951   4.346  10.419  0.00  0.00    +0.000 A 
ATOM     34  H   UNL     1      46.089   3.985   7.358  0.00  0.00    +0.000 HD
ENDBRANCH  21  24
ENDBRANCH   2  20
TORSDOF 6
ENDMDL
MODEL 5
REMARK VINA RESULT:    -6.930      4.486      6.575
REMARK INTER + INTRA:         -10.400
REMARK INTER:                  -9.500
REMARK INTRA:                  -0.900
REMARK UNBOUND:                -1.039
REMARK  Name = 
REMARK  7 active torsions:
REMARK  status: ('A' for Active; 'I' for Inactive)
REMARK    1  A    between atoms: C_1  and  C_2
REMARK    2  A    between atoms: C_2  and  N_3
REMARK    3  A    between atoms: C_2  and  C_16
REMARK    4  A    between atoms: C_4  and  C_6
REMARK    5  A    between atoms: C_19  and  C_20
REMARK    6  A    between atoms: C_20  and  N_21
REMARK    7  A    between atoms: C_22  and  C_24
REMARK                            x       y       z     vdW  Elec       q    Type
REMARK                         _______ _______ _______ _____ _____    ______ ____
ROOT
ATOM      1  C   UNL     1      46.446   3.401  13.119  0.00  0.00    +0.000 C 
ATOM      2  C   UNL     1      46.050   4.527  14.078  0.00  0.00    +0.000 C 
ENDROOT
BRANCH   2   3
ATOM      3  C   UNL     1      45.629   5.762  13.273  0.00  0.00    +0.000 A 
ATOM      4  C   UNL     1      46.398   6.934  13.264  0.00  0.00    +0.000 A 
ATOM      5  C   UNL     1      46.043   8.032  12.460  0.00  0.00    +0.000 A 
ATOM      6  C   UNL     1      44.900   7.996  11.646  0.00  0.00    +0.000 A 
ATOM      7  C   UNL     1      44.114   6.837  11.679  0.00  0.00    +0.000 A 
ATOM      8  C   UNL     1      44.461   5.749  12.491  0.00  0.00    +0.000 A 
BRANCH   6   9
ATOM      9  C   UNL     1      44.509   9.159  10.762  0.00  0.00    +0.000 C 
BRANCH   9  10
ATOM     10  N   UNL     1      43.107   9.496  10.831  0.00  0.00    +0.000 N 
ATOM     11  C   UNL     1      42.667  10.675  11.409  0.00  0.00    +0.000 C 
ATOM     12  O   UNL     1      43.425  11.515  11.896  0.00  0.00    +0.000 OA
ATOM     13  H   UNL     1      42.440   9.035  10.216  0.00  0.00    +0.000 HD
BRANCH  11  14
ATOM     14  C   UNL     1      41.180  10.888  11.390  0.00  0.00    +0.000 A 
ATOM     15  C   UNL     1      40.518  11.324  12.535  0.00  0.00    +0.000 A 
ATOM     16  C   UNL     1      39.139  11.516  12.473  0.00  0.00    +0.000 A 
ATOM     17  C   UNL     1      38.470  11.264  11.280  0.00  0.00    +0.000 A 
ATOM     18  C   UNL     1      39.208  10.826  10.191  0.00  0.00    +0.000 A 
ATOM     19  N   UNL     1      40.548  10.635  10.209  0.00  0.00    +0.000 NA
ENDBRANCH  11  14
ENDBRANCH   9  10
ENDBRANCH   6   9
ENDBRANCH   2   3
BRANCH   2  20
ATOM     20  N   UNL     1      47.141   4.856  14.997  0.00  0.00    +0.000 N 
ATOM     21  C   UNL     1      47.267   4.314  16.261  0.00  0.00    +0.000 C 
ATOM     22  O   UNL     1      46.491   3.498  16.725  0.00  0.00    +0.000 OA
ATOM     23  H   UNL     1      47.556   5.773  14.854  0.00  0.00    +0.000 HD
BRANCH  21  24
ATOM     24  C   UNL     1      48.457   4.755  17.016  0.00  0.00    +0.000 A 
ATOM     25  C   UNL     1      48.567   6.072  17.435  0.00  0.00    +0.000 A 
ATOM     26  S   UNL     1      50.041   6.415  18.229  0.00  0.00    +0.000 S 
ATOM     27  C   UNL     1      50.587   4.815  18.024  0.00  0.00    +0.000 A 
ATOM     28  N   UNL     1      51.827   4.432  18.440  0.00  0.00    +0.000 NA
ATOM     29  C   UNL     1      52.105   3.193  18.201  0.00  0.00    +0.000 A 
ATOM     30  N   UNL     1      51.251   2.295  17.613  0.00  0.00    +0.000 N 
ATOM     31  C   UNL     1      49.979   2.626  17.232  0.00  0.00    +0.000 A 
ATOM     32  O   UNL     1      49.203   1.774  16.793  0.00  0.00    +0.000 OA
ATOM     33  C   UNL     1      49.633   4.020  17.416  0.00  0.00    +0.000 A 
ATOM     34  H   UNL     1      51.514   1.327  17.495  0.00  0.00    +0.000 HD
ENDBRANCH  21  24
ENDBRANCH   2  20
TORSDOF 6
ENDMDL
MODEL 6
REMARK VINA RESULT:    -6.920      3.569      8.583
REMARK INTER + INTRA:         -10.386
REMARK INTER:                  -9.378
REMARK INTRA:                  -1.008
REMARK UNBOUND:                -1.039
REMARK  Name = 
REMARK  7 active torsions:
REMARK  status: ('A' for Active; 'I' for Inactive)
REMARK    1  A    between atoms: C_1  and  C_2
REMARK    2  A    between atoms: C_2  and  N_3
REMARK    3  A    between atoms: C_2  and  C_16
REMARK    4  A    between atoms: C_4  and  C_6
REMARK    5  A    between atoms: C_19  and  C_20
REMARK    6  A    between atoms: C_20  and  N_21
REMARK    7  A    between atoms: C_22  and  C_24
REMARK                            x       y       z     vdW  Elec       q    Type
REMARK                         _______ _______ _______ _____ _____    ______ ____
ROOT
ATOM      1  C   UNL     1      49.086   9.203  11.399  0.00  0.00    +0.000 C 
ATOM      2  C   UNL     1      47.941   8.654  12.254  0.00  0.00    +0.000 C 
ENDROOT
BRANCH   2   3
ATOM      3  C   UNL     1      48.462   8.325  13.658  0.00  0.00    +0.000 A 
ATOM      4  C   UNL     1      47.955   8.958  14.801  0.00  0.00    +0.000 A 
ATOM      5  C   UNL     1      48.386   8.593  16.089  0.00  0.00    +0.000 A 
ATOM      6  C   UNL     1      49.346   7.586  16.275  0.00  0.00    +0.000 A 
ATOM      7  C   UNL     1      49.877   6.976  15.131  0.00  0.00    +0.000 A 
ATOM      8  C   UNL     1      49.457   7.350  13.848  0.00  0.00    +0.000 A 
BRANCH   6   9
ATOM      9  C   UNL     1      49.812   7.167  17.651  0.00  0.00    +0.000 C 
BRANCH   9  10
ATOM     10  N   UNL     1      50.578   5.944  17.658  0.00  0.00    +0.000 N 
ATOM     11  C   UNL     1      49.970   4.703  17.752  0.00  0.00    +0.000 C 
ATOM     12  O   UNL     1      48.750   4.550  17.831  0.00  0.00    +0.000 OA
ATOM     13  H   UNL     1      51.534   5.937  17.309  0.00  0.00    +0.000 HD
BRANCH  11  14
ATOM     14  C   UNL     1      50.901   3.525  17.732  0.00  0.00    +0.000 A 
ATOM     15  C   UNL     1      52.191   3.638  18.244  0.00  0.00    +0.000 A 
ATOM     16  C   UNL     1      53.019   2.518  18.211  0.00  0.00    +0.000 A 
ATOM     17  C   UNL     1      52.539   1.331  17.670  0.00  0.00    +0.000 A 
ATOM     18  C   UNL     1      51.242   1.309  17.177  0.00  0.00    +0.000 A 
ATOM     19  N   UNL     1      50.405   2.372  17.196  0.00  0.00    +0.000 NA
ENDBRANCH  11  14
ENDBRANCH   9  10
ENDBRANCH   6   9
ENDBRANCH   2   3
BRANCH   2  20
ATOM     20  N   UNL     1      47.332   7.473  11.640  0.00  0.00    +0.000 N 
ATOM     21  C   UNL     1      45.991   7.162  11.744  0.00  0.00    +0.000 C 
ATOM     22  O   UNL     1      45.185   7.848  12.345  0.00  0.00    +0.000 OA
ATOM     23  H   UNL     1      47.969   6.694  11.492  0.00  0.00    +0.000 HD
BRANCH  21  24
ATOM     24  C   UNL     1      45.572   5.942  11.023  0.00  0.00    +0.000 A 
ATOM     25  C   UNL     1      45.847   5.803   9.671  0.00  0.00    +0.000 A 
ATOM     26  S   UNL     1      45.225   4.364   8.992  0.00  0.00    +0.000 S 
ATOM     27  C   UNL     1      44.553   3.887  10.483  0.00  0.00    +0.000 A 
ATOM     28  N   UNL     1      43.823   2.742  10.595  0.00  0.00    +0.000 NA
ATOM     29  C   UNL     1      43.364   2.522  11.782  0.00  0.00    +0.000 A 
ATOM     30  N   UNL     1      43.592   3.321  12.874  0.00  0.00    +0.000 N 
ATOM     31  C   UNL     1      44.367   4.448  12.815  0.00  0.00    +0.000 A 
ATOM     32  O   UNL     1      44.631   5.094  13.831  0.00  0.00    +0.000 OA
ATOM     33  C   UNL     1      44.854   4.782  11.493  0.00  0.00    +0.000 A 
ATOM     34  H   UNL     1      43.243   3.068  13.787  0.00  0.00    +0.000 HD
ENDBRANCH  21  24
ENDBRANCH   2  20
TORSDOF 6
ENDMDL
MODEL 7
REMARK VINA RESULT:    -6.592      5.336      9.662
REMARK INTER + INTRA:          -9.944
REMARK INTER:                  -9.174
REMARK INTRA:                  -0.770
REMARK UNBOUND:                -1.039
REMARK  Name = 
REMARK  7 active torsions:
REMARK  status: ('A' for Active; 'I' for Inactive)
REMARK    1  A    between atoms: C_1  and  C_2
REMARK    2  A    between atoms: C_2  and  N_3
REMARK    3  A    between atoms: C_2  and  C_16
REMARK    4  A    between atoms: C_4  and  C_6
REMARK    5  A    between atoms: C_19  and  C_20
REMARK    6  A    between atoms: C_20  and  N_21
REMARK    7  A    between atoms: C_22  and  C_24
REMARK                            x       y       z     vdW  Elec       q    Type
REMARK                         _______ _______ _______ _____ _____    ______ ____
ROOT
ATOM      1  C   UNL     1      47.935   5.636  18.766  0.00  0.00    +0.000 C 
ATOM      2  C   UNL     1      47.951   4.605  17.635  0.00  0.00    +0.000 C 
ENDROOT
BRANCH   2   3
ATOM      3  C   UNL     1      49.257   3.804  17.690  0.00  0.00    +0.000 A 
ATOM      4  C   UNL     1      49.354   2.512  17.155  0.00  0.00    +0.000 A 
ATOM      5  C   UNL     1      50.577   1.818  17.142  0.00  0.00    +0.000 A 
ATOM      6  C   UNL     1      51.742   2.392  17.674  0.00  0.00    +0.000 A 
ATOM      7  C   UNL     1      51.639   3.670  18.238  0.00  0.00    +0.000 A 
ATOM      8  C   UNL     1      50.416   4.355  18.263  0.00  0.00    +0.000 A 
BRANCH   6   9
ATOM      9  C   UNL     1      53.071   1.670  17.657  0.00  0.00    +0.000 C 
BRANCH   9  10
ATOM     10  N   UNL     1      52.996   0.302  18.110  0.00  0.00    +0.000 N 
ATOM     11  C   UNL     1      54.128  -0.482  18.255  0.00  0.00    +0.000 C 
ATOM     12  O   UNL     1      55.267  -0.078  18.016  0.00  0.00    +0.000 OA
ATOM     13  H   UNL     1      52.169  -0.029  18.604  0.00  0.00    +0.000 HD
BRANCH  11  14
ATOM     14  C   UNL     1      53.887  -1.879  18.750  0.00  0.00    +0.000 A 
ATOM     15  C   UNL     1      54.584  -2.951  18.198  0.00  0.00    +0.000 A 
ATOM     16  C   UNL     1      54.335  -4.231  18.691  0.00  0.00    +0.000 A 
ATOM     17  C   UNL     1      53.403  -4.398  19.710  0.00  0.00    +0.000 A 
ATOM     18  C   UNL     1      52.751  -3.275  20.197  0.00  0.00    +0.000 A 
ATOM     19  N   UNL     1      52.970  -2.017  19.750  0.00  0.00    +0.000 NA
ENDBRANCH  11  14
ENDBRANCH   9  10
ENDBRANCH   6   9
ENDBRANCH   2   3
BRANCH   2  20
ATOM     20  N   UNL     1      47.790   5.242  16.327  0.00  0.00    +0.000 N 
ATOM     21  C   UNL     1      47.292   4.592  15.216  0.00  0.00    +0.000 C 
ATOM     22  O   UNL     1      46.925   3.431  15.222  0.00  0.00    +0.000 OA
ATOM     23  H   UNL     1      48.420   6.021  16.153  0.00  0.00    +0.000 HD
BRANCH  21  24
ATOM     24  C   UNL     1      47.182   5.424  14.000  0.00  0.00    +0.000 A 
ATOM     25  C   UNL     1      46.074   5.306  13.173  0.00  0.00    +0.000 A 
ATOM     26  S   UNL     1      46.154   6.291  11.780  0.00  0.00    +0.000 S 
ATOM     27  C   UNL     1      47.681   6.897  12.229  0.00  0.00    +0.000 A 
ATOM     28  N   UNL     1      48.359   7.769  11.431  0.00  0.00    +0.000 NA
ATOM     29  C   UNL     1      49.510   8.126  11.896  0.00  0.00    +0.000 A 
ATOM     30  N   UNL     1      50.034   7.717  13.096  0.00  0.00    +0.000 N 
ATOM     31  C   UNL     1      49.362   6.887  13.951  0.00  0.00    +0.000 A 
ATOM     32  O   UNL     1      49.817   6.612  15.063  0.00  0.00    +0.000 OA
ATOM     33  C   UNL     1      48.092   6.401  13.453  0.00  0.00    +0.000 A 
ATOM     34  H   UNL     1      50.922   8.070  13.423  0.00  0.00    +0.000 HD
ENDBRANCH  21  24
ENDBRANCH   2  20
TORSDOF 6
ENDMDL
MODEL 8
REMARK VINA RESULT:    -6.193      4.479      6.762
REMARK INTER + INTRA:          -9.404
REMARK INTER:                  -8.486
REMARK INTRA:                  -0.919
REMARK UNBOUND:                -1.039
REMARK  Name = 
REMARK  7 active torsions:
REMARK  status: ('A' for Active; 'I' for Inactive)
REMARK    1  A    between atoms: C_1  and  C_2
REMARK    2  A    between atoms: C_2  and  N_3
REMARK    3  A    between atoms: C_2  and  C_16
REMARK    4  A    between atoms: C_4  and  C_6
REMARK    5  A    between atoms: C_19  and  C_20
REMARK    6  A    between atoms: C_20  and  N_21
REMARK    7  A    between atoms: C_22  and  C_24
REMARK                            x       y       z     vdW  Elec       q    Type
REMARK                         _______ _______ _______ _____ _____    ______ ____
ROOT
ATOM      1  C   UNL     1      46.886   3.871  12.942  0.00  0.00    +0.000 C 
ATOM      2  C   UNL     1      46.094   4.788  13.877  0.00  0.00    +0.000 C 
ENDROOT
BRANCH   2   3
ATOM      3  C   UNL     1      45.539   5.976  13.082  0.00  0.00    +0.000 A 
ATOM      4  C   UNL     1      46.021   7.279  13.268  0.00  0.00    +0.000 A 
ATOM      5  C   UNL     1      45.560   8.347  12.478  0.00  0.00    +0.000 A 
ATOM      6  C   UNL     1      44.593   8.147  11.481  0.00  0.00    +0.000 A 
ATOM      7  C   UNL     1      44.088   6.851  11.316  0.00  0.00    +0.000 A 
ATOM      8  C   UNL     1      44.538   5.790  12.113  0.00  0.00    +0.000 A 
BRANCH   6   9
ATOM      9  C   UNL     1      44.094   9.278  10.610  0.00  0.00    +0.000 C 
BRANCH   9  10
ATOM     10  N   UNL     1      42.687   9.558  10.769  0.00  0.00    +0.000 N 
ATOM     11  C   UNL     1      42.239  10.680  11.445  0.00  0.00    +0.000 C 
ATOM     12  O   UNL     1      42.993  11.514  11.949  0.00  0.00    +0.000 OA
ATOM     13  H   UNL     1      42.005   9.113  10.158  0.00  0.00    +0.000 HD
BRANCH  11  14
ATOM     14  C   UNL     1      40.747  10.840  11.513  0.00  0.00    +0.000 A 
ATOM     15  C   UNL     1      40.140  11.279  12.687  0.00  0.00    +0.000 A 
ATOM     16  C   UNL     1      38.753  11.419  12.706  0.00  0.00    +0.000 A 
ATOM     17  C   UNL     1      38.023  11.116  11.562  0.00  0.00    +0.000 A 
ATOM     18  C   UNL     1      38.709  10.680  10.439  0.00  0.00    +0.000 A 
ATOM     19  N   UNL     1      40.053  10.537  10.379  0.00  0.00    +0.000 NA
ENDBRANCH  11  14
ENDBRANCH   9  10
ENDBRANCH   6   9
ENDBRANCH   2   3
BRANCH   2  20
ATOM     20  N   UNL     1      46.918   5.254  14.994  0.00  0.00    +0.000 N 
ATOM     21  C   UNL     1      47.399   4.425  15.987  0.00  0.00    +0.000 C 
ATOM     22  O   UNL     1      47.196   3.224  16.021  0.00  0.00    +0.000 OA
ATOM     23  H   UNL     1      46.784   6.231  15.244  0.00  0.00    +0.000 HD
BRANCH  21  24
ATOM     24  C   UNL     1      48.238   5.088  17.007  0.00  0.00    +0.000 A 
ATOM     25  C   UNL     1      48.116   4.740  18.343  0.00  0.00    +0.000 A 
ATOM     26  S   UNL     1      49.111   5.661  19.383  0.00  0.00    +0.000 S 
ATOM     27  C   UNL     1      49.725   6.569  18.079  0.00  0.00    +0.000 A 
ATOM     28  N   UNL     1      50.608   7.587  18.280  0.00  0.00    +0.000 NA
ATOM     29  C   UNL     1      50.971   8.194  17.199  0.00  0.00    +0.000 A 
ATOM     30  N   UNL     1      50.559   7.859  15.934  0.00  0.00    +0.000 N 
ATOM     31  C   UNL     1      49.718   6.808  15.685  0.00  0.00    +0.000 A 
ATOM     32  O   UNL     1      49.440   6.473  14.531  0.00  0.00    +0.000 OA
ATOM     33  C   UNL     1      49.225   6.131  16.867  0.00  0.00    +0.000 A 
ATOM     34  H   UNL     1      50.916   8.345  15.124  0.00  0.00    +0.000 HD
ENDBRANCH  21  24
ENDBRANCH   2  20
TORSDOF 6
ENDMDL
MODEL 9
REMARK VINA RESULT:    -5.995      5.689      7.835
REMARK INTER + INTRA:          -9.136
REMARK INTER:                  -7.931
REMARK INTRA:                  -1.206
REMARK UNBOUND:                -1.039
REMARK  Name = 
REMARK  7 active torsions:
REMARK  status: ('A' for Active; 'I' for Inactive)
REMARK    1  A    between atoms: C_1  and  C_2
REMARK    2  A    between atoms: C_2  and  N_3
REMARK    3  A    between atoms: C_2  and  C_16
REMARK    4  A    between atoms: C_4  and  C_6
REMARK    5  A    between atoms: C_19  and  C_20
REMARK    6  A    between atoms: C_20  and  N_21
REMARK    7  A    between atoms: C_22  and  C_24
REMARK                            x       y       z     vdW  Elec       q    Type
REMARK                         _______ _______ _______ _____ _____    ______ ____
ROOT
ATOM      1  C   UNL     1      47.695  10.661  11.711  0.00  0.00    +0.000 C 
ATOM      2  C   UNL     1      48.541   9.520  12.282  0.00  0.00    +0.000 C 
ENDROOT
BRANCH   2   3
ATOM      3  C   UNL     1      49.851   9.409  11.493  0.00  0.00    +0.000 A 
ATOM      4  C   UNL     1      50.440  10.523  10.879  0.00  0.00    +0.000 A 
ATOM      5  C   UNL     1      51.680  10.424  10.225  0.00  0.00    +0.000 A 
ATOM      6  C   UNL     1      52.369   9.203  10.156  0.00  0.00    +0.000 A 
ATOM      7  C   UNL     1      51.766   8.083  10.741  0.00  0.00    +0.000 A 
ATOM      8  C   UNL     1      50.523   8.180  11.381  0.00  0.00    +0.000 A 
BRANCH   6   9
ATOM      9  C   UNL     1      53.711   9.078   9.470  0.00  0.00    +0.000 C 
BRANCH   9  10
ATOM     10  N   UNL     1      54.025   7.735   9.047  0.00  0.00    +0.000 N 
ATOM     11  C   UNL     1      53.751   7.291   7.764  0.00  0.00    +0.000 C 
ATOM     12  O   UNL     1      53.231   7.999   6.898  0.00  0.00    +0.000 OA
ATOM     13  H   UNL     1      54.702   7.180   9.565  0.00  0.00    +0.000 HD
BRANCH  11  14
ATOM     14  C   UNL     1      54.149   5.873   7.471  0.00  0.00    +0.000 A 
ATOM     15  C   UNL     1      55.089   5.228   8.270  0.00  0.00    +0.000 A 
ATOM     16  C   UNL     1      55.426   3.910   7.967  0.00  0.00    +0.000 A 
ATOM     17  C   UNL     1      54.821   3.284   6.883  0.00  0.00    +0.000 A 
ATOM     18  C   UNL     1      53.899   4.005   6.137  0.00  0.00    +0.000 A 
ATOM     19  N   UNL     1      53.541   5.282   6.403  0.00  0.00    +0.000 NA
ENDBRANCH  11  14
ENDBRANCH   9  10
ENDBRANCH   6   9
ENDBRANCH   2   3
BRANCH   2  20
ATOM     20  N   UNL     1      47.814   8.250  12.258  0.00  0.00    +0.000 N 
ATOM     21  C   UNL     1      47.526   7.512  13.389  0.00  0.00    +0.000 C 
ATOM     22  O   UNL     1      47.836   7.855  14.515  0.00  0.00    +0.000 OA
ATOM     23  H   UNL     1      47.890   7.733  11.386  0.00  0.00    +0.000 HD
BRANCH  21  24
ATOM     24  C   UNL     1      46.756   6.274  13.150  0.00  0.00    +0.000 A 
ATOM     25  C   UNL     1      47.211   5.063  13.650  0.00  0.00    +0.000 A 
ATOM     26  S   UNL     1      46.231   3.733  13.213  0.00  0.00    +0.000 S 
ATOM     27  C   UNL     1      45.175   4.732  12.326  0.00  0.00    +0.000 A 
ATOM     28  N   UNL     1      44.119   4.211  11.639  0.00  0.00    +0.000 NA
ATOM     29  C   UNL     1      43.419   5.089  11.001  0.00  0.00    +0.000 A 
ATOM     30  N   UNL     1      43.656   6.441  11.010  0.00  0.00    +0.000 N 
ATOM     31  C   UNL     1      44.670   7.008  11.733  0.00  0.00    +0.000 A 
ATOM     32  O   UNL     1      44.801   8.232  11.797  0.00  0.00    +0.000 OA
ATOM     33  C   UNL     1      45.531   6.065  12.416  0.00  0.00    +0.000 A 
ATOM     34  H   UNL     1      43.042   7.080  10.526  0.00  0.00    +0.000 HD
ENDBRANCH  21  24
ENDBRANCH   2  20
TORSDOF 6
ENDMDL
