MODEL 1
REMARK VINA RESULT:    -8.230      0.000      0.000
REMARK INTER + INTRA:         -12.228
REMARK INTER:                 -11.116
REMARK INTRA:                  -1.112
REMARK UNBOUND:                -1.112
REMARK  Name = 
REMARK  6 active torsions:
REMARK  status: ('A' for Active; 'I' for Inactive)
REMARK    1  A    between atoms: C_2  and  C_25
REMARK    2  A    between atoms: N_3  and  C_4
REMARK    3  A    between atoms: C_4  and  C_5
REMARK    4  A    between atoms: C_8  and  C_9
REMARK    5  A    between atoms: C_9  and  N_10
REMARK    6  A    between atoms: C_11  and  C_13
REMARK                            x       y       z     vdW  Elec       q    Type
REMARK                         _______ _______ _______ _____ _____    ______ ____
ROOT
ATOM      1  C   UNL     1      45.028   5.403  10.761  0.00  0.00    +0.000 A 
ATOM      2  C   UNL     1      44.415   5.769  11.968  0.00  0.00    +0.000 A 
ATOM      3  C   UNL     1      45.039   6.666  12.843  0.00  0.00    +0.000 A 
ATOM      4  C   UNL     1      46.280   7.231  12.521  0.00  0.00    +0.000 A 
ATOM      5  C   UNL     1      46.891   6.866  11.315  0.00  0.00    +0.000 A 
ATOM      6  C   UNL     1      46.267   5.971  10.439  0.00  0.00    +0.000 A 
ENDROOT
BRANCH   1   7
ATOM      7  C   UNL     1      44.354   4.438   9.818  0.00  0.00    +0.000 C 
BRANCH   7  10
ATOM      8  O   UNL     1      44.885   1.750   9.244  0.00  0.00    +0.000 OA
ATOM      9  C   UNL     1      45.465   2.616   8.598  0.00  0.00    +0.000 C 
ATOM     10  N   UNL     1      45.273   3.959   8.815  0.00  0.00    +0.000 N 
ATOM     11  H   UNL     1      45.647   4.630   8.159  0.00  0.00    +0.000 HD
BRANCH   9  12
ATOM     12  C   UNL     1      46.390   2.296   7.543  0.00  0.00    +0.000 A 
ATOM     13  C   UNL     1      47.216   1.212   7.317  0.00  0.00    +0.000 A 
ATOM     14  N   UNL     1      47.924   1.356   6.152  0.00  0.00    +0.000 NA
ATOM     15  C   UNL     1      47.532   2.506   5.653  0.00  0.00    +0.000 A 
ATOM     16  N   UNL     1      46.602   3.104   6.446  0.00  0.00    +0.000 N 
ATOM     17  H   UNL     1      46.145   3.989   6.279  0.00  0.00    +0.000 HD
ENDBRANCH   9  12
ENDBRANCH   7  10
ENDBRANCH   1   7
BRANCH   4  18
ATOM     18  C   UNL     1      46.971   8.178  13.471  0.00  0.00    +0.000 C 
BRANCH  18  19
ATOM     19  N   UNL     1      47.444   7.485  14.643  0.00  0.00    +0.000 N 
ATOM     20  C   UNL     1      48.684   6.898  14.680  0.00  0.00    +0.000 C 
ATOM     21  O   UNL     1      49.467   6.974  13.737  0.00  0.00    +0.000 OA
ATOM     22  H   UNL     1      46.745   7.212  15.326  0.00  0.00    +0.000 HD
BRANCH  20  23
ATOM     23  C   UNL     1      49.054   6.226  15.932  0.00  0.00    +0.000 A 
ATOM     24  C   UNL     1      50.125   6.700  16.679  0.00  0.00    +0.000 A 
ATOM     25  S   UNL     1      50.377   5.846  18.134  0.00  0.00    +0.000 S 
ATOM     26  C   UNL     1      49.100   4.775  17.788  0.00  0.00    +0.000 A 
ATOM     27  N   UNL     1      48.789   3.761  18.641  0.00  0.00    +0.000 NA
ATOM     28  C   UNL     1      47.822   3.005  18.240  0.00  0.00    +0.000 A 
ATOM     29  N   UNL     1      47.135   3.174  17.065  0.00  0.00    +0.000 N 
ATOM     30  C   UNL     1      47.393   4.201  16.191  0.00  0.00    +0.000 A 
ATOM     31  O   UNL     1      46.731   4.348  15.169  0.00  0.00    +0.000 OA
ATOM     32  C   UNL     1      48.480   5.075  16.588  0.00  0.00    +0.000 A 
ATOM     33  H   UNL     1      46.384   2.551  16.811  0.00  0.00    +0.000 HD
ENDBRANCH  20  23
ENDBRANCH  18  19
ENDBRANCH   4  18
TORSDOF 6
ENDMDL
MODEL 2
REMARK VINA RESULT:    -7.690      2.245      2.682
REMARK INTER + INTRA:         -11.499
REMARK INTER:                 -10.562
REMARK INTRA:                  -0.937
REMARK UNBOUND:                -1.112
REMARK  Name = 
REMARK  6 active torsions:
REMARK  status: ('A' for Active; 'I' for Inactive)
REMARK    1  A    between atoms: C_2  and  C_25
REMARK    2  A    between atoms: N_3  and  C_4
REMARK    3  A    between atoms: C_4  and  C_5
REMARK    4  A    between atoms: C_8  and  C_9
REMARK    5  A    between atoms: C_9  and  N_10
REMARK    6  A    between atoms: C_11  and  C_13
REMARK                            x       y       z     vdW  Elec       q    Type
REMARK                         _______ _______ _______ _____ _____    ______ ____
ROOT
ATOM      1  C   UNL     1      45.225   5.178  11.290  0.00  0.00    +0.000 A 
ATOM      2  C   UNL     1      45.582   6.500  10.990  0.00  0.00    +0.000 A 
ATOM      3  C   UNL     1      46.461   7.209  11.819  0.00  0.00    +0.000 A 
ATOM      4  C   UNL     1      47.016   6.603  12.954  0.00  0.00    +0.000 A 
ATOM      5  C   UNL     1      46.660   5.282  13.252  0.00  0.00    +0.000 A 
ATOM      6  C   UNL     1      45.784   4.573  12.423  0.00  0.00    +0.000 A 
ENDROOT
BRANCH   1   7
ATOM      7  C   UNL     1      44.281   4.414  10.396  0.00  0.00    +0.000 C 
BRANCH   7  10
ATOM      8  O   UNL     1      45.692   4.773   8.004  0.00  0.00    +0.000 OA
ATOM      9  C   UNL     1      45.646   3.651   8.499  0.00  0.00    +0.000 C 
ATOM     10  N   UNL     1      44.973   3.380   9.665  0.00  0.00    +0.000 N 
ATOM     11  H   UNL     1      45.094   2.486  10.116  0.00  0.00    +0.000 HD
BRANCH   9  12
ATOM     12  C   UNL     1      46.311   2.523   7.903  0.00  0.00    +0.000 A 
ATOM     13  C   UNL     1      47.287   2.415   6.931  0.00  0.00    +0.000 A 
ATOM     14  N   UNL     1      47.614   1.105   6.692  0.00  0.00    +0.000 NA
ATOM     15  C   UNL     1      46.862   0.409   7.514  0.00  0.00    +0.000 A 
ATOM     16  N   UNL     1      46.070   1.216   8.271  0.00  0.00    +0.000 N 
ATOM     17  H   UNL     1      45.409   0.924   8.977  0.00  0.00    +0.000 HD
ENDBRANCH   9  12
ENDBRANCH   7  10
ENDBRANCH   1   7
BRANCH   4  18
ATOM     18  C   UNL     1      47.942   7.369  13.867  0.00  0.00    +0.000 C 
BRANCH  18  19
ATOM     19  N   UNL     1      47.870   6.871  15.217  0.00  0.00    +0.000 N 
ATOM     20  C   UNL     1      48.994   6.474  15.898  0.00  0.00    +0.000 C 
ATOM     21  O   UNL     1      50.117   6.569  15.409  0.00  0.00    +0.000 OA
ATOM     22  H   UNL     1      46.959   6.568  15.545  0.00  0.00    +0.000 HD
BRANCH  20  23
ATOM     23  C   UNL     1      48.793   5.990  17.269  0.00  0.00    +0.000 A 
ATOM     24  C   UNL     1      49.044   4.658  17.575  0.00  0.00    +0.000 A 
ATOM     25  S   UNL     1      48.822   4.280  19.224  0.00  0.00    +0.000 S 
ATOM     26  C   UNL     1      48.325   5.869  19.576  0.00  0.00    +0.000 A 
ATOM     27  N   UNL     1      47.960   6.223  20.839  0.00  0.00    +0.000 NA
ATOM     28  C   UNL     1      47.574   7.449  20.957  0.00  0.00    +0.000 A 
ATOM     29  N   UNL     1      47.522   8.355  19.928  0.00  0.00    +0.000 N 
ATOM     30  C   UNL     1      47.910   8.051  18.647  0.00  0.00    +0.000 A 
ATOM     31  O   UNL     1      47.892   8.898  17.760  0.00  0.00    +0.000 OA
ATOM     32  C   UNL     1      48.344   6.681  18.455  0.00  0.00    +0.000 A 
ATOM     33  H   UNL     1      47.215   9.302  20.089  0.00  0.00    +0.000 HD
ENDBRANCH  20  23
ENDBRANCH  18  19
ENDBRANCH   4  18
TORSDOF 6
ENDMDL
MODEL 3
REMARK VINA RESULT:    -7.480      2.415      3.980
REMARK INTER + INTRA:         -11.215
REMARK INTER:                 -10.202
REMARK INTRA:                  -1.013
REMARK UNBOUND:                -1.112
REMARK  Name = 
REMARK  6 active torsions:
REMARK  status: ('A' for Active; 'I' for Inactive)
REMARK    1  A    between atoms: C_2  and  C_25
REMARK    2  A    between atoms: N_3  and  C_4
REMARK    3  A    between atoms: C_4  and  C_5
REMARK    4  A    between atoms: C_8  and  C_9
REMARK    5  A    between atoms: C_9  and  N_10
REMARK    6  A    between atoms: C_11  and  C_13
REMARK                            x       y       z     vdW  Elec       q    Type
REMARK                         _______ _______ _______ _____ _____    ______ ____
ROOT
ATOM      1  C   UNL     1      44.933   4.208  11.115  0.00  0.00    +0.000 A 
ATOM      2  C   UNL     1      45.246   3.136  11.962  0.00  0.00    +0.000 A 
ATOM      3  C   UNL     1      45.941   3.350  13.159  0.00  0.00    +0.000 A 
ATOM      4  C   UNL     1      46.320   4.643  13.544  0.00  0.00    +0.000 A 
ATOM      5  C   UNL     1      46.005   5.714  12.698  0.00  0.00    +0.000 A 
ATOM      6  C   UNL     1      45.309   5.501  11.503  0.00  0.00    +0.000 A 
ENDROOT
BRANCH   1   7
ATOM      7  C   UNL     1      44.183   3.978   9.828  0.00  0.00    +0.000 C 
BRANCH   7  10
ATOM      8  O   UNL     1      46.144   5.102   8.176  0.00  0.00    +0.000 OA
ATOM      9  C   UNL     1      45.936   3.896   8.107  0.00  0.00    +0.000 C 
ATOM     10  N   UNL     1      44.990   3.259   8.873  0.00  0.00    +0.000 N 
ATOM     11  H   UNL     1      44.964   2.250   8.899  0.00  0.00    +0.000 HD
BRANCH   9  12
ATOM     12  C   UNL     1      46.682   3.039   7.223  0.00  0.00    +0.000 A 
ATOM     13  C   UNL     1      47.179   1.758   7.358  0.00  0.00    +0.000 A 
ATOM     14  N   UNL     1      47.833   1.351   6.223  0.00  0.00    +0.000 NA
ATOM     15  C   UNL     1      47.729   2.360   5.389  0.00  0.00    +0.000 A 
ATOM     16  N   UNL     1      47.037   3.395   5.939  0.00  0.00    +0.000 N 
ATOM     17  H   UNL     1      46.820   4.278   5.500  0.00  0.00    +0.000 HD
ENDBRANCH   9  12
ENDBRANCH   7  10
ENDBRANCH   1   7
BRANCH   4  18
ATOM     18  C   UNL     1      47.092   4.878  14.819  0.00  0.00    +0.000 C 
BRANCH  18  19
ATOM     19  N   UNL     1      47.728   6.172  14.810  0.00  0.00    +0.000 N 
ATOM     20  C   UNL     1      48.848   6.427  15.560  0.00  0.00    +0.000 C 
ATOM     21  O   UNL     1      49.390   5.556  16.236  0.00  0.00    +0.000 OA
ATOM     22  H   UNL     1      47.178   6.949  14.458  0.00  0.00    +0.000 HD
BRANCH  20  23
ATOM     23  C   UNL     1      49.407   7.781  15.463  0.00  0.00    +0.000 A 
ATOM     24  C   UNL     1      49.564   8.548  16.611  0.00  0.00    +0.000 A 
ATOM     25  S   UNL     1      50.285  10.067  16.327  0.00  0.00    +0.000 S 
ATOM     26  C   UNL     1      50.360   9.779  14.652  0.00  0.00    +0.000 A 
ATOM     27  N   UNL     1      50.866  10.716  13.803  0.00  0.00    +0.000 NA
ATOM     28  C   UNL     1      50.832  10.380  12.558  0.00  0.00    +0.000 A 
ATOM     29  N   UNL     1      50.342   9.189  12.083  0.00  0.00    +0.000 N 
ATOM     30  C   UNL     1      49.853   8.203  12.903  0.00  0.00    +0.000 A 
ATOM     31  O   UNL     1      49.463   7.133  12.449  0.00  0.00    +0.000 OA
ATOM     32  C   UNL     1      49.857   8.534  14.315  0.00  0.00    +0.000 A 
ATOM     33  H   UNL     1      50.349   8.985  11.095  0.00  0.00    +0.000 HD
ENDBRANCH  20  23
ENDBRANCH  18  19
ENDBRANCH   4  18
TORSDOF 6
ENDMDL
MODEL 4
REMARK VINA RESULT:    -7.022      2.101      2.897
REMARK INTER + INTRA:         -10.597
REMARK INTER:                 -10.051
REMARK INTRA:                  -0.546
REMARK UNBOUND:                -1.112
REMARK  Name = 
REMARK  6 active torsions:
REMARK  status: ('A' for Active; 'I' for Inactive)
REMARK    1  A    between atoms: C_2  and  C_25
REMARK    2  A    between atoms: N_3  and  C_4
REMARK    3  A    between atoms: C_4  and  C_5
REMARK    4  A    between atoms: C_8  and  C_9
REMARK    5  A    between atoms: C_9  and  N_10
REMARK    6  A    between atoms: C_11  and  C_13
REMARK                            x       y       z     vdW  Elec       q    Type
REMARK                         _______ _______ _______ _____ _____    ______ ____
ROOT
ATOM      1  C   UNL     1      45.171   4.173  11.321  0.00  0.00    +0.000 A 
ATOM      2  C   UNL     1      45.343   5.510  10.936  0.00  0.00    +0.000 A 
ATOM      3  C   UNL     1      46.008   6.415  11.772  0.00  0.00    +0.000 A 
ATOM      4  C   UNL     1      46.533   5.997  13.002  0.00  0.00    +0.000 A 
ATOM      5  C   UNL     1      46.362   4.661  13.386  0.00  0.00    +0.000 A 
ATOM      6  C   UNL     1      45.699   3.756  12.549  0.00  0.00    +0.000 A 
ENDROOT
BRANCH   1   7
ATOM      7  C   UNL     1      44.457   3.199  10.419  0.00  0.00    +0.000 C 
BRANCH   7  10
ATOM      8  O   UNL     1      44.959   4.368   7.924  0.00  0.00    +0.000 OA
ATOM      9  C   UNL     1      45.532   3.322   8.211  0.00  0.00    +0.000 C 
ATOM     10  N   UNL     1      45.342   2.675   9.408  0.00  0.00    +0.000 N 
ATOM     11  H   UNL     1      45.950   1.910   9.664  0.00  0.00    +0.000 HD
BRANCH   9  12
ATOM     12  C   UNL     1      46.469   2.691   7.319  0.00  0.00    +0.000 A 
ATOM     13  C   UNL     1      47.156   1.495   7.374  0.00  0.00    +0.000 A 
ATOM     14  N   UNL     1      47.947   1.319   6.268  0.00  0.00    +0.000 NA
ATOM     15  C   UNL     1      47.743   2.386   5.530  0.00  0.00    +0.000 A 
ATOM     16  N   UNL     1      46.855   3.236   6.113  0.00  0.00    +0.000 N 
ATOM     17  H   UNL     1      46.530   4.118   5.743  0.00  0.00    +0.000 HD
ENDBRANCH   9  12
ENDBRANCH   7  10
ENDBRANCH   1   7
BRANCH   4  18
ATOM     18  C   UNL     1      47.228   6.972  13.921  0.00  0.00    +0.000 C 
BRANCH  18  19
ATOM     19  N   UNL     1      48.087   6.286  14.853  0.00  0.00    +0.000 N 
ATOM     20  C   UNL     1      48.736   6.956  15.860  0.00  0.00    +0.000 C 
ATOM     21  O   UNL     1      48.580   8.160  16.044  0.00  0.00    +0.000 OA
ATOM     22  H   UNL     1      48.409   5.362  14.584  0.00  0.00    +0.000 HD
BRANCH  20  23
ATOM     23  C   UNL     1      49.578   6.146  16.749  0.00  0.00    +0.000 A 
ATOM     24  C   UNL     1      48.988   5.333  17.709  0.00  0.00    +0.000 A 
ATOM     25  S   UNL     1      50.107   4.414  18.610  0.00  0.00    +0.000 S 
ATOM     26  C   UNL     1      51.423   5.113  17.789  0.00  0.00    +0.000 A 
ATOM     27  N   UNL     1      52.703   4.770  18.102  0.00  0.00    +0.000 NA
ATOM     28  C   UNL     1      53.604   5.400  17.426  0.00  0.00    +0.000 A 
ATOM     29  N   UNL     1      53.341   6.340  16.462  0.00  0.00    +0.000 N 
ATOM     30  C   UNL     1      52.067   6.695  16.092  0.00  0.00    +0.000 A 
ATOM     31  O   UNL     1      51.868   7.507  15.196  0.00  0.00    +0.000 OA
ATOM     32  C   UNL     1      51.015   6.022  16.830  0.00  0.00    +0.000 A 
ATOM     33  H   UNL     1      54.092   6.794  15.964  0.00  0.00    +0.000 HD
ENDBRANCH  20  23
ENDBRANCH  18  19
ENDBRANCH   4  18
TORSDOF 6
ENDMDL
MODEL 5
REMARK VINA RESULT:    -7.017      2.895      3.692
REMARK INTER + INTRA:         -10.590
REMARK INTER:                  -9.670
REMARK INTRA:                  -0.920
REMARK UNBOUND:                -1.112
REMARK  Name = 
REMARK  6 active torsions:
REMARK  status: ('A' for Active; 'I' for Inactive)
REMARK    1  A    between atoms: C_2  and  C_25
REMARK    2  A    between atoms: N_3  and  C_4
REMARK    3  A    between atoms: C_4  and  C_5
REMARK    4  A    between atoms: C_8  and  C_9
REMARK    5  A    between atoms: C_9  and  N_10
REMARK    6  A    between atoms: C_11  and  C_13
REMARK                            x       y       z     vdW  Elec       q    Type
REMARK                         _______ _______ _______ _____ _____    ______ ____
ROOT
ATOM      1  C   UNL     1      45.175   4.590  11.435  0.00  0.00    +0.000 A 
ATOM      2  C   UNL     1      45.718   5.846  11.742  0.00  0.00    +0.000 A 
ATOM      3  C   UNL     1      46.525   6.019  12.873  0.00  0.00    +0.000 A 
ATOM      4  C   UNL     1      46.823   4.936  13.710  0.00  0.00    +0.000 A 
ATOM      5  C   UNL     1      46.282   3.681  13.402  0.00  0.00    +0.000 A 
ATOM      6  C   UNL     1      45.477   3.507  12.271  0.00  0.00    +0.000 A 
ENDROOT
BRANCH   1   7
ATOM      7  C   UNL     1      44.308   4.404  10.216  0.00  0.00    +0.000 C 
BRANCH   7  10
ATOM      8  O   UNL     1      46.204   5.315   8.369  0.00  0.00    +0.000 OA
ATOM      9  C   UNL     1      45.894   4.129   8.358  0.00  0.00    +0.000 C 
ATOM     10  N   UNL     1      44.969   3.595   9.222  0.00  0.00    +0.000 N 
ATOM     11  H   UNL     1      44.863   2.593   9.284  0.00  0.00    +0.000 HD
BRANCH   9  12
ATOM     12  C   UNL     1      46.489   3.189   7.445  0.00  0.00    +0.000 A 
ATOM     13  C   UNL     1      46.749   1.835   7.529  0.00  0.00    +0.000 A 
ATOM     14  N   UNL     1      47.336   1.365   6.383  0.00  0.00    +0.000 NA
ATOM     15  C   UNL     1      47.427   2.409   5.592  0.00  0.00    +0.000 A 
ATOM     16  N   UNL     1      46.921   3.527   6.180  0.00  0.00    +0.000 N 
ATOM     17  H   UNL     1      46.871   4.452   5.777  0.00  0.00    +0.000 HD
ENDBRANCH   9  12
ENDBRANCH   7  10
ENDBRANCH   1   7
BRANCH   4  18
ATOM     18  C   UNL     1      47.670   5.119  14.945  0.00  0.00    +0.000 C 
BRANCH  18  19
ATOM     19  N   UNL     1      47.764   6.511  15.309  0.00  0.00    +0.000 N 
ATOM     20  C   UNL     1      48.977   7.130  15.476  0.00  0.00    +0.000 C 
ATOM     21  O   UNL     1      50.038   6.544  15.278  0.00  0.00    +0.000 OA
ATOM     22  H   UNL     1      46.930   6.939  15.698  0.00  0.00    +0.000 HD
BRANCH  20  23
ATOM     23  C   UNL     1      48.943   8.552  15.841  0.00  0.00    +0.000 A 
ATOM     24  C   UNL     1      49.455   9.502  14.967  0.00  0.00    +0.000 A 
ATOM     25  S   UNL     1      49.277  11.107  15.517  0.00  0.00    +0.000 S 
ATOM     26  C   UNL     1      48.560  10.585  16.970  0.00  0.00    +0.000 A 
ATOM     27  N   UNL     1      48.177  11.481  17.921  0.00  0.00    +0.000 NA
ATOM     28  C   UNL     1      47.680  10.947  18.985  0.00  0.00    +0.000 A 
ATOM     29  N   UNL     1      47.526   9.598  19.184  0.00  0.00    +0.000 N 
ATOM     30  C   UNL     1      47.869   8.661  18.241  0.00  0.00    +0.000 A 
ATOM     31  O   UNL     1      47.678   7.466  18.435  0.00  0.00    +0.000 OA
ATOM     32  C   UNL     1      48.444   9.207  17.027  0.00  0.00    +0.000 A 
ATOM     33  H   UNL     1      47.124   9.245  20.039  0.00  0.00    +0.000 HD
ENDBRANCH  20  23
ENDBRANCH  18  19
ENDBRANCH   4  18
TORSDOF 6
ENDMDL
MODEL 6
REMARK VINA RESULT:    -6.841      3.720      8.196
REMARK INTER + INTRA:         -10.352
REMARK INTER:                  -9.476
REMARK INTRA:                  -0.876
REMARK UNBOUND:                -1.112
REMARK  Name = 
REMARK  6 active torsions:
REMARK  status: ('A' for Active; 'I' for Inactive)
REMARK    1  A    between atoms: C_2  and  C_25
REMARK    2  A    between atoms: N_3  and  C_4
REMARK    3  A    between atoms: C_4  and  C_5
REMARK    4  A    between atoms: C_8  and  C_9
REMARK    5  A    between atoms: C_9  and  N_10
REMARK    6  A    between atoms: C_11  and  C_13
REMARK                            x       y       z     vdW  Elec       q    Type
REMARK                         _______ _______ _______ _____ _____    ______ ____
ROOT
ATOM      1  C   UNL     1      50.069   6.972  15.862  0.00  0.00    +0.000 A 
ATOM      2  C   UNL     1      48.787   6.524  15.516  0.00  0.00    +0.000 A 
ATOM      3  C   UNL     1      48.228   6.844  14.273  0.00  0.00    +0.000 A 
ATOM      4  C   UNL     1      48.948   7.602  13.340  0.00  0.00    +0.000 A 
ATOM      5  C   UNL     1      50.231   8.049  13.685  0.00  0.00    +0.000 A 
ATOM      6  C   UNL     1      50.790   7.727  14.927  0.00  0.00    +0.000 A 
ENDROOT
BRANCH   1   7
ATOM      7  C   UNL     1      50.671   6.626  17.200  0.00  0.00    +0.000 C 
BRANCH   7  10
ATOM      8  O   UNL     1      49.547   4.430  18.524  0.00  0.00    +0.000 OA
ATOM      9  C   UNL     1      50.577   4.265  17.879  0.00  0.00    +0.000 C 
ATOM     10  N   UNL     1      51.202   5.285  17.203  0.00  0.00    +0.000 N 
ATOM     11  H   UNL     1      51.952   5.073  16.561  0.00  0.00    +0.000 HD
BRANCH   9  12
ATOM     12  C   UNL     1      51.212   2.978  17.763  0.00  0.00    +0.000 A 
ATOM     13  C   UNL     1      50.852   1.810  17.120  0.00  0.00    +0.000 A 
ATOM     14  N   UNL     1      51.796   0.831  17.293  0.00  0.00    +0.000 NA
ATOM     15  C   UNL     1      52.736   1.388  18.022  0.00  0.00    +0.000 A 
ATOM     16  N   UNL     1      52.437   2.682  18.321  0.00  0.00    +0.000 N 
ATOM     17  H   UNL     1      52.999   3.323  18.862  0.00  0.00    +0.000 HD
ENDBRANCH   9  12
ENDBRANCH   7  10
ENDBRANCH   1   7
BRANCH   4  18
ATOM     18  C   UNL     1      48.343   7.974  12.009  0.00  0.00    +0.000 C 
BRANCH  18  19
ATOM     19  N   UNL     1      47.607   6.869  11.446  0.00  0.00    +0.000 N 
ATOM     20  C   UNL     1      46.238   6.889  11.358  0.00  0.00    +0.000 C 
ATOM     21  O   UNL     1      45.578   7.863  11.708  0.00  0.00    +0.000 OA
ATOM     22  H   UNL     1      48.097   5.983  11.373  0.00  0.00    +0.000 HD
BRANCH  20  23
ATOM     23  C   UNL     1      45.603   5.707  10.761  0.00  0.00    +0.000 A 
ATOM     24  C   UNL     1      45.723   5.473   9.396  0.00  0.00    +0.000 A 
ATOM     25  S   UNL     1      44.983   4.026   8.881  0.00  0.00    +0.000 S 
ATOM     26  C   UNL     1      44.425   3.689  10.453  0.00  0.00    +0.000 A 
ATOM     27  N   UNL     1      43.683   2.576  10.707  0.00  0.00    +0.000 NA
ATOM     28  C   UNL     1      43.298   2.462  11.934  0.00  0.00    +0.000 A 
ATOM     29  N   UNL     1      43.591   3.358  12.931  0.00  0.00    +0.000 N 
ATOM     30  C   UNL     1      44.361   4.476  12.727  0.00  0.00    +0.000 A 
ATOM     31  O   UNL     1      44.640   5.232  13.651  0.00  0.00    +0.000 OA
ATOM     32  C   UNL     1      44.812   4.659  11.361  0.00  0.00    +0.000 A 
ATOM     33  H   UNL     1      43.263   3.207  13.873  0.00  0.00    +0.000 HD
ENDBRANCH  20  23
ENDBRANCH  18  19
ENDBRANCH   4  18
TORSDOF 6
ENDMDL
MODEL 7
REMARK VINA RESULT:    -6.799      4.517      7.173
REMARK INTER + INTRA:         -10.295
REMARK INTER:                  -9.391
REMARK INTRA:                  -0.904
REMARK UNBOUND:                -1.112
REMARK  Name = 
REMARK  6 active torsions:
REMARK  status: ('A' for Active; 'I' for Inactive)
REMARK    1  A    between atoms: C_2  and  C_25
REMARK    2  A    between atoms: N_3  and  C_4
REMARK    3  A    between atoms: C_4  and  C_5
REMARK    4  A    between atoms: C_8  and  C_9
REMARK    5  A    between atoms: C_9  and  N_10
REMARK    6  A    between atoms: C_11  and  C_13
REMARK                            x       y       z     vdW  Elec       q    Type
REMARK                         _______ _______ _______ _____ _____    ______ ____
ROOT
ATOM      1  C   UNL     1      50.480   8.756  11.431  0.00  0.00    +0.000 A 
ATOM      2  C   UNL     1      49.705   9.870  11.780  0.00  0.00    +0.000 A 
ATOM      3  C   UNL     1      48.406   9.710  12.279  0.00  0.00    +0.000 A 
ATOM      4  C   UNL     1      47.863   8.431  12.458  0.00  0.00    +0.000 A 
ATOM      5  C   UNL     1      48.639   7.318  12.111  0.00  0.00    +0.000 A 
ATOM      6  C   UNL     1      49.937   7.477  11.615  0.00  0.00    +0.000 A 
ENDROOT
BRANCH   1   7
ATOM      7  C   UNL     1      51.879   8.929  10.897  0.00  0.00    +0.000 C 
BRANCH   7  10
ATOM      8  O   UNL     1      53.799   6.894  10.789  0.00  0.00    +0.000 OA
ATOM      9  C   UNL     1      53.084   7.082   9.810  0.00  0.00    +0.000 C 
ATOM     10  N   UNL     1      52.121   8.061   9.770  0.00  0.00    +0.000 N 
ATOM     11  H   UNL     1      51.454   8.075   9.013  0.00  0.00    +0.000 HD
BRANCH   9  12
ATOM     12  C   UNL     1      53.184   6.277   8.621  0.00  0.00    +0.000 A 
ATOM     13  C   UNL     1      52.712   6.443   7.334  0.00  0.00    +0.000 A 
ATOM     14  N   UNL     1      53.068   5.392   6.529  0.00  0.00    +0.000 NA
ATOM     15  C   UNL     1      53.764   4.590   7.303  0.00  0.00    +0.000 A 
ATOM     16  N   UNL     1      53.871   5.083   8.567  0.00  0.00    +0.000 N 
ATOM     17  H   UNL     1      54.359   4.657   9.342  0.00  0.00    +0.000 HD
ENDBRANCH   9  12
ENDBRANCH   7  10
ENDBRANCH   1   7
BRANCH   4  18
ATOM     18  C   UNL     1      46.455   8.251  12.969  0.00  0.00    +0.000 C 
BRANCH  18  19
ATOM     19  N   UNL     1      45.968   6.923  12.694  0.00  0.00    +0.000 N 
ATOM     20  C   UNL     1      44.955   6.700  11.795  0.00  0.00    +0.000 C 
ATOM     21  O   UNL     1      44.448   7.613  11.149  0.00  0.00    +0.000 OA
ATOM     22  H   UNL     1      46.199   6.202  13.370  0.00  0.00    +0.000 HD
BRANCH  20  23
ATOM     23  C   UNL     1      44.550   5.303  11.597  0.00  0.00    +0.000 A 
ATOM     24  C   UNL     1      43.870   4.631  12.605  0.00  0.00    +0.000 A 
ATOM     25  S   UNL     1      43.420   3.040  12.185  0.00  0.00    +0.000 S 
ATOM     26  C   UNL     1      44.168   3.173  10.663  0.00  0.00    +0.000 A 
ATOM     27  N   UNL     1      44.168   2.128   9.790  0.00  0.00    +0.000 NA
ATOM     28  C   UNL     1      44.800   2.354   8.688  0.00  0.00    +0.000 A 
ATOM     29  N   UNL     1      45.429   3.533   8.376  0.00  0.00    +0.000 N 
ATOM     30  C   UNL     1      45.428   4.622   9.211  0.00  0.00    +0.000 A 
ATOM     31  O   UNL     1      45.963   5.676   8.882  0.00  0.00    +0.000 OA
ATOM     32  C   UNL     1      44.740   4.419  10.471  0.00  0.00    +0.000 A 
ATOM     33  H   UNL     1      45.902   3.647   7.492  0.00  0.00    +0.000 HD
ENDBRANCH  20  23
ENDBRANCH  18  19
ENDBRANCH   4  18
TORSDOF 6
ENDMDL
MODEL 8
REMARK VINA RESULT:    -6.602      2.065      2.369
REMARK INTER + INTRA:         -10.030
REMARK INTER:                  -9.176
REMARK INTRA:                  -0.854
REMARK UNBOUND:                -1.112
REMARK  Name = 
REMARK  6 active torsions:
REMARK  status: ('A' for Active; 'I' for Inactive)
REMARK    1  A    between atoms: C_2  and  C_25
REMARK    2  A    between atoms: N_3  and  C_4
REMARK    3  A    between atoms: C_4  and  C_5
REMARK    4  A    between atoms: C_8  and  C_9
REMARK    5  A    between atoms: C_9  and  N_10
REMARK    6  A    between atoms: C_11  and  C_13
REMARK                            x       y       z     vdW  Elec       q    Type
REMARK                         _______ _______ _______ _____ _____    ______ ____
ROOT
ATOM      1  C   UNL     1      45.442   6.540  11.665  0.00  0.00    +0.000 A 
ATOM      2  C   UNL     1      45.117   7.825  12.121  0.00  0.00    +0.000 A 
ATOM      3  C   UNL     1      45.973   8.513  12.990  0.00  0.00    +0.000 A 
ATOM      4  C   UNL     1      47.181   7.938  13.406  0.00  0.00    +0.000 A 
ATOM      5  C   UNL     1      47.506   6.654  12.949  0.00  0.00    +0.000 A 
ATOM      6  C   UNL     1      46.652   5.967  12.079  0.00  0.00    +0.000 A 
ENDROOT
BRANCH   1   7
ATOM      7  C   UNL     1      44.521   5.801  10.728  0.00  0.00    +0.000 C 
BRANCH   7  10
ATOM      8  O   UNL     1      43.803   3.235   9.867  0.00  0.00    +0.000 OA
ATOM      9  C   UNL     1      44.831   3.739   9.425  0.00  0.00    +0.000 C 
ATOM     10  N   UNL     1      45.265   4.988   9.795  0.00  0.00    +0.000 N 
ATOM     11  H   UNL     1      46.022   5.424   9.291  0.00  0.00    +0.000 HD
BRANCH   9  12
ATOM     12  C   UNL     1      45.664   3.064   8.464  0.00  0.00    +0.000 A 
ATOM     13  C   UNL     1      46.088   1.755   8.346  0.00  0.00    +0.000 A 
ATOM     14  N   UNL     1      46.882   1.583   7.242  0.00  0.00    +0.000 NA
ATOM     15  C   UNL     1      46.939   2.767   6.675  0.00  0.00    +0.000 A 
ATOM     16  N   UNL     1      46.214   3.688   7.365  0.00  0.00    +0.000 N 
ATOM     17  H   UNL     1      46.097   4.664   7.131  0.00  0.00    +0.000 HD
ENDBRANCH   9  12
ENDBRANCH   7  10
ENDBRANCH   1   7
BRANCH   4  18
ATOM     18  C   UNL     1      48.096   8.662  14.363  0.00  0.00    +0.000 C 
BRANCH  18  19
ATOM     19  N   UNL     1      47.990   8.118  15.694  0.00  0.00    +0.000 N 
ATOM     20  C   UNL     1      48.546   8.754  16.776  0.00  0.00    +0.000 C 
ATOM     21  O   UNL     1      49.117   9.836  16.671  0.00  0.00    +0.000 OA
ATOM     22  H   UNL     1      47.739   7.138  15.769  0.00  0.00    +0.000 HD
BRANCH  20  23
ATOM     23  C   UNL     1      48.366   8.104  18.080  0.00  0.00    +0.000 A 
ATOM     24  C   UNL     1      47.905   8.843  19.162  0.00  0.00    +0.000 A 
ATOM     25  S   UNL     1      47.692   7.921  20.581  0.00  0.00    +0.000 S 
ATOM     26  C   UNL     1      48.266   6.513  19.816  0.00  0.00    +0.000 A 
ATOM     27  N   UNL     1      48.362   5.338  20.497  0.00  0.00    +0.000 NA
ATOM     28  C   UNL     1      48.843   4.360  19.806  0.00  0.00    +0.000 A 
ATOM     29  N   UNL     1      49.233   4.449  18.493  0.00  0.00    +0.000 N 
ATOM     30  C   UNL     1      49.124   5.604  17.759  0.00  0.00    +0.000 A 
ATOM     31  O   UNL     1      49.442   5.637  16.575  0.00  0.00    +0.000 OA
ATOM     32  C   UNL     1      48.598   6.740  18.492  0.00  0.00    +0.000 A 
ATOM     33  H   UNL     1      49.597   3.644  18.007  0.00  0.00    +0.000 HD
ENDBRANCH  20  23
ENDBRANCH  18  19
ENDBRANCH   4  18
TORSDOF 6
ENDMDL
MODEL 9
REMARK VINA RESULT:    -6.558      3.841      8.665
REMARK INTER + INTRA:          -9.969
REMARK INTER:                  -8.952
REMARK INTRA:                  -1.017
REMARK UNBOUND:                -1.112
REMARK  Name = 
REMARK  6 active torsions:
REMARK  status: ('A' for Active; 'I' for Inactive)
REMARK    1  A    between atoms: C_2  and  C_25
REMARK    2  A    between atoms: N_3  and  C_4
REMARK    3  A    between atoms: C_4  and  C_5
REMARK    4  A    between atoms: C_8  and  C_9
REMARK    5  A    between atoms: C_9  and  N_10
REMARK    6  A    between atoms: C_11  and  C_13
REMARK                            x       y       z     vdW  Elec       q    Type
REMARK                         _______ _______ _______ _____ _____    ______ ____
ROOT
ATOM      1  C   UNL     1      49.687   5.068  17.657  0.00  0.00    +0.000 A 
ATOM      2  C   UNL     1      50.444   6.146  17.177  0.00  0.00    +0.000 A 
ATOM      3  C   UNL     1      50.002   6.897  16.080  0.00  0.00    +0.000 A 
ATOM      4  C   UNL     1      48.785   6.599  15.454  0.00  0.00    +0.000 A 
ATOM      5  C   UNL     1      48.028   5.523  15.935  0.00  0.00    +0.000 A 
ATOM      6  C   UNL     1      48.468   4.773  17.032  0.00  0.00    +0.000 A 
ENDROOT
BRANCH   1   7
ATOM      7  C   UNL     1      50.161   4.261  18.839  0.00  0.00    +0.000 C 
BRANCH   7  10
ATOM      8  O   UNL     1      52.955   4.356  18.987  0.00  0.00    +0.000 OA
ATOM      9  C   UNL     1      52.423   3.344  18.545  0.00  0.00    +0.000 C 
ATOM     10  N   UNL     1      51.061   3.210  18.429  0.00  0.00    +0.000 N 
ATOM     11  H   UNL     1      50.663   2.308  18.212  0.00  0.00    +0.000 HD
BRANCH   9  12
ATOM     12  C   UNL     1      53.185   2.199  18.122  0.00  0.00    +0.000 A 
ATOM     13  C   UNL     1      54.352   2.065  17.396  0.00  0.00    +0.000 A 
ATOM     14  N   UNL     1      54.702   0.748  17.246  0.00  0.00    +0.000 NA
ATOM     15  C   UNL     1      53.772   0.073  17.882  0.00  0.00    +0.000 A 
ATOM     16  N   UNL     1      52.844   0.900  18.435  0.00  0.00    +0.000 N 
ATOM     17  H   UNL     1      52.036   0.626  18.977  0.00  0.00    +0.000 HD
ENDBRANCH   9  12
ENDBRANCH   7  10
ENDBRANCH   1   7
BRANCH   4  18
ATOM     18  C   UNL     1      48.316   7.386  14.256  0.00  0.00    +0.000 C 
BRANCH  18  19
ATOM     19  N   UNL     1      47.066   6.874  13.754  0.00  0.00    +0.000 N 
ATOM     20  C   UNL     1      46.807   6.802  12.408  0.00  0.00    +0.000 C 
ATOM     21  O   UNL     1      47.642   7.124  11.568  0.00  0.00    +0.000 OA
ATOM     22  H   UNL     1      46.294   6.827  14.411  0.00  0.00    +0.000 HD
BRANCH  20  23
ATOM     23  C   UNL     1      45.500   6.256  12.021  0.00  0.00    +0.000 A 
ATOM     24  C   UNL     1      44.534   7.095  11.478  0.00  0.00    +0.000 A 
ATOM     25  S   UNL     1      43.101   6.288  11.026  0.00  0.00    +0.000 S 
ATOM     26  C   UNL     1      43.697   4.799  11.593  0.00  0.00    +0.000 A 
ATOM     27  N   UNL     1      42.940   3.670  11.522  0.00  0.00    +0.000 NA
ATOM     28  C   UNL     1      43.501   2.619  12.018  0.00  0.00    +0.000 A 
ATOM     29  N   UNL     1      44.754   2.593  12.576  0.00  0.00    +0.000 N 
ATOM     30  C   UNL     1      45.565   3.699  12.641  0.00  0.00    +0.000 A 
ATOM     31  O   UNL     1      46.697   3.631  13.107  0.00  0.00    +0.000 OA
ATOM     32  C   UNL     1      44.978   4.912  12.105  0.00  0.00    +0.000 A 
ATOM     33  H   UNL     1      45.139   1.736  12.943  0.00  0.00    +0.000 HD
ENDBRANCH  20  23
ENDBRANCH  18  19
ENDBRANCH   4  18
TORSDOF 6
ENDMDL
