MODEL 1
REMARK VINA RESULT:    -8.876      0.000      0.000
REMARK INTER + INTRA:         -12.857
REMARK INTER:                 -11.990
REMARK INTRA:                  -0.868
REMARK UNBOUND:                -0.868
REMARK  Name = 
REMARK  7 active torsions:
REMARK  status: ('A' for Active; 'I' for Inactive)
REMARK    1  A    between atoms: C_1  and  C_2
REMARK    2  A    between atoms: C_5  and  C_6
REMARK    3  A    between atoms: C_6  and  N_7
REMARK    4  A    between atoms: N_7  and  C_8
REMARK    5  A    between atoms: C_11  and  C_12
REMARK    6  A    between atoms: C_12  and  N_13
REMARK    7  A    between atoms: C_14  and  C_16
REMARK                            x       y       z     vdW  Elec       q    Type
REMARK                         _______ _______ _______ _____ _____    ______ ____
ROOT
ATOM      1  C   UNL     1      44.656   5.665  10.773  0.00  0.00    +0.000 A 
ATOM      2  C   UNL     1      44.140   6.152  11.982  0.00  0.00    +0.000 A 
ATOM      3  C   UNL     1      44.918   6.945  12.842  0.00  0.00    +0.000 A 
ATOM      4  C   UNL     1      46.245   7.249  12.518  0.00  0.00    +0.000 A 
ATOM      5  C   UNL     1      46.794   6.680  11.366  0.00  0.00    +0.000 A 
ATOM      6  C   UNL     1      46.013   5.892  10.517  0.00  0.00    +0.000 A 
ENDROOT
BRANCH   1   7
ATOM      7  N   UNL     1      43.849   4.860   9.944  0.00  0.00    +0.000 N 
ATOM      8  H   UNL     1      43.844   5.214   8.989  0.00  0.00    +0.000 HD
BRANCH   7   9
ATOM      9  C   UNL     1      44.156   3.421   9.940  0.00  0.00    +0.000 C 
BRANCH   9  14
ATOM     10  C   UNL     1      47.876   2.194   5.706  0.00  0.00    +0.000 C 
ATOM     11  C   UNL     1      46.906   2.457   6.812  0.00  0.00    +0.000 A 
ATOM     12  C   UNL     1      46.573   1.480   7.749  0.00  0.00    +0.000 A 
ATOM     13  C   UNL     1      45.662   1.778   8.761  0.00  0.00    +0.000 A 
ATOM     14  C   UNL     1      45.099   3.052   8.812  0.00  0.00    +0.000 A 
ATOM     15  N   UNL     1      45.405   4.016   7.906  0.00  0.00    +0.000 NA
ATOM     16  C   UNL     1      46.295   3.699   6.938  0.00  0.00    +0.000 A 
ENDBRANCH   9  14
ENDBRANCH   7   9
ENDBRANCH   1   7
BRANCH   4  17
ATOM     17  C   UNL     1      47.096   8.130  13.392  0.00  0.00    +0.000 C 
BRANCH  17  18
ATOM     18  N   UNL     1      47.510   7.448  14.590  0.00  0.00    +0.000 N 
ATOM     19  C   UNL     1      48.753   6.876  14.682  0.00  0.00    +0.000 C 
ATOM     20  O   UNL     1      49.581   6.968  13.779  0.00  0.00    +0.000 OA
ATOM     21  H   UNL     1      46.777   7.152  15.227  0.00  0.00    +0.000 HD
BRANCH  19  22
ATOM     22  C   UNL     1      49.069   6.192  15.941  0.00  0.00    +0.000 A 
ATOM     23  C   UNL     1      50.130   6.637  16.719  0.00  0.00    +0.000 A 
ATOM     24  S   UNL     1      50.331   5.761  18.168  0.00  0.00    +0.000 S 
ATOM     25  C   UNL     1      49.036   4.725  17.784  0.00  0.00    +0.000 A 
ATOM     26  N   UNL     1      48.686   3.706  18.616  0.00  0.00    +0.000 NA
ATOM     27  C   UNL     1      47.701   2.985  18.189  0.00  0.00    +0.000 A 
ATOM     28  N   UNL     1      47.037   3.192  17.010  0.00  0.00    +0.000 N 
ATOM     29  C   UNL     1      47.344   4.219  16.149  0.00  0.00    +0.000 A 
ATOM     30  O   UNL     1      46.709   4.398  15.116  0.00  0.00    +0.000 OA
ATOM     31  C   UNL     1      48.448   5.056  16.578  0.00  0.00    +0.000 A 
ATOM     32  H   UNL     1      46.269   2.597  16.737  0.00  0.00    +0.000 HD
ENDBRANCH  19  22
ENDBRANCH  17  18
ENDBRANCH   4  17
TORSDOF 6
ENDMDL
MODEL 2
REMARK VINA RESULT:    -8.518      1.868      2.216
REMARK INTER + INTRA:         -12.373
REMARK INTER:                 -11.505
REMARK INTRA:                  -0.868
REMARK UNBOUND:                -0.868
REMARK  Name = 
REMARK  7 active torsions:
REMARK  status: ('A' for Active; 'I' for Inactive)
REMARK    1  A    between atoms: C_1  and  C_2
REMARK    2  A    between atoms: C_5  and  C_6
REMARK    3  A    between atoms: C_6  and  N_7
REMARK    4  A    between atoms: N_7  and  C_8
REMARK    5  A    between atoms: C_11  and  C_12
REMARK    6  A    between atoms: C_12  and  N_13
REMARK    7  A    between atoms: C_14  and  C_16
REMARK                            x       y       z     vdW  Elec       q    Type
REMARK                         _______ _______ _______ _____ _____    ______ ____
ROOT
ATOM      1  C   UNL     1      45.395   3.884  12.116  0.00  0.00    +0.000 A 
ATOM      2  C   UNL     1      45.194   5.210  11.709  0.00  0.00    +0.000 A 
ATOM      3  C   UNL     1      45.991   6.254  12.206  0.00  0.00    +0.000 A 
ATOM      4  C   UNL     1      46.997   5.995  13.143  0.00  0.00    +0.000 A 
ATOM      5  C   UNL     1      47.132   4.692  13.627  0.00  0.00    +0.000 A 
ATOM      6  C   UNL     1      46.334   3.658  13.129  0.00  0.00    +0.000 A 
ENDROOT
BRANCH   1   7
ATOM      7  N   UNL     1      44.566   2.864  11.607  0.00  0.00    +0.000 N 
ATOM      8  H   UNL     1      43.823   2.637  12.267  0.00  0.00    +0.000 HD
BRANCH   7   9
ATOM      9  C   UNL     1      43.991   3.100  10.274  0.00  0.00    +0.000 C 
BRANCH   9  14
ATOM     10  C   UNL     1      47.751   2.119   6.011  0.00  0.00    +0.000 C 
ATOM     11  C   UNL     1      46.786   2.428   7.110  0.00  0.00    +0.000 A 
ATOM     12  C   UNL     1      46.273   3.709   7.302  0.00  0.00    +0.000 A 
ATOM     13  C   UNL     1      45.377   3.944   8.344  0.00  0.00    +0.000 A 
ATOM     14  C   UNL     1      45.014   2.886   9.176  0.00  0.00    +0.000 A 
ATOM     15  N   UNL     1      45.506   1.632   9.010  0.00  0.00    +0.000 NA
ATOM     16  C   UNL     1      46.371   1.434   7.989  0.00  0.00    +0.000 A 
ENDBRANCH   9  14
ENDBRANCH   7   9
ENDBRANCH   1   7
BRANCH   4  17
ATOM     17  C   UNL     1      47.899   7.081  13.666  0.00  0.00    +0.000 C 
BRANCH  17  18
ATOM     18  N   UNL     1      47.897   7.126  15.104  0.00  0.00    +0.000 N 
ATOM     19  C   UNL     1      49.050   6.922  15.817  0.00  0.00    +0.000 C 
ATOM     20  O   UNL     1      50.135   6.752  15.267  0.00  0.00    +0.000 OA
ATOM     21  H   UNL     1      46.999   7.018  15.566  0.00  0.00    +0.000 HD
BRANCH  19  22
ATOM     22  C   UNL     1      48.935   6.975  17.279  0.00  0.00    +0.000 A 
ATOM     23  C   UNL     1      48.810   8.202  17.916  0.00  0.00    +0.000 A 
ATOM     24  S   UNL     1      48.643   8.081  19.609  0.00  0.00    +0.000 S 
ATOM     25  C   UNL     1      48.781   6.385  19.555  0.00  0.00    +0.000 A 
ATOM     26  N   UNL     1      48.746   5.645  20.696  0.00  0.00    +0.000 NA
ATOM     27  C   UNL     1      48.886   4.373  20.510  0.00  0.00    +0.000 A 
ATOM     28  N   UNL     1      49.056   3.778  19.288  0.00  0.00    +0.000 N 
ATOM     29  C   UNL     1      49.079   4.484  18.110  0.00  0.00    +0.000 A 
ATOM     30  O   UNL     1      49.200   3.920  17.028  0.00  0.00    +0.000 OA
ATOM     31  C   UNL     1      48.933   5.919  18.263  0.00  0.00    +0.000 A 
ATOM     32  H   UNL     1      49.152   2.777  19.210  0.00  0.00    +0.000 HD
ENDBRANCH  19  22
ENDBRANCH  17  18
ENDBRANCH   4  17
TORSDOF 6
ENDMDL
MODEL 3
REMARK VINA RESULT:    -8.295      2.438      2.872
REMARK INTER + INTRA:         -12.072
REMARK INTER:                 -11.034
REMARK INTRA:                  -1.038
REMARK UNBOUND:                -0.868
REMARK  Name = 
REMARK  7 active torsions:
REMARK  status: ('A' for Active; 'I' for Inactive)
REMARK    1  A    between atoms: C_1  and  C_2
REMARK    2  A    between atoms: C_5  and  C_6
REMARK    3  A    between atoms: C_6  and  N_7
REMARK    4  A    between atoms: N_7  and  C_8
REMARK    5  A    between atoms: C_11  and  C_12
REMARK    6  A    between atoms: C_12  and  N_13
REMARK    7  A    between atoms: C_14  and  C_16
REMARK                            x       y       z     vdW  Elec       q    Type
REMARK                         _______ _______ _______ _____ _____    ______ ____
ROOT
ATOM      1  C   UNL     1      45.097   4.458  11.905  0.00  0.00    +0.000 A 
ATOM      2  C   UNL     1      45.322   5.819  11.660  0.00  0.00    +0.000 A 
ATOM      3  C   UNL     1      46.301   6.537  12.368  0.00  0.00    +0.000 A 
ATOM      4  C   UNL     1      47.062   5.908  13.360  0.00  0.00    +0.000 A 
ATOM      5  C   UNL     1      46.769   4.580  13.678  0.00  0.00    +0.000 A 
ATOM      6  C   UNL     1      45.794   3.874  12.969  0.00  0.00    +0.000 A 
ENDROOT
BRANCH   1   7
ATOM      7  N   UNL     1      44.097   3.775  11.185  0.00  0.00    +0.000 N 
ATOM      8  H   UNL     1      43.206   3.810  11.678  0.00  0.00    +0.000 HD
BRANCH   7   9
ATOM      9  C   UNL     1      43.906   4.190   9.787  0.00  0.00    +0.000 C 
BRANCH   9  14
ATOM     10  C   UNL     1      47.994   1.958   6.384  0.00  0.00    +0.000 C 
ATOM     11  C   UNL     1      46.915   2.485   7.273  0.00  0.00    +0.000 A 
ATOM     12  C   UNL     1      46.181   1.652   8.116  0.00  0.00    +0.000 A 
ATOM     13  C   UNL     1      45.184   2.194   8.924  0.00  0.00    +0.000 A 
ATOM     14  C   UNL     1      44.940   3.565   8.870  0.00  0.00    +0.000 A 
ATOM     15  N   UNL     1      45.638   4.394   8.053  0.00  0.00    +0.000 NA
ATOM     16  C   UNL     1      46.602   3.840   7.283  0.00  0.00    +0.000 A 
ENDBRANCH   9  14
ENDBRANCH   7   9
ENDBRANCH   1   7
BRANCH   4  17
ATOM     17  C   UNL     1      48.148   6.633  14.109  0.00  0.00    +0.000 C 
BRANCH  17  18
ATOM     18  N   UNL     1      47.984   6.507  15.533  0.00  0.00    +0.000 N 
ATOM     19  C   UNL     1      49.063   6.294  16.352  0.00  0.00    +0.000 C 
ATOM     20  O   UNL     1      50.212   6.260  15.919  0.00  0.00    +0.000 OA
ATOM     21  H   UNL     1      47.052   6.287  15.871  0.00  0.00    +0.000 HD
BRANCH  19  22
ATOM     22  C   UNL     1      48.784   6.167  17.787  0.00  0.00    +0.000 A 
ATOM     23  C   UNL     1      49.017   4.959  18.429  0.00  0.00    +0.000 A 
ATOM     24  S   UNL     1      48.681   4.996  20.101  0.00  0.00    +0.000 S 
ATOM     25  C   UNL     1      48.166   6.617  20.015  0.00  0.00    +0.000 A 
ATOM     26  N   UNL     1      47.712   7.265  21.122  0.00  0.00    +0.000 NA
ATOM     27  C   UNL     1      47.331   8.482  20.908  0.00  0.00    +0.000 A 
ATOM     28  N   UNL     1      47.365   9.107  19.690  0.00  0.00    +0.000 N 
ATOM     29  C   UNL     1      47.833   8.497  18.551  0.00  0.00    +0.000 A 
ATOM     30  O   UNL     1      47.882   9.093  17.480  0.00  0.00    +0.000 OA
ATOM     31  C   UNL     1      48.267   7.125  18.734  0.00  0.00    +0.000 A 
ATOM     32  H   UNL     1      47.061  10.063  19.590  0.00  0.00    +0.000 HD
ENDBRANCH  19  22
ENDBRANCH  17  18
ENDBRANCH   4  17
TORSDOF 6
ENDMDL
MODEL 4
REMARK VINA RESULT:    -8.035      2.173      2.466
REMARK INTER + INTRA:         -11.721
REMARK INTER:                 -10.791
REMARK INTRA:                  -0.930
REMARK UNBOUND:                -0.868
REMARK  Name = 
REMARK  7 active torsions:
REMARK  status: ('A' for Active; 'I' for Inactive)
REMARK    1  A    between atoms: C_1  and  C_2
REMARK    2  A    between atoms: C_5  and  C_6
REMARK    3  A    between atoms: C_6  and  N_7
REMARK    4  A    between atoms: N_7  and  C_8
REMARK    5  A    between atoms: C_11  and  C_12
REMARK    6  A    between atoms: C_12  and  N_13
REMARK    7  A    between atoms: C_14  and  C_16
REMARK                            x       y       z     vdW  Elec       q    Type
REMARK                         _______ _______ _______ _____ _____    ______ ____
ROOT
ATOM      1  C   UNL     1      45.579   4.568  12.319  0.00  0.00    +0.000 A 
ATOM      2  C   UNL     1      46.319   3.981  13.355  0.00  0.00    +0.000 A 
ATOM      3  C   UNL     1      47.158   4.749  14.179  0.00  0.00    +0.000 A 
ATOM      4  C   UNL     1      47.294   6.126  13.966  0.00  0.00    +0.000 A 
ATOM      5  C   UNL     1      46.639   6.695  12.871  0.00  0.00    +0.000 A 
ATOM      6  C   UNL     1      45.807   5.924  12.056  0.00  0.00    +0.000 A 
ENDROOT
BRANCH   1   7
ATOM      7  N   UNL     1      44.758   3.763  11.505  0.00  0.00    +0.000 N 
ATOM      8  H   UNL     1      43.902   3.505  11.994  0.00  0.00    +0.000 HD
BRANCH   7   9
ATOM      9  C   UNL     1      44.428   4.305  10.178  0.00  0.00    +0.000 C 
BRANCH   9  14
ATOM     10  C   UNL     1      47.773   1.989   6.089  0.00  0.00    +0.000 C 
ATOM     11  C   UNL     1      46.883   2.539   7.157  0.00  0.00    +0.000 A 
ATOM     12  C   UNL     1      46.225   1.713   8.066  0.00  0.00    +0.000 A 
ATOM     13  C   UNL     1      45.406   2.278   9.042  0.00  0.00    +0.000 A 
ATOM     14  C   UNL     1      45.261   3.663   9.086  0.00  0.00    +0.000 A 
ATOM     15  N   UNL     1      45.888   4.486   8.207  0.00  0.00    +0.000 NA
ATOM     16  C   UNL     1      46.679   3.909   7.273  0.00  0.00    +0.000 A 
ENDBRANCH   9  14
ENDBRANCH   7   9
ENDBRANCH   1   7
BRANCH   4  17
ATOM     17  C   UNL     1      48.151   6.988  14.854  0.00  0.00    +0.000 C 
BRANCH  17  18
ATOM     18  N   UNL     1      49.248   6.246  15.415  0.00  0.00    +0.000 N 
ATOM     19  C   UNL     1      49.284   5.941  16.751  0.00  0.00    +0.000 C 
ATOM     20  O   UNL     1      48.364   6.234  17.511  0.00  0.00    +0.000 OA
ATOM     21  H   UNL     1      50.107   6.216  14.874  0.00  0.00    +0.000 HD
BRANCH  19  22
ATOM     22  C   UNL     1      50.455   5.192  17.223  0.00  0.00    +0.000 A 
ATOM     23  C   UNL     1      51.571   5.877  17.684  0.00  0.00    +0.000 A 
ATOM     24  S   UNL     1      52.822   4.857  18.234  0.00  0.00    +0.000 S 
ATOM     25  C   UNL     1      51.934   3.462  17.829  0.00  0.00    +0.000 A 
ATOM     26  N   UNL     1      52.456   2.220  18.025  0.00  0.00    +0.000 NA
ATOM     27  C   UNL     1      51.683   1.253  17.652  0.00  0.00    +0.000 A 
ATOM     28  N   UNL     1      50.439   1.416  17.102  0.00  0.00    +0.000 N 
ATOM     29  C   UNL     1      49.866   2.649  16.904  0.00  0.00    +0.000 A 
ATOM     30  O   UNL     1      48.737   2.762  16.441  0.00  0.00    +0.000 OA
ATOM     31  C   UNL     1      50.695   3.771  17.301  0.00  0.00    +0.000 A 
ATOM     32  H   UNL     1      49.882   0.618  16.839  0.00  0.00    +0.000 HD
ENDBRANCH  19  22
ENDBRANCH  17  18
ENDBRANCH   4  17
TORSDOF 6
ENDMDL
MODEL 5
REMARK VINA RESULT:    -7.794      3.596      5.049
REMARK INTER + INTRA:         -11.396
REMARK INTER:                 -10.255
REMARK INTRA:                  -1.141
REMARK UNBOUND:                -0.868
REMARK  Name = 
REMARK  7 active torsions:
REMARK  status: ('A' for Active; 'I' for Inactive)
REMARK    1  A    between atoms: C_1  and  C_2
REMARK    2  A    between atoms: C_5  and  C_6
REMARK    3  A    between atoms: C_6  and  N_7
REMARK    4  A    between atoms: N_7  and  C_8
REMARK    5  A    between atoms: C_11  and  C_12
REMARK    6  A    between atoms: C_12  and  N_13
REMARK    7  A    between atoms: C_14  and  C_16
REMARK                            x       y       z     vdW  Elec       q    Type
REMARK                         _______ _______ _______ _____ _____    ______ ____
ROOT
ATOM      1  C   UNL     1      45.259   4.462  11.853  0.00  0.00    +0.000 A 
ATOM      2  C   UNL     1      44.562   5.573  11.359  0.00  0.00    +0.000 A 
ATOM      3  C   UNL     1      44.861   6.875  11.795  0.00  0.00    +0.000 A 
ATOM      4  C   UNL     1      45.854   7.090  12.757  0.00  0.00    +0.000 A 
ATOM      5  C   UNL     1      46.478   5.977  13.325  0.00  0.00    +0.000 A 
ATOM      6  C   UNL     1      46.174   4.686  12.888  0.00  0.00    +0.000 A 
ENDROOT
BRANCH   1   7
ATOM      7  N   UNL     1      44.920   3.170  11.404  0.00  0.00    +0.000 N 
ATOM      8  H   UNL     1      44.359   2.679  12.098  0.00  0.00    +0.000 HD
BRANCH   7   9
ATOM      9  C   UNL     1      44.263   3.091  10.090  0.00  0.00    +0.000 C 
BRANCH   9  14
ATOM     10  C   UNL     1      47.945   2.105   5.761  0.00  0.00    +0.000 C 
ATOM     11  C   UNL     1      47.000   2.415   6.876  0.00  0.00    +0.000 A 
ATOM     12  C   UNL     1      46.482   3.695   7.069  0.00  0.00    +0.000 A 
ATOM     13  C   UNL     1      45.605   3.930   8.127  0.00  0.00    +0.000 A 
ATOM     14  C   UNL     1      45.266   2.876   8.973  0.00  0.00    +0.000 A 
ATOM     15  N   UNL     1      45.763   1.624   8.806  0.00  0.00    +0.000 NA
ATOM     16  C   UNL     1      46.609   1.425   7.770  0.00  0.00    +0.000 A 
ENDBRANCH   9  14
ENDBRANCH   7   9
ENDBRANCH   1   7
BRANCH   4  17
ATOM     17  C   UNL     1      46.232   8.473  13.216  0.00  0.00    +0.000 C 
BRANCH  17  18
ATOM     18  N   UNL     1      47.577   8.810  12.833  0.00  0.00    +0.000 N 
ATOM     19  C   UNL     1      47.827   9.849  11.973  0.00  0.00    +0.000 C 
ATOM     20  O   UNL     1      46.929  10.567  11.540  0.00  0.00    +0.000 OA
ATOM     21  H   UNL     1      48.287   8.098  12.973  0.00  0.00    +0.000 HD
BRANCH  19  22
ATOM     22  C   UNL     1      49.233  10.099  11.637  0.00  0.00    +0.000 A 
ATOM     23  C   UNL     1      49.690  11.404  11.514  0.00  0.00    +0.000 A 
ATOM     24  S   UNL     1      51.356  11.515  11.164  0.00  0.00    +0.000 S 
ATOM     25  C   UNL     1      51.515   9.821  11.119  0.00  0.00    +0.000 A 
ATOM     26  N   UNL     1      52.712   9.239  10.837  0.00  0.00    +0.000 NA
ATOM     27  C   UNL     1      52.683   7.946  10.812  0.00  0.00    +0.000 A 
ATOM     28  N   UNL     1      51.567   7.187  11.045  0.00  0.00    +0.000 N 
ATOM     29  C   UNL     1      50.343   7.731  11.351  0.00  0.00    +0.000 A 
ATOM     30  O   UNL     1      49.370   7.025  11.586  0.00  0.00    +0.000 OA
ATOM     31  C   UNL     1      50.319   9.182  11.385  0.00  0.00    +0.000 A 
ATOM     32  H   UNL     1      51.613   6.180  11.019  0.00  0.00    +0.000 HD
ENDBRANCH  19  22
ENDBRANCH  17  18
ENDBRANCH   4  17
TORSDOF 6
ENDMDL
MODEL 6
REMARK VINA RESULT:    -7.782      1.994      2.482
REMARK INTER + INTRA:         -11.380
REMARK INTER:                 -10.619
REMARK INTRA:                  -0.761
REMARK UNBOUND:                -0.868
REMARK  Name = 
REMARK  7 active torsions:
REMARK  status: ('A' for Active; 'I' for Inactive)
REMARK    1  A    between atoms: C_1  and  C_2
REMARK    2  A    between atoms: C_5  and  C_6
REMARK    3  A    between atoms: C_6  and  N_7
REMARK    4  A    between atoms: N_7  and  C_8
REMARK    5  A    between atoms: C_11  and  C_12
REMARK    6  A    between atoms: C_12  and  N_13
REMARK    7  A    between atoms: C_14  and  C_16
REMARK                            x       y       z     vdW  Elec       q    Type
REMARK                         _______ _______ _______ _____ _____    ______ ____
ROOT
ATOM      1  C   UNL     1      45.412   3.963  11.920  0.00  0.00    +0.000 A 
ATOM      2  C   UNL     1      45.465   5.184  11.233  0.00  0.00    +0.000 A 
ATOM      3  C   UNL     1      46.160   6.286  11.756  0.00  0.00    +0.000 A 
ATOM      4  C   UNL     1      46.801   6.196  12.997  0.00  0.00    +0.000 A 
ATOM      5  C   UNL     1      46.663   5.016  13.731  0.00  0.00    +0.000 A 
ATOM      6  C   UNL     1      45.969   3.924  13.203  0.00  0.00    +0.000 A 
ENDROOT
BRANCH   1   7
ATOM      7  N   UNL     1      44.692   2.884  11.370  0.00  0.00    +0.000 N 
ATOM      8  H   UNL     1      43.963   2.570  12.009  0.00  0.00    +0.000 HD
BRANCH   7   9
ATOM      9  C   UNL     1      44.120   3.099  10.032  0.00  0.00    +0.000 C 
BRANCH   9  14
ATOM     10  C   UNL     1      47.900   2.056   5.802  0.00  0.00    +0.000 C 
ATOM     11  C   UNL     1      46.927   2.381   6.890  0.00  0.00    +0.000 A 
ATOM     12  C   UNL     1      46.350   3.644   7.010  0.00  0.00    +0.000 A 
ATOM     13  C   UNL     1      45.450   3.895   8.043  0.00  0.00    +0.000 A 
ATOM     14  C   UNL     1      45.146   2.872   8.940  0.00  0.00    +0.000 A 
ATOM     15  N   UNL     1      45.700   1.636   8.845  0.00  0.00    +0.000 NA
ATOM     16  C   UNL     1      46.568   1.421   7.829  0.00  0.00    +0.000 A 
ENDBRANCH   9  14
ENDBRANCH   7   9
ENDBRANCH   1   7
BRANCH   4  17
ATOM     17  C   UNL     1      47.591   7.342  13.570  0.00  0.00    +0.000 C 
BRANCH  17  18
ATOM     18  N   UNL     1      48.770   6.883  14.256  0.00  0.00    +0.000 N 
ATOM     19  C   UNL     1      49.549   7.751  14.979  0.00  0.00    +0.000 C 
ATOM     20  O   UNL     1      49.247   8.933  15.120  0.00  0.00    +0.000 OA
ATOM     21  H   UNL     1      49.161   5.996  13.954  0.00  0.00    +0.000 HD
BRANCH  19  22
ATOM     22  C   UNL     1      50.736   7.182  15.627  0.00  0.00    +0.000 A 
ATOM     23  C   UNL     1      51.987   7.726  15.373  0.00  0.00    +0.000 A 
ATOM     24  S   UNL     1      53.250   6.976  16.240  0.00  0.00    +0.000 S 
ATOM     25  C   UNL     1      52.173   5.865  16.951  0.00  0.00    +0.000 A 
ATOM     26  N   UNL     1      52.622   4.903  17.802  0.00  0.00    +0.000 NA
ATOM     27  C   UNL     1      51.700   4.114  18.248  0.00  0.00    +0.000 A 
ATOM     28  N   UNL     1      50.373   4.201  17.921  0.00  0.00    +0.000 N 
ATOM     29  C   UNL     1      49.873   5.167  17.082  0.00  0.00    +0.000 A 
ATOM     30  O   UNL     1      48.674   5.241  16.833  0.00  0.00    +0.000 OA
ATOM     31  C   UNL     1      50.868   6.077  16.546  0.00  0.00    +0.000 A 
ATOM     32  H   UNL     1      49.701   3.558  18.311  0.00  0.00    +0.000 HD
ENDBRANCH  19  22
ENDBRANCH  17  18
ENDBRANCH   4  17
TORSDOF 6
ENDMDL
MODEL 7
REMARK VINA RESULT:    -7.308      1.543      2.291
REMARK INTER + INTRA:         -10.739
REMARK INTER:                  -9.787
REMARK INTRA:                  -0.952
REMARK UNBOUND:                -0.868
REMARK  Name = 
REMARK  7 active torsions:
REMARK  status: ('A' for Active; 'I' for Inactive)
REMARK    1  A    between atoms: C_1  and  C_2
REMARK    2  A    between atoms: C_5  and  C_6
REMARK    3  A    between atoms: C_6  and  N_7
REMARK    4  A    between atoms: N_7  and  C_8
REMARK    5  A    between atoms: C_11  and  C_12
REMARK    6  A    between atoms: C_12  and  N_13
REMARK    7  A    between atoms: C_14  and  C_16
REMARK                            x       y       z     vdW  Elec       q    Type
REMARK                         _______ _______ _______ _____ _____    ______ ____
ROOT
ATOM      1  C   UNL     1      44.900   7.390  11.609  0.00  0.00    +0.000 A 
ATOM      2  C   UNL     1      45.987   6.607  11.196  0.00  0.00    +0.000 A 
ATOM      3  C   UNL     1      47.264   6.777  11.755  0.00  0.00    +0.000 A 
ATOM      4  C   UNL     1      47.486   7.757  12.730  0.00  0.00    +0.000 A 
ATOM      5  C   UNL     1      46.431   8.606  13.068  0.00  0.00    +0.000 A 
ATOM      6  C   UNL     1      45.164   8.431  12.506  0.00  0.00    +0.000 A 
ENDROOT
BRANCH   1   7
ATOM      7  N   UNL     1      43.637   7.200  11.014  0.00  0.00    +0.000 N 
ATOM      8  H   UNL     1      43.702   7.253   9.998  0.00  0.00    +0.000 HD
BRANCH   7   9
ATOM      9  C   UNL     1      42.914   5.979  11.401  0.00  0.00    +0.000 C 
BRANCH   9  14
ATOM     10  C   UNL     1      45.275   1.425   8.763  0.00  0.00    +0.000 C 
ATOM     11  C   UNL     1      44.648   2.572   9.489  0.00  0.00    +0.000 A 
ATOM     12  C   UNL     1      44.336   2.504  10.845  0.00  0.00    +0.000 A 
ATOM     13  C   UNL     1      43.751   3.601  11.474  0.00  0.00    +0.000 A 
ATOM     14  C   UNL     1      43.488   4.749  10.727  0.00  0.00    +0.000 A 
ATOM     15  N   UNL     1      43.779   4.834   9.404  0.00  0.00    +0.000 NA
ATOM     16  C   UNL     1      44.349   3.754   8.822  0.00  0.00    +0.000 A 
ENDBRANCH   9  14
ENDBRANCH   7   9
ENDBRANCH   1   7
BRANCH   4  17
ATOM     17  C   UNL     1      48.830   7.940  13.382  0.00  0.00    +0.000 C 
BRANCH  17  18
ATOM     18  N   UNL     1      49.022   7.016  14.469  0.00  0.00    +0.000 N 
ATOM     19  C   UNL     1      48.910   7.427  15.773  0.00  0.00    +0.000 C 
ATOM     20  O   UNL     1      48.588   8.575  16.068  0.00  0.00    +0.000 OA
ATOM     21  H   UNL     1      49.520   6.156  14.259  0.00  0.00    +0.000 HD
BRANCH  19  22
ATOM     22  C   UNL     1      49.139   6.409  16.804  0.00  0.00    +0.000 A 
ATOM     23  C   UNL     1      50.080   6.635  17.799  0.00  0.00    +0.000 A 
ATOM     24  S   UNL     1      50.188   5.371  18.939  0.00  0.00    +0.000 S 
ATOM     25  C   UNL     1      49.013   4.455  18.115  0.00  0.00    +0.000 A 
ATOM     26  N   UNL     1      48.649   3.223  18.562  0.00  0.00    +0.000 NA
ATOM     27  C   UNL     1      47.765   2.630  17.827  0.00  0.00    +0.000 A 
ATOM     28  N   UNL     1      47.215   3.159  16.690  0.00  0.00    +0.000 N 
ATOM     29  C   UNL     1      47.539   4.406  16.213  0.00  0.00    +0.000 A 
ATOM     30  O   UNL     1      47.005   4.866  15.210  0.00  0.00    +0.000 OA
ATOM     31  C   UNL     1      48.533   5.113  16.998  0.00  0.00    +0.000 A 
ATOM     32  H   UNL     1      46.522   2.648  16.164  0.00  0.00    +0.000 HD
ENDBRANCH  19  22
ENDBRANCH  17  18
ENDBRANCH   4  17
TORSDOF 6
ENDMDL
MODEL 8
REMARK VINA RESULT:    -7.195      2.193      2.963
REMARK INTER + INTRA:         -10.587
REMARK INTER:                  -9.741
REMARK INTRA:                  -0.846
REMARK UNBOUND:                -0.868
REMARK  Name = 
REMARK  7 active torsions:
REMARK  status: ('A' for Active; 'I' for Inactive)
REMARK    1  A    between atoms: C_1  and  C_2
REMARK    2  A    between atoms: C_5  and  C_6
REMARK    3  A    between atoms: C_6  and  N_7
REMARK    4  A    between atoms: N_7  and  C_8
REMARK    5  A    between atoms: C_11  and  C_12
REMARK    6  A    between atoms: C_12  and  N_13
REMARK    7  A    between atoms: C_14  and  C_16
REMARK                            x       y       z     vdW  Elec       q    Type
REMARK                         _______ _______ _______ _____ _____    ______ ____
ROOT
ATOM      1  C   UNL     1      44.922   5.064  12.082  0.00  0.00    +0.000 A 
ATOM      2  C   UNL     1      45.038   6.460  12.023  0.00  0.00    +0.000 A 
ATOM      3  C   UNL     1      46.072   7.135  12.692  0.00  0.00    +0.000 A 
ATOM      4  C   UNL     1      47.004   6.425  13.458  0.00  0.00    +0.000 A 
ATOM      5  C   UNL     1      46.830   5.047  13.603  0.00  0.00    +0.000 A 
ATOM      6  C   UNL     1      45.798   4.383  12.935  0.00  0.00    +0.000 A 
ENDROOT
BRANCH   1   7
ATOM      7  N   UNL     1      43.863   4.423  11.410  0.00  0.00    +0.000 N 
ATOM      8  H   UNL     1      42.975   4.601  11.877  0.00  0.00    +0.000 HD
BRANCH   7   9
ATOM      9  C   UNL     1      43.735   4.714   9.974  0.00  0.00    +0.000 C 
BRANCH   9  14
ATOM     10  C   UNL     1      47.530   1.657   6.889  0.00  0.00    +0.000 C 
ATOM     11  C   UNL     1      46.520   2.402   7.701  0.00  0.00    +0.000 A 
ATOM     12  C   UNL     1      45.689   1.757   8.615  0.00  0.00    +0.000 A 
ATOM     13  C   UNL     1      44.763   2.499   9.346  0.00  0.00    +0.000 A 
ATOM     14  C   UNL     1      44.687   3.876   9.144  0.00  0.00    +0.000 A 
ATOM     15  N   UNL     1      45.483   4.522   8.254  0.00  0.00    +0.000 NA
ATOM     16  C   UNL     1      46.374   3.777   7.562  0.00  0.00    +0.000 A 
ENDBRANCH   9  14
ENDBRANCH   7   9
ENDBRANCH   1   7
BRANCH   4  17
ATOM     17  C   UNL     1      48.149   7.110  14.154  0.00  0.00    +0.000 C 
BRANCH  17  18
ATOM     18  N   UNL     1      48.498   6.445  15.382  0.00  0.00    +0.000 N 
ATOM     19  C   UNL     1      48.762   7.161  16.521  0.00  0.00    +0.000 C 
ATOM     20  O   UNL     1      48.659   8.384  16.561  0.00  0.00    +0.000 OA
ATOM     21  H   UNL     1      48.824   5.486  15.308  0.00  0.00    +0.000 HD
BRANCH  19  22
ATOM     22  C   UNL     1      49.121   6.386  17.714  0.00  0.00    +0.000 A 
ATOM     23  C   UNL     1      48.202   5.504  18.265  0.00  0.00    +0.000 A 
ATOM     24  S   UNL     1      48.795   4.653  19.619  0.00  0.00    +0.000 S 
ATOM     25  C   UNL     1      50.287   5.469  19.545  0.00  0.00    +0.000 A 
ATOM     26  N   UNL     1      51.265   5.222  20.459  0.00  0.00    +0.000 NA
ATOM     27  C   UNL     1      52.336   5.928  20.297  0.00  0.00    +0.000 A 
ATOM     28  N   UNL     1      52.515   6.857  19.306  0.00  0.00    +0.000 N 
ATOM     29  C   UNL     1      51.564   7.125  18.352  0.00  0.00    +0.000 A 
ATOM     30  O   UNL     1      51.766   7.938  17.457  0.00  0.00    +0.000 OA
ATOM     31  C   UNL     1      50.337   6.362  18.492  0.00  0.00    +0.000 A 
ATOM     32  H   UNL     1      53.380   7.370  19.230  0.00  0.00    +0.000 HD
ENDBRANCH  19  22
ENDBRANCH  17  18
ENDBRANCH   4  17
TORSDOF 6
ENDMDL
MODEL 9
REMARK VINA RESULT:    -7.082      3.581      4.925
REMARK INTER + INTRA:         -10.433
REMARK INTER:                  -9.545
REMARK INTRA:                  -0.888
REMARK UNBOUND:                -0.868
REMARK  Name = 
REMARK  7 active torsions:
REMARK  status: ('A' for Active; 'I' for Inactive)
REMARK    1  A    between atoms: C_1  and  C_2
REMARK    2  A    between atoms: C_5  and  C_6
REMARK    3  A    between atoms: C_6  and  N_7
REMARK    4  A    between atoms: N_7  and  C_8
REMARK    5  A    between atoms: C_11  and  C_12
REMARK    6  A    between atoms: C_12  and  N_13
REMARK    7  A    between atoms: C_14  and  C_16
REMARK                            x       y       z     vdW  Elec       q    Type
REMARK                         _______ _______ _______ _____ _____    ______ ____
ROOT
ATOM      1  C   UNL     1      45.058   4.266  12.080  0.00  0.00    +0.000 A 
ATOM      2  C   UNL     1      45.927   3.545  12.910  0.00  0.00    +0.000 A 
ATOM      3  C   UNL     1      46.934   4.188  13.648  0.00  0.00    +0.000 A 
ATOM      4  C   UNL     1      47.109   5.574  13.552  0.00  0.00    +0.000 A 
ATOM      5  C   UNL     1      46.313   6.281  12.648  0.00  0.00    +0.000 A 
ATOM      6  C   UNL     1      45.314   5.633  11.917  0.00  0.00    +0.000 A 
ENDROOT
BRANCH   1   7
ATOM      7  N   UNL     1      44.069   3.584  11.344  0.00  0.00    +0.000 N 
ATOM      8  H   UNL     1      43.185   3.570  11.850  0.00  0.00    +0.000 HD
BRANCH   7   9
ATOM      9  C   UNL     1      43.846   4.052   9.968  0.00  0.00    +0.000 C 
BRANCH   9  14
ATOM     10  C   UNL     1      47.848   1.968   6.374  0.00  0.00    +0.000 C 
ATOM     11  C   UNL     1      46.793   2.455   7.315  0.00  0.00    +0.000 A 
ATOM     12  C   UNL     1      46.149   1.601   8.208  0.00  0.00    +0.000 A 
ATOM     13  C   UNL     1      45.172   2.108   9.063  0.00  0.00    +0.000 A 
ATOM     14  C   UNL     1      44.858   3.464   9.004  0.00  0.00    +0.000 A 
ATOM     15  N   UNL     1      45.469   4.313   8.138  0.00  0.00    +0.000 NA
ATOM     16  C   UNL     1      46.415   3.793   7.323  0.00  0.00    +0.000 A 
ENDBRANCH   9  14
ENDBRANCH   7   9
ENDBRANCH   1   7
BRANCH   4  17
ATOM     17  C   UNL     1      48.149   6.303  14.359  0.00  0.00    +0.000 C 
BRANCH  17  18
ATOM     18  N   UNL     1      49.198   6.827  13.524  0.00  0.00    +0.000 N 
ATOM     19  C   UNL     1      49.797   8.026  13.812  0.00  0.00    +0.000 C 
ATOM     20  O   UNL     1      49.510   8.673  14.816  0.00  0.00    +0.000 OA
ATOM     21  H   UNL     1      49.271   6.446  12.585  0.00  0.00    +0.000 HD
BRANCH  19  22
ATOM     22  C   UNL     1      50.845   8.474  12.888  0.00  0.00    +0.000 A 
ATOM     23  C   UNL     1      50.502   8.912  11.617  0.00  0.00    +0.000 A 
ATOM     24  S   UNL     1      51.834   9.438  10.690  0.00  0.00    +0.000 S 
ATOM     25  C   UNL     1      52.923   9.053  11.941  0.00  0.00    +0.000 A 
ATOM     26  N   UNL     1      54.262   9.240  11.783  0.00  0.00    +0.000 NA
ATOM     27  C   UNL     1      54.973   8.884  12.803  0.00  0.00    +0.000 A 
ATOM     28  N   UNL     1      54.466   8.360  13.963  0.00  0.00    +0.000 N 
ATOM     29  C   UNL     1      53.121   8.172  14.172  0.00  0.00    +0.000 A 
ATOM     30  O   UNL     1      52.694   7.732  15.234  0.00  0.00    +0.000 OA
ATOM     31  C   UNL     1      52.277   8.550  13.054  0.00  0.00    +0.000 A 
ATOM     32  H   UNL     1      55.075   8.110  14.726  0.00  0.00    +0.000 HD
ENDBRANCH  19  22
ENDBRANCH  17  18
ENDBRANCH   4  17
TORSDOF 6
ENDMDL
