MODEL 1
REMARK VINA RESULT:    -8.320      0.000      0.000
REMARK INTER + INTRA:         -13.838
REMARK INTER:                 -12.698
REMARK INTRA:                  -1.140
REMARK UNBOUND:                -1.140
REMARK  Name = 
REMARK  10 active torsions:
REMARK  status: ('A' for Active; 'I' for Inactive)
REMARK    1  A    between atoms: C_1  and  C_2
REMARK    2  A    between atoms: C_2  and  C_3
REMARK    3  A    between atoms: C_3  and  N_4
REMARK    4  A    between atoms: C_3  and  C_21
REMARK    5  A    between atoms: N_4  and  C_5
REMARK    6  A    between atoms: C_5  and  C_6
REMARK    7  A    between atoms: C_9  and  C_10
REMARK    8  A    between atoms: C_10  and  N_11
REMARK    9  A    between atoms: N_11  and  C_12
REMARK   10  A    between atoms: C_12  and  C_13
REMARK                            x       y       z     vdW  Elec       q    Type
REMARK                         _______ _______ _______ _____ _____    ______ ____
ROOT
ATOM      1  C   UNL     1      48.260   5.989  15.212  0.00  0.00    +0.000 C 
ENDROOT
BRANCH   1   2
ATOM      2  C   UNL     1      47.428   5.805  13.965  0.00  0.00    +0.000 A 
ATOM      3  C   UNL     1      47.544   6.693  12.889  0.00  0.00    +0.000 A 
ATOM      4  C   UNL     1      46.771   6.512  11.741  0.00  0.00    +0.000 A 
ATOM      5  C   UNL     1      45.866   5.443  11.645  0.00  0.00    +0.000 A 
ATOM      6  C   UNL     1      45.731   4.573  12.734  0.00  0.00    +0.000 A 
ATOM      7  C   UNL     1      46.503   4.755  13.883  0.00  0.00    +0.000 A 
BRANCH   5   8
ATOM      8  C   UNL     1      45.051   5.242  10.391  0.00  0.00    +0.000 C 
BRANCH   8   9
ATOM      9  N   UNL     1      44.897   3.819  10.095  0.00  0.00    +0.000 NA
ATOM     10  H   UNL     1      44.112   3.455  10.633  0.00  0.00    +0.000 HD
BRANCH   9  11
ATOM     11  C   UNL     1      44.655   3.599   8.674  0.00  0.00    +0.000 C 
BRANCH  11  12
ATOM     12  C   UNL     1      45.779   2.813   8.049  0.00  0.00    +0.000 A 
ATOM     13  C   UNL     1      45.904   1.439   8.269  0.00  0.00    +0.000 A 
ATOM     14  C   UNL     1      46.948   0.760   7.661  0.00  0.00    +0.000 A 
ATOM     15  N   UNL     1      47.863   1.347   6.860  0.00  0.00    +0.000 NA
ATOM     16  C   UNL     1      47.728   2.675   6.662  0.00  0.00    +0.000 A 
ATOM     17  C   UNL     1      46.718   3.440   7.223  0.00  0.00    +0.000 A 
ENDBRANCH  11  12
ENDBRANCH   9  11
ENDBRANCH   8   9
ENDBRANCH   5   8
ENDBRANCH   1   2
BRANCH   1  18
ATOM     18  N   UNL     1      48.466   4.706  15.865  0.00  0.00    +0.000 NA
ATOM     19  H   UNL     1      47.728   4.083  15.535  0.00  0.00    +0.000 HD
BRANCH  18  20
ATOM     20  C   UNL     1      48.424   4.704  17.336  0.00  0.00    +0.000 C 
BRANCH  20  21
ATOM     21  C   UNL     1      49.874   4.439  17.779  0.00  0.00    +0.000 A 
ATOM     22  C   UNL     1      50.639   5.351  18.498  0.00  0.00    +0.000 A 
ATOM     23  S   UNL     1      52.204   4.794  18.871  0.00  0.00    +0.000 S 
ATOM     24  C   UNL     1      51.905   3.293  18.130  0.00  0.00    +0.000 A 
ATOM     25  N   UNL     1      52.849   2.316  18.131  0.00  0.00    +0.000 NA
ATOM     26  C   UNL     1      52.482   1.221  17.555  0.00  0.00    +0.000 A 
ATOM     27  N   UNL     1      51.257   1.016  16.970  0.00  0.00    +0.000 N 
ATOM     28  C   UNL     1      50.275   1.987  16.924  0.00  0.00    +0.000 A 
ATOM     29  O   UNL     1      49.199   1.782  16.372  0.00  0.00    +0.000 OA
ATOM     30  C   UNL     1      50.640   3.230  17.578  0.00  0.00    +0.000 A 
ATOM     31  H   UNL     1      51.038   0.136  16.533  0.00  0.00    +0.000 HD
ENDBRANCH  20  21
BRANCH  20  33
ATOM     32  C   UNL     1      47.130   5.893  19.285  0.00  0.00    +0.000 C 
ATOM     33  C   UNL     1      47.946   6.019  18.005  0.00  0.00    +0.000 C 
ENDBRANCH  20  33
ENDBRANCH  18  20
ENDBRANCH   1  18
TORSDOF 9
ENDMDL
MODEL 2
REMARK VINA RESULT:    -7.706      2.461      3.469
REMARK INTER + INTRA:         -12.900
REMARK INTER:                 -11.684
REMARK INTRA:                  -1.215
REMARK UNBOUND:                -1.140
REMARK  Name = 
REMARK  10 active torsions:
REMARK  status: ('A' for Active; 'I' for Inactive)
REMARK    1  A    between atoms: C_1  and  C_2
REMARK    2  A    between atoms: C_2  and  C_3
REMARK    3  A    between atoms: C_3  and  N_4
REMARK    4  A    between atoms: C_3  and  C_21
REMARK    5  A    between atoms: N_4  and  C_5
REMARK    6  A    between atoms: C_5  and  C_6
REMARK    7  A    between atoms: C_9  and  C_10
REMARK    8  A    between atoms: C_10  and  N_11
REMARK    9  A    between atoms: N_11  and  C_12
REMARK   10  A    between atoms: C_12  and  C_13
REMARK                            x       y       z     vdW  Elec       q    Type
REMARK                         _______ _______ _______ _____ _____    ______ ____
ROOT
ATOM      1  C   UNL     1      47.904   5.753  14.181  0.00  0.00    +0.000 C 
ENDROOT
BRANCH   1   2
ATOM      2  C   UNL     1      46.826   5.362  13.199  0.00  0.00    +0.000 A 
ATOM      3  C   UNL     1      46.262   4.081  13.227  0.00  0.00    +0.000 A 
ATOM      4  C   UNL     1      45.265   3.730  12.315  0.00  0.00    +0.000 A 
ATOM      5  C   UNL     1      44.811   4.651  11.357  0.00  0.00    +0.000 A 
ATOM      6  C   UNL     1      45.397   5.922  11.311  0.00  0.00    +0.000 A 
ATOM      7  C   UNL     1      46.395   6.272  12.223  0.00  0.00    +0.000 A 
BRANCH   5   8
ATOM      8  C   UNL     1      43.717   4.271  10.390  0.00  0.00    +0.000 C 
BRANCH   8   9
ATOM      9  N   UNL     1      44.192   3.270   9.436  0.00  0.00    +0.000 NA
ATOM     10  H   UNL     1      43.392   2.751   9.078  0.00  0.00    +0.000 HD
BRANCH   9  11
ATOM     11  C   UNL     1      44.901   3.896   8.326  0.00  0.00    +0.000 C 
BRANCH  11  12
ATOM     12  C   UNL     1      45.917   2.953   7.733  0.00  0.00    +0.000 A 
ATOM     13  C   UNL     1      46.062   1.653   8.222  0.00  0.00    +0.000 A 
ATOM     14  C   UNL     1      47.003   0.822   7.634  0.00  0.00    +0.000 A 
ATOM     15  N   UNL     1      47.798   1.191   6.608  0.00  0.00    +0.000 NA
ATOM     16  C   UNL     1      47.646   2.453   6.151  0.00  0.00    +0.000 A 
ATOM     17  C   UNL     1      46.733   3.356   6.671  0.00  0.00    +0.000 A 
ENDBRANCH  11  12
ENDBRANCH   9  11
ENDBRANCH   8   9
ENDBRANCH   5   8
ENDBRANCH   1   2
BRANCH   1  18
ATOM     18  N   UNL     1      47.429   5.561  15.542  0.00  0.00    +0.000 NA
ATOM     19  H   UNL     1      47.296   6.491  15.943  0.00  0.00    +0.000 HD
BRANCH  18  20
ATOM     20  C   UNL     1      48.313   4.809  16.446  0.00  0.00    +0.000 C 
BRANCH  20  21
ATOM     21  C   UNL     1      48.361   5.638  17.742  0.00  0.00    +0.000 A 
ATOM     22  C   UNL     1      47.482   5.460  18.804  0.00  0.00    +0.000 A 
ATOM     23  S   UNL     1      47.772   6.501  20.120  0.00  0.00    +0.000 S 
ATOM     24  C   UNL     1      49.115   7.196  19.343  0.00  0.00    +0.000 A 
ATOM     25  N   UNL     1      49.857   8.154  19.959  0.00  0.00    +0.000 NA
ATOM     26  C   UNL     1      50.860   8.577  19.266  0.00  0.00    +0.000 A 
ATOM     27  N   UNL     1      51.185   8.135  18.007  0.00  0.00    +0.000 N 
ATOM     28  C   UNL     1      50.447   7.182  17.333  0.00  0.00    +0.000 A 
ATOM     29  O   UNL     1      50.749   6.826  16.198  0.00  0.00    +0.000 OA
ATOM     30  C   UNL     1      49.320   6.664  18.085  0.00  0.00    +0.000 A 
ATOM     31  H   UNL     1      51.982   8.514  17.521  0.00  0.00    +0.000 HD
ENDBRANCH  20  21
BRANCH  20  33
ATOM     32  C   UNL     1      48.866   2.249  16.627  0.00  0.00    +0.000 C 
ATOM     33  C   UNL     1      47.853   3.373  16.808  0.00  0.00    +0.000 C 
ENDBRANCH  20  33
ENDBRANCH  18  20
ENDBRANCH   1  18
TORSDOF 9
ENDMDL
MODEL 3
REMARK VINA RESULT:    -7.651      1.633      2.015
REMARK INTER + INTRA:         -12.816
REMARK INTER:                 -11.457
REMARK INTRA:                  -1.360
REMARK UNBOUND:                -1.140
REMARK  Name = 
REMARK  10 active torsions:
REMARK  status: ('A' for Active; 'I' for Inactive)
REMARK    1  A    between atoms: C_1  and  C_2
REMARK    2  A    between atoms: C_2  and  C_3
REMARK    3  A    between atoms: C_3  and  N_4
REMARK    4  A    between atoms: C_3  and  C_21
REMARK    5  A    between atoms: N_4  and  C_5
REMARK    6  A    between atoms: C_5  and  C_6
REMARK    7  A    between atoms: C_9  and  C_10
REMARK    8  A    between atoms: C_10  and  N_11
REMARK    9  A    between atoms: N_11  and  C_12
REMARK   10  A    between atoms: C_12  and  C_13
REMARK                            x       y       z     vdW  Elec       q    Type
REMARK                         _______ _______ _______ _____ _____    ______ ____
ROOT
ATOM      1  C   UNL     1      48.271   6.719  13.496  0.00  0.00    +0.000 C 
ENDROOT
BRANCH   1   2
ATOM      2  C   UNL     1      47.106   6.133  12.734  0.00  0.00    +0.000 A 
ATOM      3  C   UNL     1      46.767   6.612  11.463  0.00  0.00    +0.000 A 
ATOM      4  C   UNL     1      45.689   6.063  10.767  0.00  0.00    +0.000 A 
ATOM      5  C   UNL     1      44.928   5.024  11.326  0.00  0.00    +0.000 A 
ATOM      6  C   UNL     1      45.250   4.565  12.610  0.00  0.00    +0.000 A 
ATOM      7  C   UNL     1      46.327   5.117  13.306  0.00  0.00    +0.000 A 
BRANCH   5   8
ATOM      8  C   UNL     1      43.779   4.420  10.557  0.00  0.00    +0.000 C 
BRANCH   8   9
ATOM      9  N   UNL     1      44.208   4.005   9.223  0.00  0.00    +0.000 NA
ATOM     10  H   UNL     1      45.061   4.509   8.981  0.00  0.00    +0.000 HD
BRANCH   9  11
ATOM     11  C   UNL     1      44.463   2.570   9.174  0.00  0.00    +0.000 C 
BRANCH  11  12
ATOM     12  C   UNL     1      45.667   2.263   8.321  0.00  0.00    +0.000 A 
ATOM     13  C   UNL     1      46.124   0.952   8.167  0.00  0.00    +0.000 A 
ATOM     14  C   UNL     1      47.228   0.723   7.360  0.00  0.00    +0.000 A 
ATOM     15  N   UNL     1      47.899   1.695   6.707  0.00  0.00    +0.000 NA
ATOM     16  C   UNL     1      47.445   2.956   6.871  0.00  0.00    +0.000 A 
ATOM     17  C   UNL     1      46.350   3.285   7.653  0.00  0.00    +0.000 A 
ENDBRANCH  11  12
ENDBRANCH   9  11
ENDBRANCH   8   9
ENDBRANCH   5   8
ENDBRANCH   1   2
BRANCH   1  18
ATOM     18  N   UNL     1      48.442   6.016  14.758  0.00  0.00    +0.000 NA
ATOM     19  H   UNL     1      47.564   5.531  14.948  0.00  0.00    +0.000 HD
BRANCH  18  20
ATOM     20  C   UNL     1      48.756   6.844  15.933  0.00  0.00    +0.000 C 
BRANCH  20  21
ATOM     21  C   UNL     1      50.209   6.488  16.298  0.00  0.00    +0.000 A 
ATOM     22  C   UNL     1      51.296   7.307  16.018  0.00  0.00    +0.000 A 
ATOM     23  S   UNL     1      52.787   6.677  16.547  0.00  0.00    +0.000 S 
ATOM     24  C   UNL     1      52.032   5.308  17.216  0.00  0.00    +0.000 A 
ATOM     25  N   UNL     1      52.757   4.364  17.871  0.00  0.00    +0.000 NA
ATOM     26  C   UNL     1      52.056   3.392  18.349  0.00  0.00    +0.000 A 
ATOM     27  N   UNL     1      50.694   3.273  18.225  0.00  0.00    +0.000 N 
ATOM     28  C   UNL     1      49.919   4.195  17.548  0.00  0.00    +0.000 A 
ATOM     29  O   UNL     1      48.706   4.048  17.433  0.00  0.00    +0.000 OA
ATOM     30  C   UNL     1      50.666   5.317  17.011  0.00  0.00    +0.000 A 
ATOM     31  H   UNL     1      50.210   2.484  18.620  0.00  0.00    +0.000 HD
ENDBRANCH  20  21
BRANCH  20  33
ATOM     32  C   UNL     1      48.217   9.219  16.914  0.00  0.00    +0.000 C 
ATOM     33  C   UNL     1      48.672   8.379  15.727  0.00  0.00    +0.000 C 
ENDBRANCH  20  33
ENDBRANCH  18  20
ENDBRANCH   1  18
TORSDOF 9
ENDMDL
MODEL 4
REMARK VINA RESULT:    -7.493      2.638      3.497
REMARK INTER + INTRA:         -12.575
REMARK INTER:                 -11.672
REMARK INTRA:                  -0.903
REMARK UNBOUND:                -1.140
REMARK  Name = 
REMARK  10 active torsions:
REMARK  status: ('A' for Active; 'I' for Inactive)
REMARK    1  A    between atoms: C_1  and  C_2
REMARK    2  A    between atoms: C_2  and  C_3
REMARK    3  A    between atoms: C_3  and  N_4
REMARK    4  A    between atoms: C_3  and  C_21
REMARK    5  A    between atoms: N_4  and  C_5
REMARK    6  A    between atoms: C_5  and  C_6
REMARK    7  A    between atoms: C_9  and  C_10
REMARK    8  A    between atoms: C_10  and  N_11
REMARK    9  A    between atoms: N_11  and  C_12
REMARK   10  A    between atoms: C_12  and  C_13
REMARK                            x       y       z     vdW  Elec       q    Type
REMARK                         _______ _______ _______ _____ _____    ______ ____
ROOT
ATOM      1  C   UNL     1      48.353   6.604  13.667  0.00  0.00    +0.000 C 
ENDROOT
BRANCH   1   2
ATOM      2  C   UNL     1      47.206   6.047  12.859  0.00  0.00    +0.000 A 
ATOM      3  C   UNL     1      46.577   4.854  13.235  0.00  0.00    +0.000 A 
ATOM      4  C   UNL     1      45.517   4.348  12.481  0.00  0.00    +0.000 A 
ATOM      5  C   UNL     1      45.062   5.023  11.337  0.00  0.00    +0.000 A 
ATOM      6  C   UNL     1      45.711   6.201  10.946  0.00  0.00    +0.000 A 
ATOM      7  C   UNL     1      46.773   6.706  11.699  0.00  0.00    +0.000 A 
BRANCH   5   8
ATOM      8  C   UNL     1      43.901   4.481  10.541  0.00  0.00    +0.000 C 
BRANCH   8   9
ATOM      9  N   UNL     1      44.333   3.390   9.671  0.00  0.00    +0.000 NA
ATOM     10  H   UNL     1      43.536   2.784   9.483  0.00  0.00    +0.000 HD
BRANCH   9  11
ATOM     11  C   UNL     1      44.862   3.899   8.411  0.00  0.00    +0.000 C 
BRANCH  11  12
ATOM     12  C   UNL     1      45.874   2.948   7.825  0.00  0.00    +0.000 A 
ATOM     13  C   UNL     1      46.777   3.372   6.848  0.00  0.00    +0.000 A 
ATOM     14  C   UNL     1      47.697   2.461   6.351  0.00  0.00    +0.000 A 
ATOM     15  N   UNL     1      47.777   1.175   6.754  0.00  0.00    +0.000 NA
ATOM     16  C   UNL     1      46.893   0.783   7.697  0.00  0.00    +0.000 A 
ATOM     17  C   UNL     1      45.940   1.618   8.255  0.00  0.00    +0.000 A 
ENDBRANCH  11  12
ENDBRANCH   9  11
ENDBRANCH   8   9
ENDBRANCH   5   8
ENDBRANCH   1   2
BRANCH   1  18
ATOM     18  N   UNL     1      47.886   6.994  14.988  0.00  0.00    +0.000 NA
ATOM     19  H   UNL     1      47.452   7.913  14.890  0.00  0.00    +0.000 HD
BRANCH  18  20
ATOM     20  C   UNL     1      48.908   7.096  16.042  0.00  0.00    +0.000 C 
BRANCH  20  21
ATOM     21  C   UNL     1      48.638   5.905  16.980  0.00  0.00    +0.000 A 
ATOM     22  C   UNL     1      48.165   4.673  16.544  0.00  0.00    +0.000 A 
ATOM     23  S   UNL     1      47.970   3.530  17.791  0.00  0.00    +0.000 S 
ATOM     24  C   UNL     1      48.557   4.621  18.955  0.00  0.00    +0.000 A 
ATOM     25  N   UNL     1      48.687   4.247  20.256  0.00  0.00    +0.000 NA
ATOM     26  C   UNL     1      49.166   5.165  21.027  0.00  0.00    +0.000 A 
ATOM     27  N   UNL     1      49.521   6.426  20.617  0.00  0.00    +0.000 N 
ATOM     28  C   UNL     1      49.385   6.857  19.312  0.00  0.00    +0.000 A 
ATOM     29  O   UNL     1      49.688   7.999  18.982  0.00  0.00    +0.000 OA
ATOM     30  C   UNL     1      48.868   5.850  18.406  0.00  0.00    +0.000 A 
ATOM     31  H   UNL     1      49.885   7.095  21.276  0.00  0.00    +0.000 HD
ENDBRANCH  20  21
BRANCH  20  33
ATOM     32  C   UNL     1      51.021   8.295  15.048  0.00  0.00    +0.000 C 
ATOM     33  C   UNL     1      50.383   7.014  15.570  0.00  0.00    +0.000 C 
ENDBRANCH  20  33
ENDBRANCH  18  20
ENDBRANCH   1  18
TORSDOF 9
ENDMDL
MODEL 5
REMARK VINA RESULT:    -7.184      2.638      3.614
REMARK INTER + INTRA:         -12.103
REMARK INTER:                 -10.971
REMARK INTRA:                  -1.133
REMARK UNBOUND:                -1.140
REMARK  Name = 
REMARK  10 active torsions:
REMARK  status: ('A' for Active; 'I' for Inactive)
REMARK    1  A    between atoms: C_1  and  C_2
REMARK    2  A    between atoms: C_2  and  C_3
REMARK    3  A    between atoms: C_3  and  N_4
REMARK    4  A    between atoms: C_3  and  C_21
REMARK    5  A    between atoms: N_4  and  C_5
REMARK    6  A    between atoms: C_5  and  C_6
REMARK    7  A    between atoms: C_9  and  C_10
REMARK    8  A    between atoms: C_10  and  N_11
REMARK    9  A    between atoms: N_11  and  C_12
REMARK   10  A    between atoms: C_12  and  C_13
REMARK                            x       y       z     vdW  Elec       q    Type
REMARK                         _______ _______ _______ _____ _____    ______ ____
ROOT
ATOM      1  C   UNL     1      48.418   6.624  13.427  0.00  0.00    +0.000 C 
ENDROOT
BRANCH   1   2
ATOM      2  C   UNL     1      47.145   6.173  12.752  0.00  0.00    +0.000 A 
ATOM      3  C   UNL     1      46.784   6.674  11.495  0.00  0.00    +0.000 A 
ATOM      4  C   UNL     1      45.605   6.249  10.880  0.00  0.00    +0.000 A 
ATOM      5  C   UNL     1      44.763   5.317  11.507  0.00  0.00    +0.000 A 
ATOM      6  C   UNL     1      45.110   4.839  12.777  0.00  0.00    +0.000 A 
ATOM      7  C   UNL     1      46.289   5.266  13.393  0.00  0.00    +0.000 A 
BRANCH   5   8
ATOM      8  C   UNL     1      43.502   4.846  10.825  0.00  0.00    +0.000 C 
BRANCH   8   9
ATOM      9  N   UNL     1      43.796   4.340   9.485  0.00  0.00    +0.000 NA
ATOM     10  H   UNL     1      44.503   4.936   9.057  0.00  0.00    +0.000 HD
BRANCH   9  11
ATOM     11  C   UNL     1      44.284   2.967   9.536  0.00  0.00    +0.000 C 
BRANCH  11  12
ATOM     12  C   UNL     1      45.402   2.754   8.546  0.00  0.00    +0.000 A 
ATOM     13  C   UNL     1      45.917   3.819   7.804  0.00  0.00    +0.000 A 
ATOM     14  C   UNL     1      46.953   3.572   6.916  0.00  0.00    +0.000 A 
ATOM     15  N   UNL     1      47.503   2.355   6.720  0.00  0.00    +0.000 NA
ATOM     16  C   UNL     1      46.990   1.337   7.444  0.00  0.00    +0.000 A 
ATOM     17  C   UNL     1      45.957   1.484   8.357  0.00  0.00    +0.000 A 
ENDBRANCH  11  12
ENDBRANCH   9  11
ENDBRANCH   8   9
ENDBRANCH   5   8
ENDBRANCH   1   2
BRANCH   1  18
ATOM     18  N   UNL     1      48.136   7.037  14.793  0.00  0.00    +0.000 NA
ATOM     19  H   UNL     1      47.242   7.531  14.775  0.00  0.00    +0.000 HD
BRANCH  18  20
ATOM     20  C   UNL     1      49.122   7.926  15.427  0.00  0.00    +0.000 C 
BRANCH  20  21
ATOM     21  C   UNL     1      48.675   8.039  16.896  0.00  0.00    +0.000 A 
ATOM     22  C   UNL     1      48.356   9.243  17.513  0.00  0.00    +0.000 A 
ATOM     23  S   UNL     1      47.877   9.078  19.139  0.00  0.00    +0.000 S 
ATOM     24  C   UNL     1      48.028   7.385  19.066  0.00  0.00    +0.000 A 
ATOM     25  N   UNL     1      47.722   6.613  20.142  0.00  0.00    +0.000 NA
ATOM     26  C   UNL     1      47.859   5.345  19.942  0.00  0.00    +0.000 A 
ATOM     27  N   UNL     1      48.282   4.779  18.765  0.00  0.00    +0.000 N 
ATOM     28  C   UNL     1      48.626   5.524  17.654  0.00  0.00    +0.000 A 
ATOM     29  O   UNL     1      49.025   4.990  16.625  0.00  0.00    +0.000 OA
ATOM     30  C   UNL     1      48.468   6.956  17.829  0.00  0.00    +0.000 A 
ATOM     31  H   UNL     1      48.370   3.779  18.680  0.00  0.00    +0.000 HD
ENDBRANCH  20  21
BRANCH  20  33
ATOM     32  C   UNL     1      51.684   8.497  15.491  0.00  0.00    +0.000 C 
ATOM     33  C   UNL     1      50.593   7.436  15.406  0.00  0.00    +0.000 C 
ENDBRANCH  20  33
ENDBRANCH  18  20
ENDBRANCH   1  18
TORSDOF 9
ENDMDL
MODEL 6
REMARK VINA RESULT:    -7.027      2.553      3.930
REMARK INTER + INTRA:         -11.864
REMARK INTER:                 -10.548
REMARK INTRA:                  -1.317
REMARK UNBOUND:                -1.140
REMARK  Name = 
REMARK  10 active torsions:
REMARK  status: ('A' for Active; 'I' for Inactive)
REMARK    1  A    between atoms: C_1  and  C_2
REMARK    2  A    between atoms: C_2  and  C_3
REMARK    3  A    between atoms: C_3  and  N_4
REMARK    4  A    between atoms: C_3  and  C_21
REMARK    5  A    between atoms: N_4  and  C_5
REMARK    6  A    between atoms: C_5  and  C_6
REMARK    7  A    between atoms: C_9  and  C_10
REMARK    8  A    between atoms: C_10  and  N_11
REMARK    9  A    between atoms: N_11  and  C_12
REMARK   10  A    between atoms: C_12  and  C_13
REMARK                            x       y       z     vdW  Elec       q    Type
REMARK                         _______ _______ _______ _____ _____    ______ ____
ROOT
ATOM      1  C   UNL     1      46.487   8.555  12.416  0.00  0.00    +0.000 C 
ENDROOT
BRANCH   1   2
ATOM      2  C   UNL     1      45.814   7.252  12.060  0.00  0.00    +0.000 A 
ATOM      3  C   UNL     1      44.845   6.693  12.902  0.00  0.00    +0.000 A 
ATOM      4  C   UNL     1      44.228   5.487  12.562  0.00  0.00    +0.000 A 
ATOM      5  C   UNL     1      44.565   4.817  11.376  0.00  0.00    +0.000 A 
ATOM      6  C   UNL     1      45.555   5.362  10.549  0.00  0.00    +0.000 A 
ATOM      7  C   UNL     1      46.174   6.567  10.890  0.00  0.00    +0.000 A 
BRANCH   5   8
ATOM      8  C   UNL     1      43.876   3.526  11.006  0.00  0.00    +0.000 C 
BRANCH   8   9
ATOM      9  N   UNL     1      43.884   3.332   9.557  0.00  0.00    +0.000 NA
ATOM     10  H   UNL     1      44.416   4.088   9.127  0.00  0.00    +0.000 HD
BRANCH   9  11
ATOM     11  C   UNL     1      44.486   2.052   9.200  0.00  0.00    +0.000 C 
BRANCH  11  12
ATOM     12  C   UNL     1      45.644   2.245   8.254  0.00  0.00    +0.000 A 
ATOM     13  C   UNL     1      46.518   1.194   7.965  0.00  0.00    +0.000 A 
ATOM     14  C   UNL     1      47.559   1.419   7.078  0.00  0.00    +0.000 A 
ATOM     15  N   UNL     1      47.787   2.602   6.468  0.00  0.00    +0.000 NA
ATOM     16  C   UNL     1      46.934   3.606   6.763  0.00  0.00    +0.000 A 
ATOM     17  C   UNL     1      45.864   3.479   7.633  0.00  0.00    +0.000 A 
ENDBRANCH  11  12
ENDBRANCH   9  11
ENDBRANCH   8   9
ENDBRANCH   5   8
ENDBRANCH   1   2
BRANCH   1  18
ATOM     18  N   UNL     1      47.276   8.392  13.627  0.00  0.00    +0.000 NA
ATOM     19  H   UNL     1      47.015   9.153  14.256  0.00  0.00    +0.000 HD
BRANCH  18  20
ATOM     20  C   UNL     1      48.738   8.428  13.469  0.00  0.00    +0.000 C 
BRANCH  20  21
ATOM     21  C   UNL     1      49.301   8.212  14.885  0.00  0.00    +0.000 A 
ATOM     22  C   UNL     1      50.070   9.153  15.560  0.00  0.00    +0.000 A 
ATOM     23  S   UNL     1      50.548   8.662  17.119  0.00  0.00    +0.000 S 
ATOM     24  C   UNL     1      49.704   7.193  16.972  0.00  0.00    +0.000 A 
ATOM     25  N   UNL     1      49.673   6.303  17.999  0.00  0.00    +0.000 NA
ATOM     26  C   UNL     1      48.977   5.242  17.762  0.00  0.00    +0.000 A 
ATOM     27  N   UNL     1      48.314   4.986  16.588  0.00  0.00    +0.000 N 
ATOM     28  C   UNL     1      48.337   5.849  15.509  0.00  0.00    +0.000 A 
ATOM     29  O   UNL     1      47.754   5.580  14.464  0.00  0.00    +0.000 OA
ATOM     30  C   UNL     1      49.092   7.066  15.740  0.00  0.00    +0.000 A 
ATOM     31  H   UNL     1      47.792   4.133  16.469  0.00  0.00    +0.000 HD
ENDBRANCH  20  21
BRANCH  20  33
ATOM     32  C   UNL     1      50.289   7.829  11.437  0.00  0.00    +0.000 C 
ATOM     33  C   UNL     1      49.349   7.350  12.536  0.00  0.00    +0.000 C 
ENDBRANCH  20  33
ENDBRANCH  18  20
ENDBRANCH   1  18
TORSDOF 9
ENDMDL
MODEL 7
REMARK VINA RESULT:    -6.621      2.901      3.556
REMARK INTER + INTRA:         -11.244
REMARK INTER:                 -10.327
REMARK INTRA:                  -0.917
REMARK UNBOUND:                -1.140
REMARK  Name = 
REMARK  10 active torsions:
REMARK  status: ('A' for Active; 'I' for Inactive)
REMARK    1  A    between atoms: C_1  and  C_2
REMARK    2  A    between atoms: C_2  and  C_3
REMARK    3  A    between atoms: C_3  and  N_4
REMARK    4  A    between atoms: C_3  and  C_21
REMARK    5  A    between atoms: N_4  and  C_5
REMARK    6  A    between atoms: C_5  and  C_6
REMARK    7  A    between atoms: C_9  and  C_10
REMARK    8  A    between atoms: C_10  and  N_11
REMARK    9  A    between atoms: N_11  and  C_12
REMARK   10  A    between atoms: C_12  and  C_13
REMARK                            x       y       z     vdW  Elec       q    Type
REMARK                         _______ _______ _______ _____ _____    ______ ____
ROOT
ATOM      1  C   UNL     1      47.903   5.544  14.939  0.00  0.00    +0.000 C 
ENDROOT
BRANCH   1   2
ATOM      2  C   UNL     1      47.012   5.413  13.727  0.00  0.00    +0.000 A 
ATOM      3  C   UNL     1      46.258   4.253  13.514  0.00  0.00    +0.000 A 
ATOM      4  C   UNL     1      45.437   4.143  12.390  0.00  0.00    +0.000 A 
ATOM      5  C   UNL     1      45.352   5.189  11.457  0.00  0.00    +0.000 A 
ATOM      6  C   UNL     1      46.129   6.337  11.657  0.00  0.00    +0.000 A 
ATOM      7  C   UNL     1      46.952   6.446  12.780  0.00  0.00    +0.000 A 
BRANCH   5   8
ATOM      8  C   UNL     1      44.445   5.071  10.258  0.00  0.00    +0.000 C 
BRANCH   8   9
ATOM      9  N   UNL     1      45.223   4.866   9.037  0.00  0.00    +0.000 NA
ATOM     10  H   UNL     1      46.195   4.694   9.292  0.00  0.00    +0.000 HD
BRANCH   9  11
ATOM     11  C   UNL     1      44.715   3.731   8.274  0.00  0.00    +0.000 C 
BRANCH  11  12
ATOM     12  C   UNL     1      45.844   2.857   7.791  0.00  0.00    +0.000 A 
ATOM     13  C   UNL     1      45.932   1.518   8.179  0.00  0.00    +0.000 A 
ATOM     14  C   UNL     1      46.983   0.753   7.696  0.00  0.00    +0.000 A 
ATOM     15  N   UNL     1      47.937   1.222   6.866  0.00  0.00    +0.000 NA
ATOM     16  C   UNL     1      47.837   2.519   6.504  0.00  0.00    +0.000 A 
ATOM     17  C   UNL     1      46.824   3.363   6.931  0.00  0.00    +0.000 A 
ENDBRANCH  11  12
ENDBRANCH   9  11
ENDBRANCH   8   9
ENDBRANCH   5   8
ENDBRANCH   1   2
BRANCH   1  18
ATOM     18  N   UNL     1      48.599   6.821  14.908  0.00  0.00    +0.000 NA
ATOM     19  H   UNL     1      49.478   6.668  14.413  0.00  0.00    +0.000 HD
BRANCH  18  20
ATOM     20  C   UNL     1      48.922   7.425  16.211  0.00  0.00    +0.000 C 
BRANCH  20  21
ATOM     21  C   UNL     1      50.411   7.109  16.441  0.00  0.00    +0.000 A 
ATOM     22  C   UNL     1      50.891   6.431  17.556  0.00  0.00    +0.000 A 
ATOM     23  S   UNL     1      52.578   6.202  17.549  0.00  0.00    +0.000 S 
ATOM     24  C   UNL     1      52.728   6.956  16.032  0.00  0.00    +0.000 A 
ATOM     25  N   UNL     1      53.938   7.058  15.422  0.00  0.00    +0.000 NA
ATOM     26  C   UNL     1      53.904   7.631  14.266  0.00  0.00    +0.000 A 
ATOM     27  N   UNL     1      52.769   8.118  13.666  0.00  0.00    +0.000 N 
ATOM     28  C   UNL     1      51.522   8.059  14.258  0.00  0.00    +0.000 A 
ATOM     29  O   UNL     1      50.531   8.526  13.707  0.00  0.00    +0.000 OA
ATOM     30  C   UNL     1      51.512   7.404  15.552  0.00  0.00    +0.000 A 
ATOM     31  H   UNL     1      52.816   8.559  12.762  0.00  0.00    +0.000 HD
ENDBRANCH  20  21
BRANCH  20  33
ATOM     32  C   UNL     1      48.960   9.600  17.679  0.00  0.00    +0.000 C 
ATOM     33  C   UNL     1      48.732   8.960  16.316  0.00  0.00    +0.000 C 
ENDBRANCH  20  33
ENDBRANCH  18  20
ENDBRANCH   1  18
TORSDOF 9
ENDMDL
MODEL 8
REMARK VINA RESULT:    -6.458      4.067      5.509
REMARK INTER + INTRA:         -10.995
REMARK INTER:                  -9.683
REMARK INTRA:                  -1.312
REMARK UNBOUND:                -1.140
REMARK  Name = 
REMARK  10 active torsions:
REMARK  status: ('A' for Active; 'I' for Inactive)
REMARK    1  A    between atoms: C_1  and  C_2
REMARK    2  A    between atoms: C_2  and  C_3
REMARK    3  A    between atoms: C_3  and  N_4
REMARK    4  A    between atoms: C_3  and  C_21
REMARK    5  A    between atoms: N_4  and  C_5
REMARK    6  A    between atoms: C_5  and  C_6
REMARK    7  A    between atoms: C_9  and  C_10
REMARK    8  A    between atoms: C_10  and  N_11
REMARK    9  A    between atoms: N_11  and  C_12
REMARK   10  A    between atoms: C_12  and  C_13
REMARK                            x       y       z     vdW  Elec       q    Type
REMARK                         _______ _______ _______ _____ _____    ______ ____
ROOT
ATOM      1  C   UNL     1      46.153   8.469  12.648  0.00  0.00    +0.000 C 
ENDROOT
BRANCH   1   2
ATOM      2  C   UNL     1      45.606   7.116  12.264  0.00  0.00    +0.000 A 
ATOM      3  C   UNL     1      44.729   6.430  13.114  0.00  0.00    +0.000 A 
ATOM      4  C   UNL     1      44.228   5.179  12.748  0.00  0.00    +0.000 A 
ATOM      5  C   UNL     1      44.592   4.588  11.528  0.00  0.00    +0.000 A 
ATOM      6  C   UNL     1      45.492   5.262  10.693  0.00  0.00    +0.000 A 
ATOM      7  C   UNL     1      45.995   6.512  11.059  0.00  0.00    +0.000 A 
BRANCH   5   8
ATOM      8  C   UNL     1      44.028   3.246  11.131  0.00  0.00    +0.000 C 
BRANCH   8   9
ATOM      9  N   UNL     1      43.976   3.116   9.676  0.00  0.00    +0.000 NA
ATOM     10  H   UNL     1      44.481   3.897   9.258  0.00  0.00    +0.000 HD
BRANCH   9  11
ATOM     11  C   UNL     1      44.576   1.861   9.237  0.00  0.00    +0.000 C 
BRANCH  11  12
ATOM     12  C   UNL     1      45.680   2.108   8.241  0.00  0.00    +0.000 A 
ATOM     13  C   UNL     1      46.509   1.068   7.815  0.00  0.00    +0.000 A 
ATOM     14  C   UNL     1      47.502   1.346   6.888  0.00  0.00    +0.000 A 
ATOM     15  N   UNL     1      47.723   2.570   6.364  0.00  0.00    +0.000 NA
ATOM     16  C   UNL     1      46.913   3.563   6.790  0.00  0.00    +0.000 A 
ATOM     17  C   UNL     1      45.893   3.385   7.711  0.00  0.00    +0.000 A 
ENDBRANCH  11  12
ENDBRANCH   9  11
ENDBRANCH   8   9
ENDBRANCH   5   8
ENDBRANCH   1   2
BRANCH   1  18
ATOM     18  N   UNL     1      46.922   8.363  13.878  0.00  0.00    +0.000 NA
ATOM     19  H   UNL     1      47.393   9.259  14.012  0.00  0.00    +0.000 HD
BRANCH  18  20
ATOM     20  C   UNL     1      47.950   7.310  13.921  0.00  0.00    +0.000 C 
BRANCH  20  21
ATOM     21  C   UNL     1      49.105   7.841  13.052  0.00  0.00    +0.000 A 
ATOM     22  C   UNL     1      49.626   7.155  11.961  0.00  0.00    +0.000 A 
ATOM     23  S   UNL     1      50.888   7.979  11.169  0.00  0.00    +0.000 S 
ATOM     24  C   UNL     1      50.753   9.308  12.222  0.00  0.00    +0.000 A 
ATOM     25  N   UNL     1      51.541  10.404  12.064  0.00  0.00    +0.000 NA
ATOM     26  C   UNL     1      51.318  11.346  12.917  0.00  0.00    +0.000 A 
ATOM     27  N   UNL     1      50.383  11.290  13.920  0.00  0.00    +0.000 N 
ATOM     28  C   UNL     1      49.577  10.189  14.134  0.00  0.00    +0.000 A 
ATOM     29  O   UNL     1      48.767  10.159  15.055  0.00  0.00    +0.000 OA
ATOM     30  C   UNL     1      49.781   9.112  13.184  0.00  0.00    +0.000 A 
ATOM     31  H   UNL     1      50.264  12.063  14.555  0.00  0.00    +0.000 HD
ENDBRANCH  20  21
BRANCH  20  33
ATOM     32  C   UNL     1      48.289   5.556  15.844  0.00  0.00    +0.000 C 
ATOM     33  C   UNL     1      48.517   6.969  15.323  0.00  0.00    +0.000 C 
ENDBRANCH  20  33
ENDBRANCH  18  20
ENDBRANCH   1  18
TORSDOF 9
ENDMDL
MODEL 9
REMARK VINA RESULT:    -6.340      3.441      4.578
REMARK INTER + INTRA:         -10.816
REMARK INTER:                  -9.403
REMARK INTRA:                  -1.412
REMARK UNBOUND:                -1.140
REMARK  Name = 
REMARK  10 active torsions:
REMARK  status: ('A' for Active; 'I' for Inactive)
REMARK    1  A    between atoms: C_1  and  C_2
REMARK    2  A    between atoms: C_2  and  C_3
REMARK    3  A    between atoms: C_3  and  N_4
REMARK    4  A    between atoms: C_3  and  C_21
REMARK    5  A    between atoms: N_4  and  C_5
REMARK    6  A    between atoms: C_5  and  C_6
REMARK    7  A    between atoms: C_9  and  C_10
REMARK    8  A    between atoms: C_10  and  N_11
REMARK    9  A    between atoms: N_11  and  C_12
REMARK   10  A    between atoms: C_12  and  C_13
REMARK                            x       y       z     vdW  Elec       q    Type
REMARK                         _______ _______ _______ _____ _____    ______ ____
ROOT
ATOM      1  C   UNL     1      48.556   9.006  12.543  0.00  0.00    +0.000 C 
ENDROOT
BRANCH   1   2
ATOM      2  C   UNL     1      47.362   8.117  12.287  0.00  0.00    +0.000 A 
ATOM      3  C   UNL     1      46.094   8.667  12.064  0.00  0.00    +0.000 A 
ATOM      4  C   UNL     1      44.998   7.836  11.827  0.00  0.00    +0.000 A 
ATOM      5  C   UNL     1      45.146   6.440  11.807  0.00  0.00    +0.000 A 
ATOM      6  C   UNL     1      46.410   5.891  12.059  0.00  0.00    +0.000 A 
ATOM      7  C   UNL     1      47.506   6.723  12.298  0.00  0.00    +0.000 A 
BRANCH   5   8
ATOM      8  C   UNL     1      43.960   5.550  11.527  0.00  0.00    +0.000 C 
BRANCH   8   9
ATOM      9  N   UNL     1      43.946   5.131  10.127  0.00  0.00    +0.000 NA
ATOM     10  H   UNL     1      44.743   5.551   9.650  0.00  0.00    +0.000 HD
BRANCH   9  11
ATOM     11  C   UNL     1      44.023   3.679  10.011  0.00  0.00    +0.000 C 
BRANCH  11  12
ATOM     12  C   UNL     1      45.085   3.271   9.022  0.00  0.00    +0.000 A 
ATOM     13  C   UNL     1      45.454   1.932   8.875  0.00  0.00    +0.000 A 
ATOM     14  C   UNL     1      46.427   1.608   7.943  0.00  0.00    +0.000 A 
ATOM     15  N   UNL     1      47.050   2.513   7.158  0.00  0.00    +0.000 NA
ATOM     16  C   UNL     1      46.682   3.803   7.316  0.00  0.00    +0.000 A 
ATOM     17  C   UNL     1      45.720   4.225   8.219  0.00  0.00    +0.000 A 
ENDBRANCH  11  12
ENDBRANCH   9  11
ENDBRANCH   8   9
ENDBRANCH   5   8
ENDBRANCH   1   2
BRANCH   1  18
ATOM     18  N   UNL     1      49.401   8.418  13.570  0.00  0.00    +0.000 NA
ATOM     19  H   UNL     1      49.068   7.464  13.718  0.00  0.00    +0.000 HD
BRANCH  18  20
ATOM     20  C   UNL     1      49.410   9.092  14.879  0.00  0.00    +0.000 C 
BRANCH  20  21
ATOM     21  C   UNL     1      49.163   7.974  15.908  0.00  0.00    +0.000 A 
ATOM     22  C   UNL     1      49.586   6.661  15.736  0.00  0.00    +0.000 A 
ATOM     23  S   UNL     1      49.194   5.636  17.037  0.00  0.00    +0.000 S 
ATOM     24  C   UNL     1      48.489   6.917  17.905  0.00  0.00    +0.000 A 
ATOM     25  N   UNL     1      47.981   6.719  19.150  0.00  0.00    +0.000 NA
ATOM     26  C   UNL     1      47.498   7.781  19.702  0.00  0.00    +0.000 A 
ATOM     27  N   UNL     1      47.471   9.023  19.120  0.00  0.00    +0.000 N 
ATOM     28  C   UNL     1      47.953   9.268  17.849  0.00  0.00    +0.000 A 
ATOM     29  O   UNL     1      47.892  10.385  17.346  0.00  0.00    +0.000 OA
ATOM     30  C   UNL     1      48.524   8.104  17.198  0.00  0.00    +0.000 A 
ATOM     31  H   UNL     1      47.074   9.810  19.608  0.00  0.00    +0.000 HD
ENDBRANCH  20  21
BRANCH  20  33
ATOM     32  C   UNL     1      52.005   9.354  14.574  0.00  0.00    +0.000 C 
ATOM     33  C   UNL     1      50.726   9.819  15.260  0.00  0.00    +0.000 C 
ENDBRANCH  20  33
ENDBRANCH  18  20
ENDBRANCH   1  18
TORSDOF 9
ENDMDL
