MODEL 1
REMARK VINA RESULT:    -8.709      0.000      0.000
REMARK INTER + INTRA:         -11.763
REMARK INTER:                 -11.255
REMARK INTRA:                  -0.508
REMARK UNBOUND:                -0.508
REMARK  Name = 
REMARK  5 active torsions:
REMARK  status: ('A' for Active; 'I' for Inactive)
REMARK    1  A    between atoms: C_2  and  C_18
REMARK    2  A    between atoms: N_3  and  C_4
REMARK    3  A    between atoms: C_4  and  C_5
REMARK    4  A    between atoms: N_8  and  C_9
REMARK    5  A    between atoms: C_9  and  C_10
REMARK                            x       y       z     vdW  Elec       q    Type
REMARK                         _______ _______ _______ _____ _____    ______ ____
ROOT
ATOM      1  O   UNL     1      47.867   2.887  15.156  0.00  0.00    +0.000 OA
ATOM      2  C   UNL     1      47.433   4.003  15.413  0.00  0.00    +0.000 C 
ATOM      3  N   UNL     1      46.520   4.658  14.610  0.00  0.00    +0.000 N 
ATOM      4  H   UNL     1      46.281   5.614  14.825  0.00  0.00    +0.000 HD
ENDROOT
BRANCH   2   5
ATOM      5  C   UNL     1      47.796   4.730  16.632  0.00  0.00    +0.000 A 
ATOM      6  C   UNL     1      47.413   4.323  17.902  0.00  0.00    +0.000 A 
ATOM      7  S   UNL     1      48.054   5.296  19.149  0.00  0.00    +0.000 S 
ATOM      8  C   UNL     1      48.881   6.279  18.034  0.00  0.00    +0.000 A 
ATOM      9  N   UNL     1      49.665   7.309  18.453  0.00  0.00    +0.000 NA
ATOM     10  C   UNL     1      50.251   7.952  17.499  0.00  0.00    +0.000 A 
ATOM     11  N   UNL     1      50.109   7.671  16.164  0.00  0.00    +0.000 N 
ATOM     12  C   UNL     1      49.247   6.705  15.687  0.00  0.00    +0.000 A 
ATOM     13  O   UNL     1      48.993   6.627  14.490  0.00  0.00    +0.000 OA
ATOM     14  C   UNL     1      48.641   5.897  16.728  0.00  0.00    +0.000 A 
ATOM     15  H   UNL     1      50.541   8.254  15.462  0.00  0.00    +0.000 HD
ENDBRANCH   2   5
BRANCH   3  16
ATOM     16  C   UNL     1      45.995   4.079  13.387  0.00  0.00    +0.000 C 
BRANCH  16  17
ATOM     17  C   UNL     1      44.737   4.806  12.879  0.00  0.00    +0.000 C 
ATOM     18  C   UNL     1      43.499   3.904  12.805  0.00  0.00    +0.000 C 
ATOM     19  C   UNL     1      43.636   2.815  11.738  0.00  0.00    +0.000 C 
ATOM     20  N   UNL     1      43.925   3.349  10.403  0.00  0.00    +0.000 NA
ATOM     21  C   UNL     1      45.021   4.334  10.383  0.00  0.00    +0.000 C 
ATOM     22  C   UNL     1      44.956   5.399  11.483  0.00  0.00    +0.000 C 
BRANCH  20  23
ATOM     23  C   UNL     1      44.236   2.255   9.435  0.00  0.00    +0.000 C 
BRANCH  23  24
ATOM     24  C   UNL     1      45.559   2.431   8.633  0.00  0.00    +0.000 C 
ATOM     25  C   UNL     1      45.347   3.333   7.403  0.00  0.00    +0.000 C 
ATOM     26  C   UNL     1      46.596   3.406   6.523  0.00  0.00    +0.000 C 
ATOM     27  C   UNL     1      47.131   2.009   6.219  0.00  0.00    +0.000 C 
ATOM     28  C   UNL     1      47.326   1.210   7.504  0.00  0.00    +0.000 C 
ATOM     29  N   UNL     1      46.063   1.112   8.222  0.00  0.00    +0.000 NA
ATOM     30  H   UNL     1      46.149   0.531   9.058  0.00  0.00    +0.000 HD
ENDBRANCH  23  24
ENDBRANCH  20  23
ENDBRANCH  16  17
ENDBRANCH   3  16
TORSDOF 5
ENDMDL
MODEL 2
REMARK VINA RESULT:    -8.461      1.534      2.415
REMARK INTER + INTRA:         -11.442
REMARK INTER:                 -10.619
REMARK INTRA:                  -0.822
REMARK UNBOUND:                -0.508
REMARK  Name = 
REMARK  5 active torsions:
REMARK  status: ('A' for Active; 'I' for Inactive)
REMARK    1  A    between atoms: C_2  and  C_18
REMARK    2  A    between atoms: N_3  and  C_4
REMARK    3  A    between atoms: C_4  and  C_5
REMARK    4  A    between atoms: N_8  and  C_9
REMARK    5  A    between atoms: C_9  and  C_10
REMARK                            x       y       z     vdW  Elec       q    Type
REMARK                         _______ _______ _______ _____ _____    ______ ____
ROOT
ATOM      1  O   UNL     1      48.490   6.023  12.996  0.00  0.00    +0.000 OA
ATOM      2  C   UNL     1      47.812   6.063  14.015  0.00  0.00    +0.000 C 
ATOM      3  N   UNL     1      46.435   5.959  14.007  0.00  0.00    +0.000 N 
ATOM      4  H   UNL     1      45.931   6.102  14.869  0.00  0.00    +0.000 HD
ENDROOT
BRANCH   2   5
ATOM      5  C   UNL     1      48.402   6.166  15.352  0.00  0.00    +0.000 A 
ATOM      6  C   UNL     1      49.140   7.262  15.775  0.00  0.00    +0.000 A 
ATOM      7  S   UNL     1      49.625   7.164  17.408  0.00  0.00    +0.000 S 
ATOM      8  C   UNL     1      48.847   5.665  17.609  0.00  0.00    +0.000 A 
ATOM      9  N   UNL     1      48.851   5.028  18.811  0.00  0.00    +0.000 NA
ATOM     10  C   UNL     1      48.200   3.913  18.823  0.00  0.00    +0.000 A 
ATOM     11  N   UNL     1      47.564   3.367  17.737  0.00  0.00    +0.000 N 
ATOM     12  C   UNL     1      47.620   3.924  16.476  0.00  0.00    +0.000 A 
ATOM     13  O   UNL     1      47.218   3.303  15.498  0.00  0.00    +0.000 OA
ATOM     14  C   UNL     1      48.260   5.225  16.438  0.00  0.00    +0.000 A 
ATOM     15  H   UNL     1      47.129   2.458  17.793  0.00  0.00    +0.000 HD
ENDBRANCH   2   5
BRANCH   3  16
ATOM     16  C   UNL     1      45.668   5.794  12.785  0.00  0.00    +0.000 C 
BRANCH  16  17
ATOM     17  C   UNL     1      44.467   4.848  12.961  0.00  0.00    +0.000 C 
ATOM     18  C   UNL     1      44.777   3.393  12.589  0.00  0.00    +0.000 C 
ATOM     19  C   UNL     1      45.044   3.220  11.092  0.00  0.00    +0.000 C 
ATOM     20  N   UNL     1      43.949   3.712  10.250  0.00  0.00    +0.000 NA
ATOM     21  C   UNL     1      43.482   5.063  10.612  0.00  0.00    +0.000 C 
ATOM     22  C   UNL     1      43.271   5.294  12.114  0.00  0.00    +0.000 C 
BRANCH  20  23
ATOM     23  C   UNL     1      44.325   3.699   8.805  0.00  0.00    +0.000 C 
BRANCH  23  24
ATOM     24  C   UNL     1      45.668   2.986   8.473  0.00  0.00    +0.000 C 
ATOM     25  C   UNL     1      46.366   3.650   7.270  0.00  0.00    +0.000 C 
ATOM     26  C   UNL     1      47.615   2.880   6.836  0.00  0.00    +0.000 C 
ATOM     27  C   UNL     1      47.312   1.393   6.672  0.00  0.00    +0.000 C 
ATOM     28  C   UNL     1      46.645   0.834   7.925  0.00  0.00    +0.000 C 
ATOM     29  N   UNL     1      45.415   1.564   8.200  0.00  0.00    +0.000 NA
ATOM     30  H   UNL     1      44.915   1.172   9.000  0.00  0.00    +0.000 HD
ENDBRANCH  23  24
ENDBRANCH  20  23
ENDBRANCH  16  17
ENDBRANCH   3  16
TORSDOF 5
ENDMDL
MODEL 3
REMARK VINA RESULT:    -8.191      2.269      2.821
REMARK INTER + INTRA:         -11.093
REMARK INTER:                 -10.455
REMARK INTRA:                  -0.638
REMARK UNBOUND:                -0.508
REMARK  Name = 
REMARK  5 active torsions:
REMARK  status: ('A' for Active; 'I' for Inactive)
REMARK    1  A    between atoms: C_2  and  C_18
REMARK    2  A    between atoms: N_3  and  C_4
REMARK    3  A    between atoms: C_4  and  C_5
REMARK    4  A    between atoms: N_8  and  C_9
REMARK    5  A    between atoms: C_9  and  C_10
REMARK                            x       y       z     vdW  Elec       q    Type
REMARK                         _______ _______ _______ _____ _____    ______ ____
ROOT
ATOM      1  O   UNL     1      47.717   4.547  14.208  0.00  0.00    +0.000 OA
ATOM      2  C   UNL     1      47.530   5.749  14.072  0.00  0.00    +0.000 C 
ATOM      3  N   UNL     1      46.330   6.281  13.642  0.00  0.00    +0.000 N 
ATOM      4  H   UNL     1      46.276   7.271  13.454  0.00  0.00    +0.000 HD
ENDROOT
BRANCH   2   5
ATOM      5  C   UNL     1      48.547   6.748  14.410  0.00  0.00    +0.000 A 
ATOM      6  C   UNL     1      49.004   6.960  15.703  0.00  0.00    +0.000 A 
ATOM      7  S   UNL     1      50.258   8.114  15.799  0.00  0.00    +0.000 S 
ATOM      8  C   UNL     1      50.246   8.352  14.115  0.00  0.00    +0.000 A 
ATOM      9  N   UNL     1      51.118   9.211  13.521  0.00  0.00    +0.000 NA
ATOM     10  C   UNL     1      51.011   9.271  12.236  0.00  0.00    +0.000 A 
ATOM     11  N   UNL     1      50.099   8.566  11.493  0.00  0.00    +0.000 N 
ATOM     12  C   UNL     1      49.130   7.763  12.058  0.00  0.00    +0.000 A 
ATOM     13  O   UNL     1      48.209   7.319  11.380  0.00  0.00    +0.000 OA
ATOM     14  C   UNL     1      49.273   7.594  13.492  0.00  0.00    +0.000 A 
ATOM     15  H   UNL     1      50.020   8.707  10.496  0.00  0.00    +0.000 HD
ENDBRANCH   2   5
BRANCH   3  16
ATOM     16  C   UNL     1      45.182   5.457  13.311  0.00  0.00    +0.000 C 
BRANCH  16  17
ATOM     17  C   UNL     1      44.287   6.093  12.233  0.00  0.00    +0.000 C 
ATOM     18  C   UNL     1      42.988   5.317  11.984  0.00  0.00    +0.000 C 
ATOM     19  C   UNL     1      43.241   3.945  11.355  0.00  0.00    +0.000 C 
ATOM     20  N   UNL     1      44.009   4.016  10.107  0.00  0.00    +0.000 NA
ATOM     21  C   UNL     1      45.218   4.852  10.201  0.00  0.00    +0.000 C 
ATOM     22  C   UNL     1      45.017   6.207  10.891  0.00  0.00    +0.000 C 
BRANCH  20  23
ATOM     23  C   UNL     1      44.395   2.655   9.628  0.00  0.00    +0.000 C 
BRANCH  23  24
ATOM     24  C   UNL     1      45.668   2.599   8.734  0.00  0.00    +0.000 C 
ATOM     25  C   UNL     1      45.486   3.438   7.455  0.00  0.00    +0.000 C 
ATOM     26  C   UNL     1      46.668   3.285   6.496  0.00  0.00    +0.000 C 
ATOM     27  C   UNL     1      46.997   1.812   6.265  0.00  0.00    +0.000 C 
ATOM     28  C   UNL     1      47.179   1.082   7.593  0.00  0.00    +0.000 C 
ATOM     29  N   UNL     1      45.968   1.201   8.394  0.00  0.00    +0.000 NA
ATOM     30  H   UNL     1      46.039   0.670   9.264  0.00  0.00    +0.000 HD
ENDBRANCH  23  24
ENDBRANCH  20  23
ENDBRANCH  16  17
ENDBRANCH   3  16
TORSDOF 5
ENDMDL
MODEL 4
REMARK VINA RESULT:    -7.606      2.688      3.603
REMARK INTER + INTRA:         -10.337
REMARK INTER:                  -9.324
REMARK INTRA:                  -1.013
REMARK UNBOUND:                -0.508
REMARK  Name = 
REMARK  5 active torsions:
REMARK  status: ('A' for Active; 'I' for Inactive)
REMARK    1  A    between atoms: C_2  and  C_18
REMARK    2  A    between atoms: N_3  and  C_4
REMARK    3  A    between atoms: C_4  and  C_5
REMARK    4  A    between atoms: N_8  and  C_9
REMARK    5  A    between atoms: C_9  and  C_10
REMARK                            x       y       z     vdW  Elec       q    Type
REMARK                         _______ _______ _______ _____ _____    ______ ____
ROOT
ATOM      1  O   UNL     1      45.603   9.059  12.898  0.00  0.00    +0.000 OA
ATOM      2  C   UNL     1      46.641   8.470  12.626  0.00  0.00    +0.000 C 
ATOM      3  N   UNL     1      46.671   7.283  11.921  0.00  0.00    +0.000 N 
ATOM      4  H   UNL     1      47.550   6.798  11.820  0.00  0.00    +0.000 HD
ENDROOT
BRANCH   2   5
ATOM      5  C   UNL     1      47.963   8.999  12.972  0.00  0.00    +0.000 A 
ATOM      6  C   UNL     1      48.413  10.247  12.564  0.00  0.00    +0.000 A 
ATOM      7  S   UNL     1      49.948  10.653  13.190  0.00  0.00    +0.000 S 
ATOM      8  C   UNL     1      50.052   9.185  14.043  0.00  0.00    +0.000 A 
ATOM      9  N   UNL     1      51.128   8.902  14.825  0.00  0.00    +0.000 NA
ATOM     10  C   UNL     1      51.059   7.765  15.432  0.00  0.00    +0.000 A 
ATOM     11  N   UNL     1      50.022   6.876  15.312  0.00  0.00    +0.000 N 
ATOM     12  C   UNL     1      48.961   7.072  14.452  0.00  0.00    +0.000 A 
ATOM     13  O   UNL     1      48.168   6.167  14.219  0.00  0.00    +0.000 OA
ATOM     14  C   UNL     1      48.952   8.379  13.822  0.00  0.00    +0.000 A 
ATOM     15  H   UNL     1      50.058   5.972  15.760  0.00  0.00    +0.000 HD
ENDBRANCH   2   5
BRANCH   3  16
ATOM     16  C   UNL     1      45.468   6.627  11.440  0.00  0.00    +0.000 C 
BRANCH  16  17
ATOM     17  C   UNL     1      44.806   5.743  12.511  0.00  0.00    +0.000 C 
ATOM     18  C   UNL     1      45.564   4.437  12.779  0.00  0.00    +0.000 C 
ATOM     19  C   UNL     1      45.528   3.487  11.580  0.00  0.00    +0.000 C 
ATOM     20  N   UNL     1      44.166   3.174  11.134  0.00  0.00    +0.000 NA
ATOM     21  C   UNL     1      43.306   4.360  10.972  0.00  0.00    +0.000 C 
ATOM     22  C   UNL     1      43.371   5.370  12.124  0.00  0.00    +0.000 C 
BRANCH  20  23
ATOM     23  C   UNL     1      44.176   2.402   9.856  0.00  0.00    +0.000 C 
BRANCH  23  24
ATOM     24  C   UNL     1      45.482   2.519   9.017  0.00  0.00    +0.000 C 
ATOM     25  C   UNL     1      45.342   3.589   7.918  0.00  0.00    +0.000 C 
ATOM     26  C   UNL     1      46.561   3.622   6.993  0.00  0.00    +0.000 C 
ATOM     27  C   UNL     1      46.907   2.221   6.495  0.00  0.00    +0.000 C 
ATOM     28  C   UNL     1      47.043   1.248   7.662  0.00  0.00    +0.000 C 
ATOM     29  N   UNL     1      45.803   1.212   8.424  0.00  0.00    +0.000 NA
ATOM     30  H   UNL     1      45.844   0.523   9.178  0.00  0.00    +0.000 HD
ENDBRANCH  23  24
ENDBRANCH  20  23
ENDBRANCH  16  17
ENDBRANCH   3  16
TORSDOF 5
ENDMDL
MODEL 5
REMARK VINA RESULT:    -7.519      4.167      8.687
REMARK INTER + INTRA:         -10.225
REMARK INTER:                  -9.580
REMARK INTRA:                  -0.645
REMARK UNBOUND:                -0.508
REMARK  Name = 
REMARK  5 active torsions:
REMARK  status: ('A' for Active; 'I' for Inactive)
REMARK    1  A    between atoms: C_2  and  C_18
REMARK    2  A    between atoms: N_3  and  C_4
REMARK    3  A    between atoms: C_4  and  C_5
REMARK    4  A    between atoms: N_8  and  C_9
REMARK    5  A    between atoms: C_9  and  C_10
REMARK                            x       y       z     vdW  Elec       q    Type
REMARK                         _______ _______ _______ _____ _____    ______ ____
ROOT
ATOM      1  O   UNL     1      48.928   6.381  13.540  0.00  0.00    +0.000 OA
ATOM      2  C   UNL     1      47.811   6.116  13.964  0.00  0.00    +0.000 C 
ATOM      3  N   UNL     1      47.559   5.818  15.289  0.00  0.00    +0.000 N 
ATOM      4  H   UNL     1      46.635   5.509  15.551  0.00  0.00    +0.000 HD
ENDROOT
BRANCH   2   5
ATOM      5  C   UNL     1      46.617   6.145  13.115  0.00  0.00    +0.000 A 
ATOM      6  C   UNL     1      46.099   7.312  12.573  0.00  0.00    +0.000 A 
ATOM      7  S   UNL     1      44.763   7.047  11.544  0.00  0.00    +0.000 S 
ATOM      8  C   UNL     1      44.848   5.364  11.772  0.00  0.00    +0.000 A 
ATOM      9  N   UNL     1      43.987   4.525  11.135  0.00  0.00    +0.000 NA
ATOM     10  C   UNL     1      44.185   3.273  11.382  0.00  0.00    +0.000 A 
ATOM     11  N   UNL     1      45.152   2.786  12.223  0.00  0.00    +0.000 N 
ATOM     12  C   UNL     1      45.979   3.600  12.969  0.00  0.00    +0.000 A 
ATOM     13  O   UNL     1      46.682   3.135  13.859  0.00  0.00    +0.000 OA
ATOM     14  C   UNL     1      45.853   5.010  12.651  0.00  0.00    +0.000 A 
ATOM     15  H   UNL     1      45.213   1.799  12.428  0.00  0.00    +0.000 HD
ENDBRANCH   2   5
BRANCH   3  16
ATOM     16  C   UNL     1      48.602   5.794  16.298  0.00  0.00    +0.000 C 
BRANCH  16  17
ATOM     17  C   UNL     1      48.178   5.043  17.572  0.00  0.00    +0.000 C 
ATOM     18  C   UNL     1      49.319   4.857  18.580  0.00  0.00    +0.000 C 
ATOM     19  C   UNL     1      50.407   3.917  18.059  0.00  0.00    +0.000 C 
ATOM     20  N   UNL     1      49.892   2.602  17.664  0.00  0.00    +0.000 NA
ATOM     21  C   UNL     1      48.704   2.666  16.794  0.00  0.00    +0.000 C 
ATOM     22  C   UNL     1      47.622   3.653  17.248  0.00  0.00    +0.000 C 
BRANCH  20  23
ATOM     23  C   UNL     1      50.945   1.785  16.989  0.00  0.00    +0.000 C 
BRANCH  23  24
ATOM     24  C   UNL     1      52.186   1.444  17.864  0.00  0.00    +0.000 C 
ATOM     25  C   UNL     1      53.240   2.565  17.794  0.00  0.00    +0.000 C 
ATOM     26  C   UNL     1      54.527   2.189  18.531  0.00  0.00    +0.000 C 
ATOM     27  C   UNL     1      55.018   0.809  18.104  0.00  0.00    +0.000 C 
ATOM     28  C   UNL     1      53.906  -0.228  18.233  0.00  0.00    +0.000 C 
ATOM     29  N   UNL     1      52.764   0.166  17.420  0.00  0.00    +0.000 NA
ATOM     30  H   UNL     1      52.026  -0.539  17.440  0.00  0.00    +0.000 HD
ENDBRANCH  23  24
ENDBRANCH  20  23
ENDBRANCH  16  17
ENDBRANCH   3  16
TORSDOF 5
ENDMDL
MODEL 6
REMARK VINA RESULT:    -7.256      3.294      8.858
REMARK INTER + INTRA:          -9.885
REMARK INTER:                  -9.243
REMARK INTRA:                  -0.642
REMARK UNBOUND:                -0.508
REMARK  Name = 
REMARK  5 active torsions:
REMARK  status: ('A' for Active; 'I' for Inactive)
REMARK    1  A    between atoms: C_2  and  C_18
REMARK    2  A    between atoms: N_3  and  C_4
REMARK    3  A    between atoms: C_4  and  C_5
REMARK    4  A    between atoms: N_8  and  C_9
REMARK    5  A    between atoms: C_9  and  C_10
REMARK                            x       y       z     vdW  Elec       q    Type
REMARK                         _______ _______ _______ _____ _____    ______ ____
ROOT
ATOM      1  O   UNL     1      48.618   6.062  13.220  0.00  0.00    +0.000 OA
ATOM      2  C   UNL     1      47.490   5.864  13.649  0.00  0.00    +0.000 C 
ATOM      3  N   UNL     1      47.234   5.502  14.958  0.00  0.00    +0.000 N 
ATOM      4  H   UNL     1      46.292   5.256  15.220  0.00  0.00    +0.000 HD
ENDROOT
BRANCH   2   5
ATOM      5  C   UNL     1      46.290   6.050  12.830  0.00  0.00    +0.000 A 
ATOM      6  C   UNL     1      45.827   7.296  12.431  0.00  0.00    +0.000 A 
ATOM      7  S   UNL     1      44.467   7.218  11.403  0.00  0.00    +0.000 S 
ATOM      8  C   UNL     1      44.466   5.518  11.439  0.00  0.00    +0.000 A 
ATOM      9  N   UNL     1      43.554   4.802  10.727  0.00  0.00    +0.000 NA
ATOM     10  C   UNL     1      43.688   3.522  10.829  0.00  0.00    +0.000 A 
ATOM     11  N   UNL     1      44.637   2.893  11.593  0.00  0.00    +0.000 N 
ATOM     12  C   UNL     1      45.515   3.575  12.411  0.00  0.00    +0.000 A 
ATOM     13  O   UNL     1      46.202   2.976  13.231  0.00  0.00    +0.000 OA
ATOM     14  C   UNL     1      45.461   5.016  12.255  0.00  0.00    +0.000 A 
ATOM     15  H   UNL     1      44.648   1.888  11.686  0.00  0.00    +0.000 HD
ENDBRANCH   2   5
BRANCH   3  16
ATOM     16  C   UNL     1      48.287   5.323  15.940  0.00  0.00    +0.000 C 
BRANCH  16  17
ATOM     17  C   UNL     1      48.717   6.646  16.598  0.00  0.00    +0.000 C 
ATOM     18  C   UNL     1      50.206   6.964  16.413  0.00  0.00    +0.000 C 
ATOM     19  C   UNL     1      51.108   5.981  17.162  0.00  0.00    +0.000 C 
ATOM     20  N   UNL     1      50.806   5.898  18.595  0.00  0.00    +0.000 NA
ATOM     21  C   UNL     1      49.372   5.724  18.890  0.00  0.00    +0.000 C 
ATOM     22  C   UNL     1      48.432   6.645  18.103  0.00  0.00    +0.000 C 
BRANCH  20  23
ATOM     23  C   UNL     1      51.574   4.798  19.250  0.00  0.00    +0.000 C 
BRANCH  23  24
ATOM     24  C   UNL     1      51.967   3.613  18.320  0.00  0.00    +0.000 C 
ATOM     25  C   UNL     1      50.722   2.831  17.861  0.00  0.00    +0.000 C 
ATOM     26  C   UNL     1      51.094   1.580  17.062  0.00  0.00    +0.000 C 
ATOM     27  C   UNL     1      52.144   0.753  17.800  0.00  0.00    +0.000 C 
ATOM     28  C   UNL     1      53.341   1.617  18.187  0.00  0.00    +0.000 C 
ATOM     29  N   UNL     1      52.902   2.723  19.026  0.00  0.00    +0.000 NA
ATOM     30  H   UNL     1      53.690   3.286  19.351  0.00  0.00    +0.000 HD
ENDBRANCH  23  24
ENDBRANCH  20  23
ENDBRANCH  16  17
ENDBRANCH   3  16
TORSDOF 5
ENDMDL
MODEL 7
REMARK VINA RESULT:    -7.218      3.208      8.508
REMARK INTER + INTRA:          -9.836
REMARK INTER:                  -8.961
REMARK INTRA:                  -0.874
REMARK UNBOUND:                -0.508
REMARK  Name = 
REMARK  5 active torsions:
REMARK  status: ('A' for Active; 'I' for Inactive)
REMARK    1  A    between atoms: C_2  and  C_18
REMARK    2  A    between atoms: N_3  and  C_4
REMARK    3  A    between atoms: C_4  and  C_5
REMARK    4  A    between atoms: N_8  and  C_9
REMARK    5  A    between atoms: C_9  and  C_10
REMARK                            x       y       z     vdW  Elec       q    Type
REMARK                         _______ _______ _______ _____ _____    ______ ____
ROOT
ATOM      1  O   UNL     1      43.844   7.494  11.354  0.00  0.00    +0.000 OA
ATOM      2  C   UNL     1      44.611   6.618  11.733  0.00  0.00    +0.000 C 
ATOM      3  N   UNL     1      45.741   6.879  12.484  0.00  0.00    +0.000 N 
ATOM      4  H   UNL     1      46.382   6.124  12.676  0.00  0.00    +0.000 HD
ENDROOT
BRANCH   2   5
ATOM      5  C   UNL     1      44.372   5.195  11.478  0.00  0.00    +0.000 A 
ATOM      6  C   UNL     1      43.622   4.387  12.320  0.00  0.00    +0.000 A 
ATOM      7  S   UNL     1      43.421   2.797  11.734  0.00  0.00    +0.000 S 
ATOM      8  C   UNL     1      44.310   3.142  10.325  0.00  0.00    +0.000 A 
ATOM      9  N   UNL     1      44.494   2.199   9.362  0.00  0.00    +0.000 NA
ATOM     10  C   UNL     1      45.166   2.610   8.339  0.00  0.00    +0.000 A 
ATOM     11  N   UNL     1      45.687   3.871   8.201  0.00  0.00    +0.000 N 
ATOM     12  C   UNL     1      45.615   4.826   9.193  0.00  0.00    +0.000 A 
ATOM     13  O   UNL     1      46.269   5.861   9.116  0.00  0.00    +0.000 OA
ATOM     14  C   UNL     1      44.788   4.438  10.320  0.00  0.00    +0.000 A 
ATOM     15  H   UNL     1      46.262   4.111   7.406  0.00  0.00    +0.000 HD
ENDBRANCH   2   5
BRANCH   3  16
ATOM     16  C   UNL     1      46.119   8.220  12.888  0.00  0.00    +0.000 C 
BRANCH  16  17
ATOM     17  C   UNL     1      47.409   8.705  12.203  0.00  0.00    +0.000 C 
ATOM     18  C   UNL     1      48.360   7.565  11.817  0.00  0.00    +0.000 C 
ATOM     19  C   UNL     1      48.949   6.859  13.040  0.00  0.00    +0.000 C 
ATOM     20  N   UNL     1      49.637   7.773  13.958  0.00  0.00    +0.000 NA
ATOM     21  C   UNL     1      48.857   8.978  14.292  0.00  0.00    +0.000 C 
ATOM     22  C   UNL     1      48.192   9.672  13.097  0.00  0.00    +0.000 C 
BRANCH  20  23
ATOM     23  C   UNL     1      50.030   7.082  15.222  0.00  0.00    +0.000 C 
BRANCH  23  24
ATOM     24  C   UNL     1      48.849   6.624  16.126  0.00  0.00    +0.000 C 
ATOM     25  C   UNL     1      48.976   7.212  17.545  0.00  0.00    +0.000 C 
ATOM     26  C   UNL     1      47.905   6.663  18.490  0.00  0.00    +0.000 C 
ATOM     27  C   UNL     1      47.845   5.140  18.421  0.00  0.00    +0.000 C 
ATOM     28  C   UNL     1      47.696   4.666  16.978  0.00  0.00    +0.000 C 
ATOM     29  N   UNL     1      48.812   5.155  16.180  0.00  0.00    +0.000 NA
ATOM     30  H   UNL     1      48.771   4.804  15.221  0.00  0.00    +0.000 HD
ENDBRANCH  23  24
ENDBRANCH  20  23
ENDBRANCH  16  17
ENDBRANCH   3  16
TORSDOF 5
ENDMDL
MODEL 8
REMARK VINA RESULT:    -7.102      3.172      9.423
REMARK INTER + INTRA:          -9.685
REMARK INTER:                  -8.784
REMARK INTRA:                  -0.901
REMARK UNBOUND:                -0.508
REMARK  Name = 
REMARK  5 active torsions:
REMARK  status: ('A' for Active; 'I' for Inactive)
REMARK    1  A    between atoms: C_2  and  C_18
REMARK    2  A    between atoms: N_3  and  C_4
REMARK    3  A    between atoms: C_4  and  C_5
REMARK    4  A    between atoms: N_8  and  C_9
REMARK    5  A    between atoms: C_9  and  C_10
REMARK                            x       y       z     vdW  Elec       q    Type
REMARK                         _______ _______ _______ _____ _____    ______ ____
ROOT
ATOM      1  O   UNL     1      48.761   6.271  13.157  0.00  0.00    +0.000 OA
ATOM      2  C   UNL     1      47.669   6.045  13.659  0.00  0.00    +0.000 C 
ATOM      3  N   UNL     1      47.498   5.780  15.004  0.00  0.00    +0.000 N 
ATOM      4  H   UNL     1      46.586   5.502  15.334  0.00  0.00    +0.000 HD
ENDROOT
BRANCH   2   5
ATOM      5  C   UNL     1      46.422   6.091  12.891  0.00  0.00    +0.000 A 
ATOM      6  C   UNL     1      45.865   7.270  12.418  0.00  0.00    +0.000 A 
ATOM      7  S   UNL     1      44.465   7.028  11.471  0.00  0.00    +0.000 S 
ATOM      8  C   UNL     1      44.571   5.339  11.645  0.00  0.00    +0.000 A 
ATOM      9  N   UNL     1      43.674   4.514  11.041  0.00  0.00    +0.000 NA
ATOM     10  C   UNL     1      43.892   3.257  11.239  0.00  0.00    +0.000 A 
ATOM     11  N   UNL     1      44.913   2.751  12.002  0.00  0.00    +0.000 N 
ATOM     12  C   UNL     1      45.784   3.549  12.715  0.00  0.00    +0.000 A 
ATOM     13  O   UNL     1      46.546   3.062  13.544  0.00  0.00    +0.000 OA
ATOM     14  C   UNL     1      45.633   4.966  12.446  0.00  0.00    +0.000 A 
ATOM     15  H   UNL     1      44.991   1.759  12.175  0.00  0.00    +0.000 HD
ENDBRANCH   2   5
BRANCH   3  16
ATOM     16  C   UNL     1      48.606   5.745  15.942  0.00  0.00    +0.000 C 
BRANCH  16  17
ATOM     17  C   UNL     1      48.525   4.553  16.912  0.00  0.00    +0.000 C 
ATOM     18  C   UNL     1      47.232   4.523  17.735  0.00  0.00    +0.000 C 
ATOM     19  C   UNL     1      47.145   5.687  18.725  0.00  0.00    +0.000 C 
ATOM     20  N   UNL     1      48.295   5.759  19.633  0.00  0.00    +0.000 NA
ATOM     21  C   UNL     1      49.597   5.662  18.950  0.00  0.00    +0.000 C 
ATOM     22  C   UNL     1      49.697   4.551  17.899  0.00  0.00    +0.000 C 
BRANCH  20  23
ATOM     23  C   UNL     1      48.266   7.008  20.450  0.00  0.00    +0.000 C 
BRANCH  23  24
ATOM     24  C   UNL     1      47.538   8.218  19.794  0.00  0.00    +0.000 C 
ATOM     25  C   UNL     1      48.455   8.937  18.786  0.00  0.00    +0.000 C 
ATOM     26  C   UNL     1      47.811  10.211  18.235  0.00  0.00    +0.000 C 
ATOM     27  C   UNL     1      47.275  11.086  19.365  0.00  0.00    +0.000 C 
ATOM     28  C   UNL     1      46.363  10.283  20.287  0.00  0.00    +0.000 C 
ATOM     29  N   UNL     1      47.092   9.150  20.840  0.00  0.00    +0.000 NA
ATOM     30  H   UNL     1      46.524   8.626  21.510  0.00  0.00    +0.000 HD
ENDBRANCH  23  24
ENDBRANCH  20  23
ENDBRANCH  16  17
ENDBRANCH   3  16
TORSDOF 5
ENDMDL
MODEL 9
REMARK VINA RESULT:    -6.967      3.153      8.976
REMARK INTER + INTRA:          -9.511
REMARK INTER:                  -8.602
REMARK INTRA:                  -0.909
REMARK UNBOUND:                -0.508
REMARK  Name = 
REMARK  5 active torsions:
REMARK  status: ('A' for Active; 'I' for Inactive)
REMARK    1  A    between atoms: C_2  and  C_18
REMARK    2  A    between atoms: N_3  and  C_4
REMARK    3  A    between atoms: C_4  and  C_5
REMARK    4  A    between atoms: N_8  and  C_9
REMARK    5  A    between atoms: C_9  and  C_10
REMARK                            x       y       z     vdW  Elec       q    Type
REMARK                         _______ _______ _______ _____ _____    ______ ____
ROOT
ATOM      1  O   UNL     1      48.621   6.196  13.299  0.00  0.00    +0.000 OA
ATOM      2  C   UNL     1      47.494   5.915  13.685  0.00  0.00    +0.000 C 
ATOM      3  N   UNL     1      47.224   5.476  14.966  0.00  0.00    +0.000 N 
ATOM      4  H   UNL     1      46.290   5.165  15.187  0.00  0.00    +0.000 HD
ENDROOT
BRANCH   2   5
ATOM      5  C   UNL     1      46.309   6.075  12.839  0.00  0.00    +0.000 A 
ATOM      6  C   UNL     1      45.839   7.309  12.414  0.00  0.00    +0.000 A 
ATOM      7  S   UNL     1      44.501   7.200  11.360  0.00  0.00    +0.000 S 
ATOM      8  C   UNL     1      44.520   5.500  11.419  0.00  0.00    +0.000 A 
ATOM      9  N   UNL     1      43.632   4.763  10.699  0.00  0.00    +0.000 NA
ATOM     10  C   UNL     1      43.780   3.487  10.821  0.00  0.00    +0.000 A 
ATOM     11  N   UNL     1      44.721   2.881  11.613  0.00  0.00    +0.000 N 
ATOM     12  C   UNL     1      45.574   3.584  12.439  0.00  0.00    +0.000 A 
ATOM     13  O   UNL     1      46.252   3.006  13.280  0.00  0.00    +0.000 OA
ATOM     14  C   UNL     1      45.505   5.022  12.262  0.00  0.00    +0.000 A 
ATOM     15  H   UNL     1      44.743   1.877  11.720  0.00  0.00    +0.000 HD
ENDBRANCH   2   5
BRANCH   3  16
ATOM     16  C   UNL     1      48.258   5.307  15.970  0.00  0.00    +0.000 C 
BRANCH  16  17
ATOM     17  C   UNL     1      47.780   4.489  17.183  0.00  0.00    +0.000 C 
ATOM     18  C   UNL     1      47.814   5.273  18.500  0.00  0.00    +0.000 C 
ATOM     19  C   UNL     1      49.241   5.606  18.941  0.00  0.00    +0.000 C 
ATOM     20  N   UNL     1      50.099   4.423  19.060  0.00  0.00    +0.000 NA
ATOM     21  C   UNL     1      50.038   3.525  17.892  0.00  0.00    +0.000 C 
ATOM     22  C   UNL     1      48.625   3.226  17.378  0.00  0.00    +0.000 C 
BRANCH  20  23
ATOM     23  C   UNL     1      51.521   4.804  19.307  0.00  0.00    +0.000 C 
BRANCH  23  24
ATOM     24  C   UNL     1      52.430   4.842  18.043  0.00  0.00    +0.000 C 
ATOM     25  C   UNL     1      53.831   4.279  18.350  0.00  0.00    +0.000 C 
ATOM     26  C   UNL     1      54.784   4.436  17.163  0.00  0.00    +0.000 C 
ATOM     27  C   UNL     1      54.761   5.867  16.630  0.00  0.00    +0.000 C 
ATOM     28  C   UNL     1      53.332   6.315  16.339  0.00  0.00    +0.000 C 
ATOM     29  N   UNL     1      52.528   6.224  17.549  0.00  0.00    +0.000 NA
ATOM     30  H   UNL     1      51.580   6.574  17.400  0.00  0.00    +0.000 HD
ENDBRANCH  23  24
ENDBRANCH  20  23
ENDBRANCH  16  17
ENDBRANCH   3  16
TORSDOF 5
ENDMDL
