MODEL 1
REMARK VINA RESULT:    -7.079      0.000      0.000
REMARK INTER + INTRA:          -9.878
REMARK INTER:                  -9.356
REMARK INTRA:                  -0.522
REMARK UNBOUND:                -0.522
REMARK  Name = 
REMARK  6 active torsions:
REMARK  status: ('A' for Active; 'I' for Inactive)
REMARK    1  A    between atoms: N_1  and  C_2
REMARK    2  A    between atoms: C_2  and  C_3
REMARK    3  A    between atoms: C_3  and  C_4
REMARK    4  A    between atoms: C_7  and  O_8
REMARK    5  A    between atoms: O_8  and  C_9
REMARK    6  A    between atoms: C_9  and  C_10
REMARK                            x       y       z     vdW  Elec       q    Type
REMARK                         _______ _______ _______ _____ _____    ______ ____
ROOT
ATOM      1  C   UNL     1      45.614   2.933   7.769  0.00  0.00    +0.000 A 
ATOM      2  C   UNL     1      45.135   4.214   8.062  0.00  0.00    +0.000 A 
ATOM      3  C   UNL     1      44.404   4.443   9.228  0.00  0.00    +0.000 A 
ATOM      4  C   UNL     1      44.161   3.400  10.125  0.00  0.00    +0.000 A 
ATOM      5  C   UNL     1      44.581   2.108   9.810  0.00  0.00    +0.000 A 
ATOM      6  C   UNL     1      45.303   1.886   8.641  0.00  0.00    +0.000 A 
ATOM      7  F   UNL     1      45.717   0.641   8.362  0.00  0.00    +0.000 F 
ENDROOT
BRANCH   1   8
ATOM      8  C   UNL     1      46.434   2.699   6.529  0.00  0.00    +0.000 C 
BRANCH   8   9
ATOM      9  C   UNL     1      47.904   2.431   6.860  0.00  0.00    +0.000 C 
BRANCH   9  10
ATOM     10  N   UNL     1      48.591   1.828   5.719  0.00  0.00    +0.000 NA
ATOM     11  H   UNL     1      49.242   2.507   5.325  0.00  0.00    +0.000 HD
ATOM     12  H   UNL     1      47.913   1.628   4.984  0.00  0.00    +0.000 HD
ENDBRANCH   9  10
ENDBRANCH   8   9
ENDBRANCH   1   8
BRANCH   4  13
ATOM     13  O   UNL     1      43.526   3.542  11.331  0.00  0.00    +0.000 OA
BRANCH  13  14
ATOM     14  C   UNL     1      44.347   3.289  12.475  0.00  0.00    +0.000 C 
BRANCH  14  15
ATOM     15  C   UNL     1      45.151   4.510  12.811  0.00  0.00    +0.000 A 
ATOM     16  C   UNL     1      46.495   4.418  13.181  0.00  0.00    +0.000 A 
ATOM     17  C   UNL     1      47.229   5.577  13.409  0.00  0.00    +0.000 A 
ATOM     18  C   UNL     1      46.589   6.796  13.256  0.00  0.00    +0.000 A 
ATOM     19  N   UNL     1      45.295   6.926  12.898  0.00  0.00    +0.000 NA
ATOM     20  C   UNL     1      44.605   5.783  12.683  0.00  0.00    +0.000 A 
ENDBRANCH  14  15
ENDBRANCH  13  14
ENDBRANCH   4  13
TORSDOF 6
ENDMDL
MODEL 2
REMARK VINA RESULT:    -6.926      1.332      1.800
REMARK INTER + INTRA:          -9.675
REMARK INTER:                  -9.345
REMARK INTRA:                  -0.330
REMARK UNBOUND:                -0.522
REMARK  Name = 
REMARK  6 active torsions:
REMARK  status: ('A' for Active; 'I' for Inactive)
REMARK    1  A    between atoms: N_1  and  C_2
REMARK    2  A    between atoms: C_2  and  C_3
REMARK    3  A    between atoms: C_3  and  C_4
REMARK    4  A    between atoms: C_7  and  O_8
REMARK    5  A    between atoms: O_8  and  C_9
REMARK    6  A    between atoms: C_9  and  C_10
REMARK                            x       y       z     vdW  Elec       q    Type
REMARK                         _______ _______ _______ _____ _____    ______ ____
ROOT
ATOM      1  C   UNL     1      46.115   2.406   8.024  0.00  0.00    +0.000 A 
ATOM      2  C   UNL     1      45.185   1.750   8.837  0.00  0.00    +0.000 A 
ATOM      3  C   UNL     1      44.314   2.484   9.644  0.00  0.00    +0.000 A 
ATOM      4  C   UNL     1      44.347   3.881   9.631  0.00  0.00    +0.000 A 
ATOM      5  C   UNL     1      45.312   4.540   8.871  0.00  0.00    +0.000 A 
ATOM      6  C   UNL     1      46.183   3.801   8.075  0.00  0.00    +0.000 A 
ATOM      7  F   UNL     1      47.092   4.451   7.334  0.00  0.00    +0.000 F 
ENDROOT
BRANCH   1   8
ATOM      8  C   UNL     1      47.026   1.612   7.128  0.00  0.00    +0.000 C 
BRANCH   8   9
ATOM      9  C   UNL     1      47.055   2.173   5.705  0.00  0.00    +0.000 C 
BRANCH   9  10
ATOM     10  N   UNL     1      48.426   2.229   5.197  0.00  0.00    +0.000 NA
ATOM     11  H   UNL     1      48.449   1.844   4.254  0.00  0.00    +0.000 HD
ATOM     12  H   UNL     1      49.020   1.623   5.763  0.00  0.00    +0.000 HD
ENDBRANCH   9  10
ENDBRANCH   8   9
ENDBRANCH   1   8
BRANCH   4  13
ATOM     13  O   UNL     1      43.481   4.686  10.324  0.00  0.00    +0.000 OA
BRANCH  13  14
ATOM     14  C   UNL     1      43.356   4.377  11.715  0.00  0.00    +0.000 C 
BRANCH  14  15
ATOM     15  C   UNL     1      44.615   4.752  12.439  0.00  0.00    +0.000 A 
ATOM     16  C   UNL     1      45.481   3.780  12.946  0.00  0.00    +0.000 A 
ATOM     17  C   UNL     1      46.677   4.165  13.543  0.00  0.00    +0.000 A 
ATOM     18  C   UNL     1      46.968   5.518  13.609  0.00  0.00    +0.000 A 
ATOM     19  N   UNL     1      46.160   6.485  13.130  0.00  0.00    +0.000 NA
ATOM     20  C   UNL     1      45.003   6.083  12.556  0.00  0.00    +0.000 A 
ENDBRANCH  14  15
ENDBRANCH  13  14
ENDBRANCH   4  13
TORSDOF 6
ENDMDL
MODEL 3
REMARK VINA RESULT:    -6.814      2.483      6.222
REMARK INTER + INTRA:          -9.526
REMARK INTER:                  -9.046
REMARK INTRA:                  -0.480
REMARK UNBOUND:                -0.522
REMARK  Name = 
REMARK  6 active torsions:
REMARK  status: ('A' for Active; 'I' for Inactive)
REMARK    1  A    between atoms: N_1  and  C_2
REMARK    2  A    between atoms: C_2  and  C_3
REMARK    3  A    between atoms: C_3  and  C_4
REMARK    4  A    between atoms: C_7  and  O_8
REMARK    5  A    between atoms: O_8  and  C_9
REMARK    6  A    between atoms: C_9  and  C_10
REMARK                            x       y       z     vdW  Elec       q    Type
REMARK                         _______ _______ _______ _____ _____    ______ ____
ROOT
ATOM      1  C   UNL     1      46.483   5.724  12.885  0.00  0.00    +0.000 A 
ATOM      2  C   UNL     1      46.137   4.410  13.214  0.00  0.00    +0.000 A 
ATOM      3  C   UNL     1      45.358   3.647  12.342  0.00  0.00    +0.000 A 
ATOM      4  C   UNL     1      44.935   4.182  11.122  0.00  0.00    +0.000 A 
ATOM      5  C   UNL     1      45.222   5.511  10.816  0.00  0.00    +0.000 A 
ATOM      6  C   UNL     1      45.992   6.268  11.694  0.00  0.00    +0.000 A 
ATOM      7  F   UNL     1      46.277   7.539  11.376  0.00  0.00    +0.000 F 
ENDROOT
BRANCH   1   8
ATOM      8  C   UNL     1      47.353   6.530  13.811  0.00  0.00    +0.000 C 
BRANCH   8   9
ATOM      9  C   UNL     1      48.743   6.773  13.219  0.00  0.00    +0.000 C 
BRANCH   9  10
ATOM     10  N   UNL     1      49.749   6.864  14.276  0.00  0.00    +0.000 NA
ATOM     11  H   UNL     1      49.768   7.817  14.637  0.00  0.00    +0.000 HD
ATOM     12  H   UNL     1      50.673   6.695  13.878  0.00  0.00    +0.000 HD
ENDBRANCH   9  10
ENDBRANCH   8   9
ENDBRANCH   1   8
BRANCH   4  13
ATOM     13  O   UNL     1      44.240   3.487  10.167  0.00  0.00    +0.000 OA
BRANCH  13  14
ATOM     14  C   UNL     1      44.479   3.912   8.823  0.00  0.00    +0.000 C 
BRANCH  14  15
ATOM     15  C   UNL     1      45.491   3.014   8.174  0.00  0.00    +0.000 A 
ATOM     16  C   UNL     1      46.411   3.506   7.244  0.00  0.00    +0.000 A 
ATOM     17  C   UNL     1      47.384   2.660   6.722  0.00  0.00    +0.000 A 
ATOM     18  C   UNL     1      47.405   1.343   7.153  0.00  0.00    +0.000 A 
ATOM     19  N   UNL     1      46.536   0.832   8.050  0.00  0.00    +0.000 NA
ATOM     20  C   UNL     1      45.600   1.677   8.541  0.00  0.00    +0.000 A 
ENDBRANCH  14  15
ENDBRANCH  13  14
ENDBRANCH   4  13
TORSDOF 6
ENDMDL
MODEL 4
REMARK VINA RESULT:    -6.743      2.303      6.416
REMARK INTER + INTRA:          -9.433
REMARK INTER:                  -9.068
REMARK INTRA:                  -0.365
REMARK UNBOUND:                -0.522
REMARK  Name = 
REMARK  6 active torsions:
REMARK  status: ('A' for Active; 'I' for Inactive)
REMARK    1  A    between atoms: N_1  and  C_2
REMARK    2  A    between atoms: C_2  and  C_3
REMARK    3  A    between atoms: C_3  and  C_4
REMARK    4  A    between atoms: C_7  and  O_8
REMARK    5  A    between atoms: O_8  and  C_9
REMARK    6  A    between atoms: C_9  and  C_10
REMARK                            x       y       z     vdW  Elec       q    Type
REMARK                         _______ _______ _______ _____ _____    ______ ____
ROOT
ATOM      1  C   UNL     1      44.806   6.131  11.897  0.00  0.00    +0.000 A 
ATOM      2  C   UNL     1      45.662   6.094  10.792  0.00  0.00    +0.000 A 
ATOM      3  C   UNL     1      45.534   5.086   9.835  0.00  0.00    +0.000 A 
ATOM      4  C   UNL     1      44.536   4.117   9.960  0.00  0.00    +0.000 A 
ATOM      5  C   UNL     1      43.720   4.110  11.089  0.00  0.00    +0.000 A 
ATOM      6  C   UNL     1      43.859   5.114  12.044  0.00  0.00    +0.000 A 
ATOM      7  F   UNL     1      43.052   5.105  13.116  0.00  0.00    +0.000 F 
ENDROOT
BRANCH   1   8
ATOM      8  C   UNL     1      44.924   7.241  12.906  0.00  0.00    +0.000 C 
BRANCH   8   9
ATOM      9  C   UNL     1      46.182   8.082  12.682  0.00  0.00    +0.000 C 
BRANCH   9  10
ATOM     10  N   UNL     1      46.579   8.761  13.915  0.00  0.00    +0.000 NA
ATOM     11  H   UNL     1      47.408   9.326  13.733  0.00  0.00    +0.000 HD
ATOM     12  H   UNL     1      46.857   8.067  14.608  0.00  0.00    +0.000 HD
ENDBRANCH   9  10
ENDBRANCH   8   9
ENDBRANCH   1   8
BRANCH   4  13
ATOM     13  O   UNL     1      44.280   3.139   9.034  0.00  0.00    +0.000 OA
BRANCH  13  14
ATOM     14  C   UNL     1      45.209   2.052   9.037  0.00  0.00    +0.000 C 
BRANCH  14  15
ATOM     15  C   UNL     1      46.085   2.122   7.821  0.00  0.00    +0.000 A 
ATOM     16  C   UNL     1      45.984   3.178   6.911  0.00  0.00    +0.000 A 
ATOM     17  C   UNL     1      46.866   3.251   5.838  0.00  0.00    +0.000 A 
ATOM     18  C   UNL     1      47.826   2.260   5.712  0.00  0.00    +0.000 A 
ATOM     19  N   UNL     1      47.956   1.227   6.570  0.00  0.00    +0.000 NA
ATOM     20  C   UNL     1      47.086   1.181   7.604  0.00  0.00    +0.000 A 
ENDBRANCH  14  15
ENDBRANCH  13  14
ENDBRANCH   4  13
TORSDOF 6
ENDMDL
MODEL 5
REMARK VINA RESULT:    -6.001      1.978      2.523
REMARK INTER + INTRA:          -8.453
REMARK INTER:                  -8.046
REMARK INTRA:                  -0.407
REMARK UNBOUND:                -0.522
REMARK  Name = 
REMARK  6 active torsions:
REMARK  status: ('A' for Active; 'I' for Inactive)
REMARK    1  A    between atoms: N_1  and  C_2
REMARK    2  A    between atoms: C_2  and  C_3
REMARK    3  A    between atoms: C_3  and  C_4
REMARK    4  A    between atoms: C_7  and  O_8
REMARK    5  A    between atoms: O_8  and  C_9
REMARK    6  A    between atoms: C_9  and  C_10
REMARK                            x       y       z     vdW  Elec       q    Type
REMARK                         _______ _______ _______ _____ _____    ______ ____
ROOT
ATOM      1  C   UNL     1      45.762   2.815   7.951  0.00  0.00    +0.000 A 
ATOM      2  C   UNL     1      46.097   4.172   7.991  0.00  0.00    +0.000 A 
ATOM      3  C   UNL     1      45.626   4.984   9.024  0.00  0.00    +0.000 A 
ATOM      4  C   UNL     1      44.833   4.445  10.040  0.00  0.00    +0.000 A 
ATOM      5  C   UNL     1      44.444   3.108   9.974  0.00  0.00    +0.000 A 
ATOM      6  C   UNL     1      44.911   2.306   8.936  0.00  0.00    +0.000 A 
ATOM      7  F   UNL     1      44.543   1.017   8.898  0.00  0.00    +0.000 F 
ENDROOT
BRANCH   1   8
ATOM      8  C   UNL     1      46.303   1.936   6.856  0.00  0.00    +0.000 C 
BRANCH   8   9
ATOM      9  C   UNL     1      47.453   1.055   7.349  0.00  0.00    +0.000 C 
BRANCH   9  10
ATOM     10  N   UNL     1      46.971  -0.281   7.696  0.00  0.00    +0.000 NA
ATOM     11  H   UNL     1      46.448  -0.231   8.569  0.00  0.00    +0.000 HD
ATOM     12  H   UNL     1      47.768  -0.890   7.879  0.00  0.00    +0.000 HD
ENDBRANCH   9  10
ENDBRANCH   8   9
ENDBRANCH   1   8
BRANCH   4  13
ATOM     13  O   UNL     1      44.393   5.140  11.135  0.00  0.00    +0.000 OA
BRANCH  13  14
ATOM     14  C   UNL     1      45.429   5.705  11.944  0.00  0.00    +0.000 C 
BRANCH  14  15
ATOM     15  C   UNL     1      45.334   7.202  11.928  0.00  0.00    +0.000 A 
ATOM     16  C   UNL     1      44.411   7.864  11.114  0.00  0.00    +0.000 A 
ATOM     17  C   UNL     1      44.298   9.249  11.182  0.00  0.00    +0.000 A 
ATOM     18  C   UNL     1      45.116   9.927  12.073  0.00  0.00    +0.000 A 
ATOM     19  N   UNL     1      46.016   9.324  12.876  0.00  0.00    +0.000 NA
ATOM     20  C   UNL     1      46.105   7.978  12.788  0.00  0.00    +0.000 A 
ENDBRANCH  14  15
ENDBRANCH  13  14
ENDBRANCH   4  13
TORSDOF 6
ENDMDL
MODEL 6
REMARK VINA RESULT:    -5.797      2.537      6.247
REMARK INTER + INTRA:          -8.183
REMARK INTER:                  -7.666
REMARK INTRA:                  -0.518
REMARK UNBOUND:                -0.522
REMARK  Name = 
REMARK  6 active torsions:
REMARK  status: ('A' for Active; 'I' for Inactive)
REMARK    1  A    between atoms: N_1  and  C_2
REMARK    2  A    between atoms: C_2  and  C_3
REMARK    3  A    between atoms: C_3  and  C_4
REMARK    4  A    between atoms: C_7  and  O_8
REMARK    5  A    between atoms: O_8  and  C_9
REMARK    6  A    between atoms: C_9  and  C_10
REMARK                            x       y       z     vdW  Elec       q    Type
REMARK                         _______ _______ _______ _____ _____    ______ ____
ROOT
ATOM      1  C   UNL     1      46.842   7.588  12.211  0.00  0.00    +0.000 A 
ATOM      2  C   UNL     1      45.556   7.857  11.731  0.00  0.00    +0.000 A 
ATOM      3  C   UNL     1      44.662   6.812  11.492  0.00  0.00    +0.000 A 
ATOM      4  C   UNL     1      45.035   5.491  11.749  0.00  0.00    +0.000 A 
ATOM      5  C   UNL     1      46.335   5.210  12.166  0.00  0.00    +0.000 A 
ATOM      6  C   UNL     1      47.224   6.257  12.396  0.00  0.00    +0.000 A 
ATOM      7  F   UNL     1      48.465   5.972  12.817  0.00  0.00    +0.000 F 
ENDROOT
BRANCH   1   8
ATOM      8  C   UNL     1      47.790   8.721  12.503  0.00  0.00    +0.000 C 
BRANCH   8   9
ATOM      9  C   UNL     1      48.242   8.721  13.965  0.00  0.00    +0.000 C 
BRANCH   9  10
ATOM     10  N   UNL     1      47.110   8.966  14.858  0.00  0.00    +0.000 NA
ATOM     11  H   UNL     1      47.300   9.797  15.417  0.00  0.00    +0.000 HD
ATOM     12  H   UNL     1      47.031   8.194  15.520  0.00  0.00    +0.000 HD
ENDBRANCH   9  10
ENDBRANCH   8   9
ENDBRANCH   1   8
BRANCH   4  13
ATOM     13  O   UNL     1      44.203   4.409  11.623  0.00  0.00    +0.000 OA
BRANCH  13  14
ATOM     14  C   UNL     1      43.590   4.269  10.338  0.00  0.00    +0.000 C 
BRANCH  14  15
ATOM     15  C   UNL     1      44.526   3.571   9.396  0.00  0.00    +0.000 A 
ATOM     16  C   UNL     1      45.258   4.279   8.439  0.00  0.00    +0.000 A 
ATOM     17  C   UNL     1      46.174   3.609   7.635  0.00  0.00    +0.000 A 
ATOM     18  C   UNL     1      46.330   2.245   7.821  0.00  0.00    +0.000 A 
ATOM     19  N   UNL     1      45.645   1.527   8.735  0.00  0.00    +0.000 NA
ATOM     20  C   UNL     1      44.761   2.204   9.502  0.00  0.00    +0.000 A 
ENDBRANCH  14  15
ENDBRANCH  13  14
ENDBRANCH   4  13
TORSDOF 6
ENDMDL
MODEL 7
REMARK VINA RESULT:    -5.447      2.233      3.241
REMARK INTER + INTRA:          -7.721
REMARK INTER:                  -7.411
REMARK INTRA:                  -0.310
REMARK UNBOUND:                -0.522
REMARK  Name = 
REMARK  6 active torsions:
REMARK  status: ('A' for Active; 'I' for Inactive)
REMARK    1  A    between atoms: N_1  and  C_2
REMARK    2  A    between atoms: C_2  and  C_3
REMARK    3  A    between atoms: C_3  and  C_4
REMARK    4  A    between atoms: C_7  and  O_8
REMARK    5  A    between atoms: O_8  and  C_9
REMARK    6  A    between atoms: C_9  and  C_10
REMARK                            x       y       z     vdW  Elec       q    Type
REMARK                         _______ _______ _______ _____ _____    ______ ____
ROOT
ATOM      1  C   UNL     1      44.595   3.451   9.832  0.00  0.00    +0.000 A 
ATOM      2  C   UNL     1      45.293   4.637   9.581  0.00  0.00    +0.000 A 
ATOM      3  C   UNL     1      45.398   5.615  10.572  0.00  0.00    +0.000 A 
ATOM      4  C   UNL     1      44.825   5.410  11.830  0.00  0.00    +0.000 A 
ATOM      5  C   UNL     1      44.075   4.260  12.066  0.00  0.00    +0.000 A 
ATOM      6  C   UNL     1      43.968   3.292  11.070  0.00  0.00    +0.000 A 
ATOM      7  F   UNL     1      43.259   2.181  11.320  0.00  0.00    +0.000 F 
ENDROOT
BRANCH   1   8
ATOM      8  C   UNL     1      44.516   2.384   8.773  0.00  0.00    +0.000 C 
BRANCH   8   9
ATOM      9  C   UNL     1      45.879   1.739   8.515  0.00  0.00    +0.000 C 
BRANCH   9  10
ATOM     10  N   UNL     1      46.501   2.302   7.317  0.00  0.00    +0.000 NA
ATOM     11  H   UNL     1      45.823   2.890   6.833  0.00  0.00    +0.000 HD
ATOM     12  H   UNL     1      46.733   1.548   6.671  0.00  0.00    +0.000 HD
ENDBRANCH   9  10
ENDBRANCH   8   9
ENDBRANCH   1   8
BRANCH   4  13
ATOM     13  O   UNL     1      44.944   6.272  12.888  0.00  0.00    +0.000 OA
BRANCH  13  14
ATOM     14  C   UNL     1      45.536   7.535  12.571  0.00  0.00    +0.000 C 
BRANCH  14  15
ATOM     15  C   UNL     1      47.025   7.460  12.737  0.00  0.00    +0.000 A 
ATOM     16  C   UNL     1      47.886   8.218  11.940  0.00  0.00    +0.000 A 
ATOM     17  C   UNL     1      49.256   8.181  12.174  0.00  0.00    +0.000 A 
ATOM     18  C   UNL     1      49.721   7.385  13.209  0.00  0.00    +0.000 A 
ATOM     19  N   UNL     1      48.922   6.641  14.002  0.00  0.00    +0.000 NA
ATOM     20  C   UNL     1      47.594   6.695  13.750  0.00  0.00    +0.000 A 
ENDBRANCH  14  15
ENDBRANCH  13  14
ENDBRANCH   4  13
TORSDOF 6
ENDMDL
MODEL 8
REMARK VINA RESULT:    -5.227      3.763      4.909
REMARK INTER + INTRA:          -7.430
REMARK INTER:                  -6.971
REMARK INTRA:                  -0.459
REMARK UNBOUND:                -0.522
REMARK  Name = 
REMARK  6 active torsions:
REMARK  status: ('A' for Active; 'I' for Inactive)
REMARK    1  A    between atoms: N_1  and  C_2
REMARK    2  A    between atoms: C_2  and  C_3
REMARK    3  A    between atoms: C_3  and  C_4
REMARK    4  A    between atoms: C_7  and  O_8
REMARK    5  A    between atoms: O_8  and  C_9
REMARK    6  A    between atoms: C_9  and  C_10
REMARK                            x       y       z     vdW  Elec       q    Type
REMARK                         _______ _______ _______ _____ _____    ______ ____
ROOT
ATOM      1  C   UNL     1      44.916   4.870  11.118  0.00  0.00    +0.000 A 
ATOM      2  C   UNL     1      45.754   5.986  11.211  0.00  0.00    +0.000 A 
ATOM      3  C   UNL     1      46.629   6.121  12.290  0.00  0.00    +0.000 A 
ATOM      4  C   UNL     1      46.694   5.132  13.275  0.00  0.00    +0.000 A 
ATOM      5  C   UNL     1      45.819   4.049  13.222  0.00  0.00    +0.000 A 
ATOM      6  C   UNL     1      44.942   3.925  12.147  0.00  0.00    +0.000 A 
ATOM      7  F   UNL     1      44.120   2.866  12.100  0.00  0.00    +0.000 F 
ENDROOT
BRANCH   1   8
ATOM      8  C   UNL     1      44.001   4.711   9.934  0.00  0.00    +0.000 C 
BRANCH   8   9
ATOM      9  C   UNL     1      44.658   3.906   8.811  0.00  0.00    +0.000 C 
BRANCH   9  10
ATOM     10  N   UNL     1      44.185   2.522   8.819  0.00  0.00    +0.000 NA
ATOM     11  H   UNL     1      44.084   2.210   9.785  0.00  0.00    +0.000 HD
ATOM     12  H   UNL     1      44.895   1.920   8.401  0.00  0.00    +0.000 HD
ENDBRANCH   9  10
ENDBRANCH   8   9
ENDBRANCH   1   8
BRANCH   4  13
ATOM     13  O   UNL     1      47.575   5.135  14.324  0.00  0.00    +0.000 OA
BRANCH  13  14
ATOM     14  C   UNL     1      47.175   4.344  15.446  0.00  0.00    +0.000 C 
BRANCH  14  15
ATOM     15  C   UNL     1      48.065   4.630  16.619  0.00  0.00    +0.000 A 
ATOM     16  C   UNL     1      48.169   3.737  17.689  0.00  0.00    +0.000 A 
ATOM     17  C   UNL     1      49.063   3.999  18.722  0.00  0.00    +0.000 A 
ATOM     18  C   UNL     1      49.830   5.150  18.647  0.00  0.00    +0.000 A 
ATOM     19  N   UNL     1      49.760   6.034  17.630  0.00  0.00    +0.000 NA
ATOM     20  C   UNL     1      48.882   5.755  16.640  0.00  0.00    +0.000 A 
ENDBRANCH  14  15
ENDBRANCH  13  14
ENDBRANCH   4  13
TORSDOF 6
ENDMDL
MODEL 9
REMARK VINA RESULT:    -5.176      3.163      6.893
REMARK INTER + INTRA:          -7.363
REMARK INTER:                  -6.906
REMARK INTRA:                  -0.457
REMARK UNBOUND:                -0.522
REMARK  Name = 
REMARK  6 active torsions:
REMARK  status: ('A' for Active; 'I' for Inactive)
REMARK    1  A    between atoms: N_1  and  C_2
REMARK    2  A    between atoms: C_2  and  C_3
REMARK    3  A    between atoms: C_3  and  C_4
REMARK    4  A    between atoms: C_7  and  O_8
REMARK    5  A    between atoms: O_8  and  C_9
REMARK    6  A    between atoms: C_9  and  C_10
REMARK                            x       y       z     vdW  Elec       q    Type
REMARK                         _______ _______ _______ _____ _____    ______ ____
ROOT
ATOM      1  C   UNL     1      47.971   6.988  13.643  0.00  0.00    +0.000 A 
ATOM      2  C   UNL     1      47.454   5.688  13.640  0.00  0.00    +0.000 A 
ATOM      3  C   UNL     1      46.359   5.367  12.836  0.00  0.00    +0.000 A 
ATOM      4  C   UNL     1      45.782   6.335  12.011  0.00  0.00    +0.000 A 
ATOM      5  C   UNL     1      46.250   7.647  12.055  0.00  0.00    +0.000 A 
ATOM      6  C   UNL     1      47.338   7.962  12.866  0.00  0.00    +0.000 A 
ATOM      7  F   UNL     1      47.790   9.224  12.882  0.00  0.00    +0.000 F 
ENDROOT
BRANCH   1   8
ATOM      8  C   UNL     1      49.175   7.319  14.483  0.00  0.00    +0.000 C 
BRANCH   8   9
ATOM      9  C   UNL     1      48.841   7.330  15.976  0.00  0.00    +0.000 C 
BRANCH   9  10
ATOM     10  N   UNL     1      48.074   8.524  16.328  0.00  0.00    +0.000 NA
ATOM     11  H   UNL     1      48.250   9.250  15.634  0.00  0.00    +0.000 HD
ATOM     12  H   UNL     1      48.414   8.894  17.215  0.00  0.00    +0.000 HD
ENDBRANCH   9  10
ENDBRANCH   8   9
ENDBRANCH   1   8
BRANCH   4  13
ATOM     13  O   UNL     1      44.760   6.097  11.129  0.00  0.00    +0.000 OA
BRANCH  13  14
ATOM     14  C   UNL     1      44.319   4.737  11.074  0.00  0.00    +0.000 C 
BRANCH  14  15
ATOM     15  C   UNL     1      44.954   4.039   9.908  0.00  0.00    +0.000 A 
ATOM     16  C   UNL     1      44.939   2.646   9.798  0.00  0.00    +0.000 A 
ATOM     17  C   UNL     1      45.468   2.037   8.665  0.00  0.00    +0.000 A 
ATOM     18  C   UNL     1      45.995   2.849   7.673  0.00  0.00    +0.000 A 
ATOM     19  N   UNL     1      46.026   4.196   7.742  0.00  0.00    +0.000 NA
ATOM     20  C   UNL     1      45.505   4.761   8.855  0.00  0.00    +0.000 A 
ENDBRANCH  14  15
ENDBRANCH  13  14
ENDBRANCH   4  13
TORSDOF 6
ENDMDL
