MODEL 1
REMARK VINA RESULT:    -8.991      0.000      0.000
REMARK INTER + INTRA:         -12.344
REMARK INTER:                 -11.619
REMARK INTRA:                  -0.725
REMARK UNBOUND:                -0.725
REMARK  Name = 
REMARK  5 active torsions:
REMARK  status: ('A' for Active; 'I' for Inactive)
REMARK    1  A    between atoms: C_2  and  C_4
REMARK    2  A    between atoms: C_7  and  O_8
REMARK    3  A    between atoms: O_8  and  C_9
REMARK    4  A    between atoms: C_9  and  C_10
REMARK    5  A    between atoms: C_15  and  C_16
REMARK                            x       y       z     vdW  Elec       q    Type
REMARK                         _______ _______ _______ _____ _____    ______ ____
ROOT
ATOM      1  C   UNL     1      43.669   4.317  11.223  0.00  0.00    +0.000 C 
ENDROOT
BRANCH   1   2
ATOM      2  C   UNL     1      44.957   4.717  11.908  0.00  0.00    +0.000 A 
ATOM      3  C   UNL     1      45.552   3.852  12.829  0.00  0.00    +0.000 A 
ATOM      4  C   UNL     1      46.696   4.251  13.505  0.00  0.00    +0.000 A 
ATOM      5  F   UNL     1      47.265   3.415  14.385  0.00  0.00    +0.000 F 
ATOM      6  C   UNL     1      47.257   5.509  13.299  0.00  0.00    +0.000 A 
ATOM      7  C   UNL     1      46.683   6.413  12.390  0.00  0.00    +0.000 A 
ATOM      8  C   UNL     1      45.528   5.987  11.703  0.00  0.00    +0.000 A 
BRANCH   7   9
ATOM      9  C   UNL     1      47.252   7.760  12.165  0.00  0.00    +0.000 A 
ATOM     10  C   UNL     1      48.579   7.956  11.756  0.00  0.00    +0.000 A 
ATOM     11  C   UNL     1      49.081   9.243  11.555  0.00  0.00    +0.000 A 
ATOM     12  C   UNL     1      48.235  10.319  11.757  0.00  0.00    +0.000 A 
ATOM     13  N   UNL     1      46.953  10.191  12.146  0.00  0.00    +0.000 NA
ATOM     14  C   UNL     1      46.502   8.927  12.344  0.00  0.00    +0.000 A 
ENDBRANCH   7   9
ENDBRANCH   1   2
BRANCH   1  15
ATOM     15  O   UNL     1      43.701   4.691   9.841  0.00  0.00    +0.000 OA
BRANCH  15  19
ATOM     16  C   UNL     1      46.417   2.451   7.712  0.00  0.00    +0.000 A 
ATOM     17  C   UNL     1      45.556   1.819   8.613  0.00  0.00    +0.000 A 
ATOM     18  C   UNL     1      44.646   2.592   9.338  0.00  0.00    +0.000 A 
ATOM     19  C   UNL     1      44.631   3.963   9.129  0.00  0.00    +0.000 A 
ATOM     20  N   UNL     1      45.461   4.600   8.278  0.00  0.00    +0.000 NA
ATOM     21  C   UNL     1      46.344   3.833   7.596  0.00  0.00    +0.000 A 
BRANCH  16  23
ATOM     22  N   UNL     1      48.485   2.440   6.440  0.00  0.00    +0.000 N 
ATOM     23  C   UNL     1      47.404   1.732   6.885  0.00  0.00    +0.000 C 
ATOM     24  O   UNL     1      47.286   0.537   6.646  0.00  0.00    +0.000 OA
ATOM     25  H   UNL     1      49.209   1.899   5.984  0.00  0.00    +0.000 HD
ATOM     26  H   UNL     1      48.746   3.335   6.828  0.00  0.00    +0.000 HD
ENDBRANCH  16  23
ENDBRANCH  15  19
ENDBRANCH   1  15
TORSDOF 5
ENDMDL
MODEL 2
REMARK VINA RESULT:    -8.556      2.203      2.714
REMARK INTER + INTRA:         -11.782
REMARK INTER:                 -10.921
REMARK INTRA:                  -0.861
REMARK UNBOUND:                -0.725
REMARK  Name = 
REMARK  5 active torsions:
REMARK  status: ('A' for Active; 'I' for Inactive)
REMARK    1  A    between atoms: C_2  and  C_4
REMARK    2  A    between atoms: C_7  and  O_8
REMARK    3  A    between atoms: O_8  and  C_9
REMARK    4  A    between atoms: C_9  and  C_10
REMARK    5  A    between atoms: C_15  and  C_16
REMARK                            x       y       z     vdW  Elec       q    Type
REMARK                         _______ _______ _______ _____ _____    ______ ____
ROOT
ATOM      1  C   UNL     1      44.142   3.017  11.306  0.00  0.00    +0.000 C 
ENDROOT
BRANCH   1   2
ATOM      2  C   UNL     1      44.410   4.491  11.511  0.00  0.00    +0.000 A 
ATOM      3  C   UNL     1      43.422   5.428  11.199  0.00  0.00    +0.000 A 
ATOM      4  C   UNL     1      43.696   6.782  11.324  0.00  0.00    +0.000 A 
ATOM      5  F   UNL     1      42.743   7.676  11.026  0.00  0.00    +0.000 F 
ATOM      6  C   UNL     1      44.947   7.232  11.739  0.00  0.00    +0.000 A 
ATOM      7  C   UNL     1      45.972   6.323  12.051  0.00  0.00    +0.000 A 
ATOM      8  C   UNL     1      45.672   4.952  11.930  0.00  0.00    +0.000 A 
BRANCH   7   9
ATOM      9  C   UNL     1      47.313   6.778  12.480  0.00  0.00    +0.000 A 
ATOM     10  C   UNL     1      48.096   7.647  11.706  0.00  0.00    +0.000 A 
ATOM     11  C   UNL     1      49.356   8.054  12.144  0.00  0.00    +0.000 A 
ATOM     12  C   UNL     1      49.812   7.587  13.364  0.00  0.00    +0.000 A 
ATOM     13  N   UNL     1      49.105   6.755  14.151  0.00  0.00    +0.000 NA
ATOM     14  C   UNL     1      47.888   6.371  13.689  0.00  0.00    +0.000 A 
ENDBRANCH   7   9
ENDBRANCH   1   2
BRANCH   1  15
ATOM     15  O   UNL     1      43.615   2.783   9.996  0.00  0.00    +0.000 OA
BRANCH  15  19
ATOM     16  C   UNL     1      46.611   2.453   7.195  0.00  0.00    +0.000 A 
ATOM     17  C   UNL     1      45.857   3.627   7.265  0.00  0.00    +0.000 A 
ATOM     18  C   UNL     1      44.835   3.723   8.212  0.00  0.00    +0.000 A 
ATOM     19  C   UNL     1      44.613   2.643   9.054  0.00  0.00    +0.000 A 
ATOM     20  N   UNL     1      45.316   1.493   8.999  0.00  0.00    +0.000 NA
ATOM     21  C   UNL     1      46.291   1.417   8.063  0.00  0.00    +0.000 A 
BRANCH  16  23
ATOM     22  N   UNL     1      47.772   3.072   5.156  0.00  0.00    +0.000 N 
ATOM     23  C   UNL     1      47.721   2.251   6.246  0.00  0.00    +0.000 C 
ATOM     24  O   UNL     1      48.590   1.412   6.450  0.00  0.00    +0.000 OA
ATOM     25  H   UNL     1      48.607   3.000   4.587  0.00  0.00    +0.000 HD
ATOM     26  H   UNL     1      47.238   3.928   5.093  0.00  0.00    +0.000 HD
ENDBRANCH  16  23
ENDBRANCH  15  19
ENDBRANCH   1  15
TORSDOF 5
ENDMDL
MODEL 3
REMARK VINA RESULT:    -8.468      2.472      3.797
REMARK INTER + INTRA:         -11.668
REMARK INTER:                 -11.100
REMARK INTRA:                  -0.568
REMARK UNBOUND:                -0.725
REMARK  Name = 
REMARK  5 active torsions:
REMARK  status: ('A' for Active; 'I' for Inactive)
REMARK    1  A    between atoms: C_2  and  C_4
REMARK    2  A    between atoms: C_7  and  O_8
REMARK    3  A    between atoms: O_8  and  C_9
REMARK    4  A    between atoms: C_9  and  C_10
REMARK    5  A    between atoms: C_15  and  C_16
REMARK                            x       y       z     vdW  Elec       q    Type
REMARK                         _______ _______ _______ _____ _____    ______ ____
ROOT
ATOM      1  C   UNL     1      44.279   4.380  11.505  0.00  0.00    +0.000 C 
ENDROOT
BRANCH   1   2
ATOM      2  C   UNL     1      45.417   5.100  12.193  0.00  0.00    +0.000 A 
ATOM      3  C   UNL     1      46.081   6.139  11.537  0.00  0.00    +0.000 A 
ATOM      4  C   UNL     1      47.168   6.751  12.144  0.00  0.00    +0.000 A 
ATOM      5  F   UNL     1      47.799   7.749  11.511  0.00  0.00    +0.000 F 
ATOM      6  C   UNL     1      47.627   6.337  13.393  0.00  0.00    +0.000 A 
ATOM      7  C   UNL     1      46.995   5.289  14.081  0.00  0.00    +0.000 A 
ATOM      8  C   UNL     1      45.885   4.687  13.455  0.00  0.00    +0.000 A 
BRANCH   7   9
ATOM      9  C   UNL     1      47.472   4.823  15.402  0.00  0.00    +0.000 A 
ATOM     10  C   UNL     1      47.084   3.593  15.951  0.00  0.00    +0.000 A 
ATOM     11  C   UNL     1      47.556   3.188  17.201  0.00  0.00    +0.000 A 
ATOM     12  C   UNL     1      48.424   4.024  17.879  0.00  0.00    +0.000 A 
ATOM     13  N   UNL     1      48.834   5.214  17.401  0.00  0.00    +0.000 NA
ATOM     14  C   UNL     1      48.347   5.581  16.189  0.00  0.00    +0.000 A 
ENDBRANCH   7   9
ENDBRANCH   1   2
BRANCH   1  15
ATOM     15  O   UNL     1      44.178   4.797  10.140  0.00  0.00    +0.000 OA
BRANCH  15  19
ATOM     16  C   UNL     1      46.488   2.469   7.656  0.00  0.00    +0.000 A 
ATOM     17  C   UNL     1      45.710   1.862   8.645  0.00  0.00    +0.000 A 
ATOM     18  C   UNL     1      44.939   2.663   9.489  0.00  0.00    +0.000 A 
ATOM     19  C   UNL     1      44.973   4.038   9.307  0.00  0.00    +0.000 A 
ATOM     20  N   UNL     1      45.726   4.651   8.371  0.00  0.00    +0.000 NA
ATOM     21  C   UNL     1      46.477   3.855   7.573  0.00  0.00    +0.000 A 
BRANCH  16  23
ATOM     22  N   UNL     1      48.366   2.387   6.120  0.00  0.00    +0.000 N 
ATOM     23  C   UNL     1      47.327   1.719   6.702  0.00  0.00    +0.000 C 
ATOM     24  O   UNL     1      47.130   0.531   6.477  0.00  0.00    +0.000 OA
ATOM     25  H   UNL     1      49.001   1.823   5.568  0.00  0.00    +0.000 HD
ATOM     26  H   UNL     1      48.712   3.269   6.472  0.00  0.00    +0.000 HD
ENDBRANCH  16  23
ENDBRANCH  15  19
ENDBRANCH   1  15
TORSDOF 5
ENDMDL
MODEL 4
REMARK VINA RESULT:    -8.428      1.623      2.118
REMARK INTER + INTRA:         -11.617
REMARK INTER:                 -10.734
REMARK INTRA:                  -0.883
REMARK UNBOUND:                -0.725
REMARK  Name = 
REMARK  5 active torsions:
REMARK  status: ('A' for Active; 'I' for Inactive)
REMARK    1  A    between atoms: C_2  and  C_4
REMARK    2  A    between atoms: C_7  and  O_8
REMARK    3  A    between atoms: O_8  and  C_9
REMARK    4  A    between atoms: C_9  and  C_10
REMARK    5  A    between atoms: C_15  and  C_16
REMARK                            x       y       z     vdW  Elec       q    Type
REMARK                         _______ _______ _______ _____ _____    ______ ____
ROOT
ATOM      1  C   UNL     1      43.948   3.956  11.622  0.00  0.00    +0.000 C 
ENDROOT
BRANCH   1   2
ATOM      2  C   UNL     1      44.873   5.067  12.065  0.00  0.00    +0.000 A 
ATOM      3  C   UNL     1      45.930   4.787  12.934  0.00  0.00    +0.000 A 
ATOM      4  C   UNL     1      46.735   5.820  13.391  0.00  0.00    +0.000 A 
ATOM      5  F   UNL     1      47.751   5.545  14.221  0.00  0.00    +0.000 F 
ATOM      6  C   UNL     1      46.500   7.141  13.016  0.00  0.00    +0.000 A 
ATOM      7  C   UNL     1      45.440   7.466  12.154  0.00  0.00    +0.000 A 
ATOM      8  C   UNL     1      44.641   6.403  11.689  0.00  0.00    +0.000 A 
BRANCH   7   9
ATOM      9  C   UNL     1      45.163   8.863  11.753  0.00  0.00    +0.000 A 
ATOM     10  C   UNL     1      46.021   9.924  12.077  0.00  0.00    +0.000 A 
ATOM     11  C   UNL     1      45.725  11.229  11.682  0.00  0.00    +0.000 A 
ATOM     12  C   UNL     1      44.570  11.450  10.954  0.00  0.00    +0.000 A 
ATOM     13  N   UNL     1      43.710  10.472  10.611  0.00  0.00    +0.000 NA
ATOM     14  C   UNL     1      44.023   9.218  11.022  0.00  0.00    +0.000 A 
ENDBRANCH   7   9
ENDBRANCH   1   2
BRANCH   1  15
ATOM     15  O   UNL     1      43.593   4.120  10.245  0.00  0.00    +0.000 OA
BRANCH  15  19
ATOM     16  C   UNL     1      46.381   2.437   7.731  0.00  0.00    +0.000 A 
ATOM     17  C   UNL     1      46.138   3.812   7.672  0.00  0.00    +0.000 A 
ATOM     18  C   UNL     1      45.182   4.370   8.522  0.00  0.00    +0.000 A 
ATOM     19  C   UNL     1      44.511   3.532   9.401  0.00  0.00    +0.000 A 
ATOM     20  N   UNL     1      44.714   2.199   9.468  0.00  0.00    +0.000 NA
ATOM     21  C   UNL     1      45.636   1.679   8.624  0.00  0.00    +0.000 A 
BRANCH  16  23
ATOM     22  N   UNL     1      48.462   2.470   6.481  0.00  0.00    +0.000 N 
ATOM     23  C   UNL     1      47.378   1.747   6.891  0.00  0.00    +0.000 C 
ATOM     24  O   UNL     1      47.263   0.560   6.611  0.00  0.00    +0.000 OA
ATOM     25  H   UNL     1      49.192   1.945   6.015  0.00  0.00    +0.000 HD
ATOM     26  H   UNL     1      48.717   3.352   6.901  0.00  0.00    +0.000 HD
ENDBRANCH  16  23
ENDBRANCH  15  19
ENDBRANCH   1  15
TORSDOF 5
ENDMDL
MODEL 5
REMARK VINA RESULT:    -7.493      3.601      7.310
REMARK INTER + INTRA:         -10.409
REMARK INTER:                  -9.772
REMARK INTRA:                  -0.637
REMARK UNBOUND:                -0.725
REMARK  Name = 
REMARK  5 active torsions:
REMARK  status: ('A' for Active; 'I' for Inactive)
REMARK    1  A    between atoms: C_2  and  C_4
REMARK    2  A    between atoms: C_7  and  O_8
REMARK    3  A    between atoms: O_8  and  C_9
REMARK    4  A    between atoms: C_9  and  C_10
REMARK    5  A    between atoms: C_15  and  C_16
REMARK                            x       y       z     vdW  Elec       q    Type
REMARK                         _______ _______ _______ _____ _____    ______ ____
ROOT
ATOM      1  C   UNL     1      46.333   7.243  12.154  0.00  0.00    +0.000 C 
ENDROOT
BRANCH   1   2
ATOM      2  C   UNL     1      45.411   6.309  11.401  0.00  0.00    +0.000 A 
ATOM      3  C   UNL     1      44.056   6.251  11.736  0.00  0.00    +0.000 A 
ATOM      4  C   UNL     1      43.228   5.345  11.089  0.00  0.00    +0.000 A 
ATOM      5  F   UNL     1      41.929   5.296  11.412  0.00  0.00    +0.000 F 
ATOM      6  C   UNL     1      43.724   4.475  10.121  0.00  0.00    +0.000 A 
ATOM      7  C   UNL     1      45.082   4.494   9.763  0.00  0.00    +0.000 A 
ATOM      8  C   UNL     1      45.906   5.429  10.422  0.00  0.00    +0.000 A 
BRANCH   7   9
ATOM      9  C   UNL     1      45.634   3.570   8.748  0.00  0.00    +0.000 A 
ATOM     10  C   UNL     1      46.205   4.023   7.550  0.00  0.00    +0.000 A 
ATOM     11  C   UNL     1      46.715   3.120   6.616  0.00  0.00    +0.000 A 
ATOM     12  C   UNL     1      46.653   1.769   6.905  0.00  0.00    +0.000 A 
ATOM     13  N   UNL     1      46.120   1.276   8.039  0.00  0.00    +0.000 NA
ATOM     14  C   UNL     1      45.623   2.181   8.919  0.00  0.00    +0.000 A 
ENDBRANCH   7   9
ENDBRANCH   1   2
BRANCH   1  15
ATOM     15  O   UNL     1      47.603   6.620  12.374  0.00  0.00    +0.000 OA
BRANCH  15  19
ATOM     16  C   UNL     1      47.914   4.984  16.135  0.00  0.00    +0.000 A 
ATOM     17  C   UNL     1      47.055   4.404  15.198  0.00  0.00    +0.000 A 
ATOM     18  C   UNL     1      46.949   4.975  13.929  0.00  0.00    +0.000 A 
ATOM     19  C   UNL     1      47.711   6.099  13.646  0.00  0.00    +0.000 A 
ATOM     20  N   UNL     1      48.537   6.688  14.535  0.00  0.00    +0.000 NA
ATOM     21  C   UNL     1      48.612   6.125  15.764  0.00  0.00    +0.000 A 
BRANCH  16  23
ATOM     22  N   UNL     1      47.119   4.672  18.408  0.00  0.00    +0.000 N 
ATOM     23  C   UNL     1      48.114   4.455  17.498  0.00  0.00    +0.000 C 
ATOM     24  O   UNL     1      49.111   3.805  17.789  0.00  0.00    +0.000 OA
ATOM     25  H   UNL     1      47.220   4.195  19.295  0.00  0.00    +0.000 HD
ATOM     26  H   UNL     1      46.190   4.965  18.139  0.00  0.00    +0.000 HD
ENDBRANCH  16  23
ENDBRANCH  15  19
ENDBRANCH   1  15
TORSDOF 5
ENDMDL
MODEL 6
REMARK VINA RESULT:    -7.454      2.937      7.148
REMARK INTER + INTRA:         -10.358
REMARK INTER:                  -9.677
REMARK INTRA:                  -0.681
REMARK UNBOUND:                -0.725
REMARK  Name = 
REMARK  5 active torsions:
REMARK  status: ('A' for Active; 'I' for Inactive)
REMARK    1  A    between atoms: C_2  and  C_4
REMARK    2  A    between atoms: C_7  and  O_8
REMARK    3  A    between atoms: O_8  and  C_9
REMARK    4  A    between atoms: C_9  and  C_10
REMARK    5  A    between atoms: C_15  and  C_16
REMARK                            x       y       z     vdW  Elec       q    Type
REMARK                         _______ _______ _______ _____ _____    ______ ____
ROOT
ATOM      1  C   UNL     1      45.042   6.436  11.282  0.00  0.00    +0.000 C 
ENDROOT
BRANCH   1   2
ATOM      2  C   UNL     1      44.777   5.044  10.754  0.00  0.00    +0.000 A 
ATOM      3  C   UNL     1      43.908   4.193  11.441  0.00  0.00    +0.000 A 
ATOM      4  C   UNL     1      43.720   2.894  10.991  0.00  0.00    +0.000 A 
ATOM      5  F   UNL     1      42.883   2.083  11.652  0.00  0.00    +0.000 F 
ATOM      6  C   UNL     1      44.396   2.411   9.873  0.00  0.00    +0.000 A 
ATOM      7  C   UNL     1      45.286   3.231   9.160  0.00  0.00    +0.000 A 
ATOM      8  C   UNL     1      45.456   4.550   9.624  0.00  0.00    +0.000 A 
BRANCH   7   9
ATOM      9  C   UNL     1      46.026   2.735   7.978  0.00  0.00    +0.000 A 
ATOM     10  C   UNL     1      46.248   3.529   6.843  0.00  0.00    +0.000 A 
ATOM     11  C   UNL     1      46.951   3.026   5.747  0.00  0.00    +0.000 A 
ATOM     12  C   UNL     1      47.431   1.730   5.811  0.00  0.00    +0.000 A 
ATOM     13  N   UNL     1      47.252   0.924   6.874  0.00  0.00    +0.000 NA
ATOM     14  C   UNL     1      46.554   1.441   7.917  0.00  0.00    +0.000 A 
ENDBRANCH   7   9
ENDBRANCH   1   2
BRANCH   1  15
ATOM     15  O   UNL     1      46.336   6.888  10.871  0.00  0.00    +0.000 OA
BRANCH  15  19
ATOM     16  C   UNL     1      49.021   7.077  13.983  0.00  0.00    +0.000 A 
ATOM     17  C   UNL     1      49.303   7.741  12.786  0.00  0.00    +0.000 A 
ATOM     18  C   UNL     1      48.390   7.660  11.734  0.00  0.00    +0.000 A 
ATOM     19  C   UNL     1      47.229   6.923  11.922  0.00  0.00    +0.000 A 
ATOM     20  N   UNL     1      46.939   6.260  13.061  0.00  0.00    +0.000 NA
ATOM     21  C   UNL     1      47.846   6.341  14.062  0.00  0.00    +0.000 A 
BRANCH  16  23
ATOM     22  N   UNL     1      51.022   7.893  15.089  0.00  0.00    +0.000 N 
ATOM     23  C   UNL     1      49.907   7.108  15.162  0.00  0.00    +0.000 C 
ATOM     24  O   UNL     1      49.629   6.492  16.184  0.00  0.00    +0.000 OA
ATOM     25  H   UNL     1      51.545   7.998  15.950  0.00  0.00    +0.000 HD
ATOM     26  H   UNL     1      51.142   8.603  14.381  0.00  0.00    +0.000 HD
ENDBRANCH  16  23
ENDBRANCH  15  19
ENDBRANCH   1  15
TORSDOF 5
ENDMDL
MODEL 7
REMARK VINA RESULT:    -7.132      4.568      7.841
REMARK INTER + INTRA:          -9.942
REMARK INTER:                  -9.342
REMARK INTRA:                  -0.601
REMARK UNBOUND:                -0.725
REMARK  Name = 
REMARK  5 active torsions:
REMARK  status: ('A' for Active; 'I' for Inactive)
REMARK    1  A    between atoms: C_2  and  C_4
REMARK    2  A    between atoms: C_7  and  O_8
REMARK    3  A    between atoms: O_8  and  C_9
REMARK    4  A    between atoms: C_9  and  C_10
REMARK    5  A    between atoms: C_15  and  C_16
REMARK                            x       y       z     vdW  Elec       q    Type
REMARK                         _______ _______ _______ _____ _____    ______ ____
ROOT
ATOM      1  C   UNL     1      45.674   4.732  14.161  0.00  0.00    +0.000 C 
ENDROOT
BRANCH   1   2
ATOM      2  C   UNL     1      44.913   4.744  12.854  0.00  0.00    +0.000 A 
ATOM      3  C   UNL     1      43.608   5.241  12.813  0.00  0.00    +0.000 A 
ATOM      4  C   UNL     1      42.890   5.188  11.628  0.00  0.00    +0.000 A 
ATOM      5  F   UNL     1      41.640   5.670  11.593  0.00  0.00    +0.000 F 
ATOM      6  C   UNL     1      43.437   4.629  10.475  0.00  0.00    +0.000 A 
ATOM      7  C   UNL     1      44.742   4.107  10.477  0.00  0.00    +0.000 A 
ATOM      8  C   UNL     1      45.461   4.181  11.686  0.00  0.00    +0.000 A 
BRANCH   7   9
ATOM      9  C   UNL     1      45.338   3.496   9.269  0.00  0.00    +0.000 A 
ATOM     10  C   UNL     1      45.814   4.262   8.195  0.00  0.00    +0.000 A 
ATOM     11  C   UNL     1      46.371   3.649   7.072  0.00  0.00    +0.000 A 
ATOM     12  C   UNL     1      46.451   2.268   7.047  0.00  0.00    +0.000 A 
ATOM     13  N   UNL     1      46.015   1.482   8.049  0.00  0.00    +0.000 NA
ATOM     14  C   UNL     1      45.469   2.111   9.120  0.00  0.00    +0.000 A 
ENDBRANCH   7   9
ENDBRANCH   1   2
BRANCH   1  15
ATOM     15  O   UNL     1      46.716   3.752  14.124  0.00  0.00    +0.000 OA
BRANCH  15  19
ATOM     16  C   UNL     1      49.092   4.017  17.472  0.00  0.00    +0.000 A 
ATOM     17  C   UNL     1      48.532   5.176  16.929  0.00  0.00    +0.000 A 
ATOM     18  C   UNL     1      47.737   5.075  15.786  0.00  0.00    +0.000 A 
ATOM     19  C   UNL     1      47.529   3.818  15.236  0.00  0.00    +0.000 A 
ATOM     20  N   UNL     1      48.069   2.685  15.731  0.00  0.00    +0.000 NA
ATOM     21  C   UNL     1      48.849   2.810  16.831  0.00  0.00    +0.000 A 
BRANCH  16  23
ATOM     22  N   UNL     1      49.296   3.944  19.890  0.00  0.00    +0.000 N 
ATOM     23  C   UNL     1      49.934   4.007  18.683  0.00  0.00    +0.000 C 
ATOM     24  O   UNL     1      51.156   4.006  18.610  0.00  0.00    +0.000 OA
ATOM     25  H   UNL     1      49.892   3.811  20.698  0.00  0.00    +0.000 HD
ATOM     26  H   UNL     1      48.325   3.681  19.979  0.00  0.00    +0.000 HD
ENDBRANCH  16  23
ENDBRANCH  15  19
ENDBRANCH   1  15
TORSDOF 5
ENDMDL
MODEL 8
REMARK VINA RESULT:    -6.780      5.466      7.922
REMARK INTER + INTRA:          -9.488
REMARK INTER:                  -8.710
REMARK INTRA:                  -0.777
REMARK UNBOUND:                -0.725
REMARK  Name = 
REMARK  5 active torsions:
REMARK  status: ('A' for Active; 'I' for Inactive)
REMARK    1  A    between atoms: C_2  and  C_4
REMARK    2  A    between atoms: C_7  and  O_8
REMARK    3  A    between atoms: O_8  and  C_9
REMARK    4  A    between atoms: C_9  and  C_10
REMARK    5  A    between atoms: C_15  and  C_16
REMARK                            x       y       z     vdW  Elec       q    Type
REMARK                         _______ _______ _______ _____ _____    ______ ____
ROOT
ATOM      1  C   UNL     1      48.814   6.493  15.874  0.00  0.00    +0.000 C 
ENDROOT
BRANCH   1   2
ATOM      2  C   UNL     1      48.370   6.562  14.431  0.00  0.00    +0.000 A 
ATOM      3  C   UNL     1      49.045   7.395  13.535  0.00  0.00    +0.000 A 
ATOM      4  C   UNL     1      48.593   7.506  12.228  0.00  0.00    +0.000 A 
ATOM      5  F   UNL     1      49.246   8.304  11.371  0.00  0.00    +0.000 F 
ATOM      6  C   UNL     1      47.463   6.817  11.791  0.00  0.00    +0.000 A 
ATOM      7  C   UNL     1      46.750   5.979  12.664  0.00  0.00    +0.000 A 
ATOM      8  C   UNL     1      47.230   5.868  13.984  0.00  0.00    +0.000 A 
BRANCH   7   9
ATOM      9  C   UNL     1      45.539   5.249  12.227  0.00  0.00    +0.000 A 
ATOM     10  C   UNL     1      44.607   4.727  13.135  0.00  0.00    +0.000 A 
ATOM     11  C   UNL     1      43.477   4.043  12.685  0.00  0.00    +0.000 A 
ATOM     12  C   UNL     1      43.293   3.901  11.321  0.00  0.00    +0.000 A 
ATOM     13  N   UNL     1      44.151   4.383  10.403  0.00  0.00    +0.000 NA
ATOM     14  C   UNL     1      45.245   5.032  10.876  0.00  0.00    +0.000 A 
ENDBRANCH   7   9
ENDBRANCH   1   2
BRANCH   1  15
ATOM     15  O   UNL     1      48.248   5.346  16.517  0.00  0.00    +0.000 OA
BRANCH  15  19
ATOM     16  C   UNL     1      51.113   2.537  17.425  0.00  0.00    +0.000 A 
ATOM     17  C   UNL     1      51.364   3.887  17.682  0.00  0.00    +0.000 A 
ATOM     18  C   UNL     1      50.389   4.832  17.359  0.00  0.00    +0.000 A 
ATOM     19  C   UNL     1      49.201   4.388  16.798  0.00  0.00    +0.000 A 
ATOM     20  N   UNL     1      48.938   3.093  16.525  0.00  0.00    +0.000 NA
ATOM     21  C   UNL     1      49.904   2.196  16.834  0.00  0.00    +0.000 A 
BRANCH  16  23
ATOM     22  N   UNL     1      51.545   0.260  18.148  0.00  0.00    +0.000 N 
ATOM     23  C   UNL     1      52.065   1.455  17.740  0.00  0.00    +0.000 C 
ATOM     24  O   UNL     1      53.272   1.606  17.597  0.00  0.00    +0.000 OA
ATOM     25  H   UNL     1      52.206  -0.503  18.237  0.00  0.00    +0.000 HD
ATOM     26  H   UNL     1      50.571   0.020  18.027  0.00  0.00    +0.000 HD
ENDBRANCH  16  23
ENDBRANCH  15  19
ENDBRANCH   1  15
TORSDOF 5
ENDMDL
MODEL 9
REMARK VINA RESULT:    -6.724      4.871      8.313
REMARK INTER + INTRA:          -9.414
REMARK INTER:                  -8.702
REMARK INTRA:                  -0.712
REMARK UNBOUND:                -0.725
REMARK  Name = 
REMARK  5 active torsions:
REMARK  status: ('A' for Active; 'I' for Inactive)
REMARK    1  A    between atoms: C_2  and  C_4
REMARK    2  A    between atoms: C_7  and  O_8
REMARK    3  A    between atoms: O_8  and  C_9
REMARK    4  A    between atoms: C_9  and  C_10
REMARK    5  A    between atoms: C_15  and  C_16
REMARK                            x       y       z     vdW  Elec       q    Type
REMARK                         _______ _______ _______ _____ _____    ______ ____
ROOT
ATOM      1  C   UNL     1      48.297   7.091  14.078  0.00  0.00    +0.000 C 
ENDROOT
BRANCH   1   2
ATOM      2  C   UNL     1      47.150   7.241  13.104  0.00  0.00    +0.000 A 
ATOM      3  C   UNL     1      46.401   8.420  13.088  0.00  0.00    +0.000 A 
ATOM      4  C   UNL     1      45.308   8.527  12.240  0.00  0.00    +0.000 A 
ATOM      5  F   UNL     1      44.595   9.662  12.225  0.00  0.00    +0.000 F 
ATOM      6  C   UNL     1      44.927   7.472  11.414  0.00  0.00    +0.000 A 
ATOM      7  C   UNL     1      45.646   6.266  11.408  0.00  0.00    +0.000 A 
ATOM      8  C   UNL     1      46.760   6.179  12.267  0.00  0.00    +0.000 A 
BRANCH   7   9
ATOM      9  C   UNL     1      45.252   5.127  10.550  0.00  0.00    +0.000 A 
ATOM     10  C   UNL     1      45.618   5.041   9.199  0.00  0.00    +0.000 A 
ATOM     11  C   UNL     1      45.227   3.951   8.421  0.00  0.00    +0.000 A 
ATOM     12  C   UNL     1      44.478   2.952   9.017  0.00  0.00    +0.000 A 
ATOM     13  N   UNL     1      44.100   2.978  10.309  0.00  0.00    +0.000 NA
ATOM     14  C   UNL     1      44.487   4.059  11.032  0.00  0.00    +0.000 A 
ENDBRANCH   7   9
ENDBRANCH   1   2
BRANCH   1  15
ATOM     15  O   UNL     1      48.442   5.723  14.473  0.00  0.00    +0.000 OA
BRANCH  15  19
ATOM     16  C   UNL     1      48.366   5.365  18.571  0.00  0.00    +0.000 A 
ATOM     17  C   UNL     1      48.667   6.600  17.991  0.00  0.00    +0.000 A 
ATOM     18  C   UNL     1      48.702   6.706  16.599  0.00  0.00    +0.000 A 
ATOM     19  C   UNL     1      48.427   5.576  15.844  0.00  0.00    +0.000 A 
ATOM     20  N   UNL     1      48.147   4.368  16.378  0.00  0.00    +0.000 NA
ATOM     21  C   UNL     1      48.134   4.286  17.729  0.00  0.00    +0.000 A 
BRANCH  16  23
ATOM     22  N   UNL     1      48.560   3.887  20.487  0.00  0.00    +0.000 N 
ATOM     23  C   UNL     1      48.288   5.145  20.027  0.00  0.00    +0.000 C 
ATOM     24  O   UNL     1      48.036   6.062  20.798  0.00  0.00    +0.000 OA
ATOM     25  H   UNL     1      48.624   3.789  21.493  0.00  0.00    +0.000 HD
ATOM     26  H   UNL     1      49.018   3.188  19.920  0.00  0.00    +0.000 HD
ENDBRANCH  16  23
ENDBRANCH  15  19
ENDBRANCH   1  15
TORSDOF 5
ENDMDL
