MODEL 1
REMARK VINA RESULT:    -8.014      0.000      0.000
REMARK INTER + INTRA:         -11.742
REMARK INTER:                 -10.826
REMARK INTRA:                  -0.917
REMARK UNBOUND:                -0.917
REMARK  Name = 
REMARK  8 active torsions:
REMARK  status: ('A' for Active; 'I' for Inactive)
REMARK    1  A    between atoms: C_1  and  O_2
REMARK    2  A    between atoms: O_2  and  C_3
REMARK    3  A    between atoms: C_6  and  C_7
REMARK    4  A    between atoms: C_7  and  C_8
REMARK    5  A    between atoms: C_7  and  C_9
REMARK    6  A    between atoms: C_9  and  O_10
REMARK    7  A    between atoms: O_10  and  C_11
REMARK    8  A    between atoms: C_14  and  C_15
REMARK                            x       y       z     vdW  Elec       q    Type
REMARK                         _______ _______ _______ _____ _____    ______ ____
ROOT
ATOM      1  C   UNL     1      43.896   2.888  11.323  0.00  0.00    +0.000 C 
ENDROOT
BRANCH   1   2
ATOM      2  C   UNL     1      43.724   3.983  12.386  0.00  0.00    +0.000 C 
ATOM      3  C   UNL     1      42.697   5.033  11.962  0.00  0.00    +0.000 C 
BRANCH   2   7
ATOM      4  C   UNL     1      47.515   5.794  13.233  0.00  0.00    +0.000 A 
ATOM      5  C   UNL     1      46.783   6.231  12.135  0.00  0.00    +0.000 A 
ATOM      6  C   UNL     1      45.547   5.645  11.849  0.00  0.00    +0.000 A 
ATOM      7  C   UNL     1      45.065   4.635  12.675  0.00  0.00    +0.000 A 
ATOM      8  N   UNL     1      45.773   4.180  13.741  0.00  0.00    +0.000 NA
ATOM      9  C   UNL     1      46.967   4.770  13.994  0.00  0.00    +0.000 A 
BRANCH   4  11
ATOM     10  C   UNL     1      49.339   7.243  12.803  0.00  0.00    +0.000 C 
ATOM     11  O   UNL     1      48.725   6.273  13.645  0.00  0.00    +0.000 OA
ENDBRANCH   4  11
ENDBRANCH   2   7
ENDBRANCH   1   2
BRANCH   1  12
ATOM     12  O   UNL     1      43.643   3.395  10.006  0.00  0.00    +0.000 OA
BRANCH  12  13
ATOM     13  C   UNL     1      44.644   3.181   9.093  0.00  0.00    +0.000 A 
ATOM     14  C   UNL     1      45.285   4.175   8.348  0.00  0.00    +0.000 A 
ATOM     15  C   UNL     1      46.313   3.844   7.464  0.00  0.00    +0.000 A 
ATOM     16  C   UNL     1      46.714   2.513   7.310  0.00  0.00    +0.000 A 
ATOM     17  C   UNL     1      46.065   1.515   8.043  0.00  0.00    +0.000 A 
ATOM     18 CL   UNL     1      46.497  -0.153   7.897  0.00  0.00    +0.000 Cl
ATOM     19  C   UNL     1      45.032   1.850   8.929  0.00  0.00    +0.000 A 
BRANCH  16  20
ATOM     20  C   UNL     1      47.788   2.223   6.404  0.00  0.00    +0.000 C 
ATOM     21  N   UNL     1      48.648   1.940   5.679  0.00  0.00    +0.000 NA
ENDBRANCH  16  20
ENDBRANCH  12  13
ENDBRANCH   1  12
TORSDOF 6
ENDMDL
MODEL 2
REMARK VINA RESULT:    -6.526      3.292      6.172
REMARK INTER + INTRA:          -9.732
REMARK INTER:                  -8.726
REMARK INTRA:                  -1.006
REMARK UNBOUND:                -0.917
REMARK  Name = 
REMARK  8 active torsions:
REMARK  status: ('A' for Active; 'I' for Inactive)
REMARK    1  A    between atoms: C_1  and  O_2
REMARK    2  A    between atoms: O_2  and  C_3
REMARK    3  A    between atoms: C_6  and  C_7
REMARK    4  A    between atoms: C_7  and  C_8
REMARK    5  A    between atoms: C_7  and  C_9
REMARK    6  A    between atoms: C_9  and  O_10
REMARK    7  A    between atoms: O_10  and  C_11
REMARK    8  A    between atoms: C_14  and  C_15
REMARK                            x       y       z     vdW  Elec       q    Type
REMARK                         _______ _______ _______ _____ _____    ______ ____
ROOT
ATOM      1  C   UNL     1      43.267   5.302  11.728  0.00  0.00    +0.000 C 
ENDROOT
BRANCH   1   2
ATOM      2  C   UNL     1      43.233   3.822  11.318  0.00  0.00    +0.000 C 
ATOM      3  C   UNL     1      43.566   2.898  12.489  0.00  0.00    +0.000 C 
BRANCH   2   7
ATOM      4  C   UNL     1      45.927   3.114   8.061  0.00  0.00    +0.000 A 
ATOM      5  C   UNL     1      45.661   4.421   8.453  0.00  0.00    +0.000 A 
ATOM      6  C   UNL     1      44.783   4.663   9.512  0.00  0.00    +0.000 A 
ATOM      7  C   UNL     1      44.190   3.586  10.163  0.00  0.00    +0.000 A 
ATOM      8  N   UNL     1      44.420   2.303   9.784  0.00  0.00    +0.000 NA
ATOM      9  C   UNL     1      45.279   2.100   8.755  0.00  0.00    +0.000 A 
BRANCH   4  11
ATOM     10  C   UNL     1      47.312   1.411   7.170  0.00  0.00    +0.000 C 
ATOM     11  O   UNL     1      46.765   2.721   7.058  0.00  0.00    +0.000 OA
ENDBRANCH   4  11
ENDBRANCH   2   7
ENDBRANCH   1   2
BRANCH   1  12
ATOM     12  O   UNL     1      43.949   5.482  12.976  0.00  0.00    +0.000 OA
BRANCH  12  13
ATOM     13  C   UNL     1      45.206   6.025  12.884  0.00  0.00    +0.000 A 
ATOM     14  C   UNL     1      46.403   5.331  13.085  0.00  0.00    +0.000 A 
ATOM     15  C   UNL     1      47.630   5.980  12.938  0.00  0.00    +0.000 A 
ATOM     16  C   UNL     1      47.678   7.335  12.592  0.00  0.00    +0.000 A 
ATOM     17  C   UNL     1      46.481   8.035  12.406  0.00  0.00    +0.000 A 
ATOM     18 CL   UNL     1      46.461   9.713  11.989  0.00  0.00    +0.000 Cl
ATOM     19  C   UNL     1      45.252   7.381  12.554  0.00  0.00    +0.000 A 
BRANCH  16  20
ATOM     20  C   UNL     1      48.961   7.955  12.435  0.00  0.00    +0.000 C 
ATOM     21  N   UNL     1      49.999   8.468  12.356  0.00  0.00    +0.000 NA
ENDBRANCH  16  20
ENDBRANCH  12  13
ENDBRANCH   1  12
TORSDOF 6
ENDMDL
MODEL 3
REMARK VINA RESULT:    -6.394      3.163      6.434
REMARK INTER + INTRA:          -9.554
REMARK INTER:                  -8.817
REMARK INTRA:                  -0.736
REMARK UNBOUND:                -0.917
REMARK  Name = 
REMARK  8 active torsions:
REMARK  status: ('A' for Active; 'I' for Inactive)
REMARK    1  A    between atoms: C_1  and  O_2
REMARK    2  A    between atoms: O_2  and  C_3
REMARK    3  A    between atoms: C_6  and  C_7
REMARK    4  A    between atoms: C_7  and  C_8
REMARK    5  A    between atoms: C_7  and  C_9
REMARK    6  A    between atoms: C_9  and  O_10
REMARK    7  A    between atoms: O_10  and  C_11
REMARK    8  A    between atoms: C_14  and  C_15
REMARK                            x       y       z     vdW  Elec       q    Type
REMARK                         _______ _______ _______ _____ _____    ______ ____
ROOT
ATOM      1  C   UNL     1      44.324   5.215  10.784  0.00  0.00    +0.000 C 
ENDROOT
BRANCH   1   2
ATOM      2  C   UNL     1      43.813   3.855  10.286  0.00  0.00    +0.000 C 
ATOM      3  C   UNL     1      43.577   2.877  11.437  0.00  0.00    +0.000 C 
BRANCH   2   7
ATOM      4  C   UNL     1      46.574   2.173   7.473  0.00  0.00    +0.000 A 
ATOM      5  C   UNL     1      46.354   3.546   7.473  0.00  0.00    +0.000 A 
ATOM      6  C   UNL     1      45.454   4.103   8.384  0.00  0.00    +0.000 A 
ATOM      7  C   UNL     1      44.795   3.273   9.284  0.00  0.00    +0.000 A 
ATOM      8  N   UNL     1      44.981   1.928   9.288  0.00  0.00    +0.000 NA
ATOM      9  C   UNL     1      45.861   1.417   8.393  0.00  0.00    +0.000 A 
BRANCH   4  11
ATOM     10  C   UNL     1      47.975   2.215   5.563  0.00  0.00    +0.000 C 
ATOM     11  O   UNL     1      47.425   1.487   6.655  0.00  0.00    +0.000 OA
ENDBRANCH   4  11
ENDBRANCH   2   7
ENDBRANCH   1   2
BRANCH   1  12
ATOM     12  O   UNL     1      44.693   5.157  12.168  0.00  0.00    +0.000 OA
BRANCH  12  13
ATOM     13  C   UNL     1      45.903   5.728  12.476  0.00  0.00    +0.000 A 
ATOM     14  C   UNL     1      46.624   6.591  11.646  0.00  0.00    +0.000 A 
ATOM     15  C   UNL     1      47.836   7.136  12.075  0.00  0.00    +0.000 A 
ATOM     16  C   UNL     1      48.345   6.824  13.340  0.00  0.00    +0.000 A 
ATOM     17  C   UNL     1      47.632   5.949  14.166  0.00  0.00    +0.000 A 
ATOM     18 CL   UNL     1      48.204   5.508  15.737  0.00  0.00    +0.000 Cl
ATOM     19  C   UNL     1      46.418   5.403  13.733  0.00  0.00    +0.000 A 
BRANCH  16  20
ATOM     20  C   UNL     1      49.584   7.422  13.744  0.00  0.00    +0.000 C 
ATOM     21  N   UNL     1      50.587   7.875  14.111  0.00  0.00    +0.000 NA
ENDBRANCH  16  20
ENDBRANCH  12  13
ENDBRANCH   1  12
TORSDOF 6
ENDMDL
MODEL 4
REMARK VINA RESULT:    -6.146      1.617      2.135
REMARK INTER + INTRA:          -9.219
REMARK INTER:                  -8.433
REMARK INTRA:                  -0.786
REMARK UNBOUND:                -0.917
REMARK  Name = 
REMARK  8 active torsions:
REMARK  status: ('A' for Active; 'I' for Inactive)
REMARK    1  A    between atoms: C_1  and  O_2
REMARK    2  A    between atoms: O_2  and  C_3
REMARK    3  A    between atoms: C_6  and  C_7
REMARK    4  A    between atoms: C_7  and  C_8
REMARK    5  A    between atoms: C_7  and  C_9
REMARK    6  A    between atoms: C_9  and  O_10
REMARK    7  A    between atoms: O_10  and  C_11
REMARK    8  A    between atoms: C_14  and  C_15
REMARK                            x       y       z     vdW  Elec       q    Type
REMARK                         _______ _______ _______ _____ _____    ______ ____
ROOT
ATOM      1  C   UNL     1      43.256   5.037  11.483  0.00  0.00    +0.000 C 
ENDROOT
BRANCH   1   2
ATOM      2  C   UNL     1      43.616   6.423  12.037  0.00  0.00    +0.000 C 
ATOM      3  C   UNL     1      43.426   7.523  10.993  0.00  0.00    +0.000 C 
BRANCH   2   7
ATOM      4  C   UNL     1      47.643   6.364  13.502  0.00  0.00    +0.000 A 
ATOM      5  C   UNL     1      47.186   7.482  12.813  0.00  0.00    +0.000 A 
ATOM      6  C   UNL     1      45.876   7.510  12.329  0.00  0.00    +0.000 A 
ATOM      7  C   UNL     1      45.045   6.417  12.551  0.00  0.00    +0.000 A 
ATOM      8  N   UNL     1      45.477   5.308  13.205  0.00  0.00    +0.000 NA
ATOM      9  C   UNL     1      46.753   5.311  13.664  0.00  0.00    +0.000 A 
BRANCH   4  11
ATOM     10  C   UNL     1      49.596   7.381  14.376  0.00  0.00    +0.000 C 
ATOM     11  O   UNL     1      48.886   6.194  14.040  0.00  0.00    +0.000 OA
ENDBRANCH   4  11
ENDBRANCH   2   7
ENDBRANCH   1   2
BRANCH   1  12
ATOM     12  O   UNL     1      43.369   5.003  10.054  0.00  0.00    +0.000 OA
BRANCH  12  13
ATOM     13  C   UNL     1      44.138   3.983   9.551  0.00  0.00    +0.000 A 
ATOM     14  C   UNL     1      44.147   2.669  10.025  0.00  0.00    +0.000 A 
ATOM     15  C   UNL     1      44.952   1.703   9.417  0.00  0.00    +0.000 A 
ATOM     16  C   UNL     1      45.763   2.040   8.327  0.00  0.00    +0.000 A 
ATOM     17  C   UNL     1      45.766   3.359   7.861  0.00  0.00    +0.000 A 
ATOM     18 CL   UNL     1      46.750   3.852   6.528  0.00  0.00    +0.000 Cl
ATOM     19  C   UNL     1      44.958   4.325   8.474  0.00  0.00    +0.000 A 
BRANCH  16  20
ATOM     20  C   UNL     1      46.558   1.011   7.724  0.00  0.00    +0.000 C 
ATOM     21  N   UNL     1      47.229   0.214   7.213  0.00  0.00    +0.000 NA
ENDBRANCH  16  20
ENDBRANCH  12  13
ENDBRANCH   1  12
TORSDOF 6
ENDMDL
MODEL 5
REMARK VINA RESULT:    -6.018      2.323      2.962
REMARK INTER + INTRA:          -9.045
REMARK INTER:                  -8.446
REMARK INTRA:                  -0.599
REMARK UNBOUND:                -0.917
REMARK  Name = 
REMARK  8 active torsions:
REMARK  status: ('A' for Active; 'I' for Inactive)
REMARK    1  A    between atoms: C_1  and  O_2
REMARK    2  A    between atoms: O_2  and  C_3
REMARK    3  A    between atoms: C_6  and  C_7
REMARK    4  A    between atoms: C_7  and  C_8
REMARK    5  A    between atoms: C_7  and  C_9
REMARK    6  A    between atoms: C_9  and  O_10
REMARK    7  A    between atoms: O_10  and  C_11
REMARK    8  A    between atoms: C_14  and  C_15
REMARK                            x       y       z     vdW  Elec       q    Type
REMARK                         _______ _______ _______ _____ _____    ______ ____
ROOT
ATOM      1  C   UNL     1      43.900   5.374  11.706  0.00  0.00    +0.000 C 
ENDROOT
BRANCH   1   2
ATOM      2  C   UNL     1      45.414   5.334  11.961  0.00  0.00    +0.000 C 
ATOM      3  C   UNL     1      45.760   4.536  13.217  0.00  0.00    +0.000 C 
BRANCH   2   7
ATOM      4  C   UNL     1      46.985   9.312  12.241  0.00  0.00    +0.000 A 
ATOM      5  C   UNL     1      45.610   9.128  12.139  0.00  0.00    +0.000 A 
ATOM      6  C   UNL     1      45.089   7.836  12.045  0.00  0.00    +0.000 A 
ATOM      7  C   UNL     1      45.956   6.749  12.060  0.00  0.00    +0.000 A 
ATOM      8  N   UNL     1      47.302   6.906  12.139  0.00  0.00    +0.000 NA
ATOM      9  C   UNL     1      47.778   8.172  12.232  0.00  0.00    +0.000 A 
BRANCH   4  11
ATOM     10  C   UNL     1      48.675  10.745  11.405  0.00  0.00    +0.000 C 
ATOM     11  O   UNL     1      47.639  10.504  12.351  0.00  0.00    +0.000 OA
ENDBRANCH   4  11
ENDBRANCH   2   7
ENDBRANCH   1   2
BRANCH   1  12
ATOM     12  O   UNL     1      43.597   5.128  10.327  0.00  0.00    +0.000 OA
BRANCH  12  13
ATOM     13  C   UNL     1      44.284   4.089   9.752  0.00  0.00    +0.000 A 
ATOM     14  C   UNL     1      44.129   2.739  10.077  0.00  0.00    +0.000 A 
ATOM     15  C   UNL     1      44.864   1.760   9.406  0.00  0.00    +0.000 A 
ATOM     16  C   UNL     1      45.769   2.119   8.400  0.00  0.00    +0.000 A 
ATOM     17  C   UNL     1      45.937   3.471   8.084  0.00  0.00    +0.000 A 
ATOM     18 CL   UNL     1      47.045   3.991   6.863  0.00  0.00    +0.000 Cl
ATOM     19  C   UNL     1      45.199   4.450   8.760  0.00  0.00    +0.000 A 
BRANCH  16  20
ATOM     20  C   UNL     1      46.489   1.078   7.726  0.00  0.00    +0.000 C 
ATOM     21  N   UNL     1      47.102   0.271   7.162  0.00  0.00    +0.000 NA
ENDBRANCH  16  20
ENDBRANCH  12  13
ENDBRANCH   1  12
TORSDOF 6
ENDMDL
MODEL 6
REMARK VINA RESULT:    -5.821      3.543      7.207
REMARK INTER + INTRA:          -8.780
REMARK INTER:                  -8.237
REMARK INTRA:                  -0.543
REMARK UNBOUND:                -0.917
REMARK  Name = 
REMARK  8 active torsions:
REMARK  status: ('A' for Active; 'I' for Inactive)
REMARK    1  A    between atoms: C_1  and  O_2
REMARK    2  A    between atoms: O_2  and  C_3
REMARK    3  A    between atoms: C_6  and  C_7
REMARK    4  A    between atoms: C_7  and  C_8
REMARK    5  A    between atoms: C_7  and  C_9
REMARK    6  A    between atoms: C_9  and  O_10
REMARK    7  A    between atoms: O_10  and  C_11
REMARK    8  A    between atoms: C_14  and  C_15
REMARK                            x       y       z     vdW  Elec       q    Type
REMARK                         _______ _______ _______ _____ _____    ______ ____
ROOT
ATOM      1  C   UNL     1      45.352   4.989  12.426  0.00  0.00    +0.000 C 
ENDROOT
BRANCH   1   2
ATOM      2  C   UNL     1      44.304   4.231  11.598  0.00  0.00    +0.000 C 
ATOM      3  C   UNL     1      43.764   3.009  12.340  0.00  0.00    +0.000 C 
BRANCH   2   7
ATOM      4  C   UNL     1      45.975   3.041   7.835  0.00  0.00    +0.000 A 
ATOM      5  C   UNL     1      45.972   4.387   8.184  0.00  0.00    +0.000 A 
ATOM      6  C   UNL     1      45.428   4.785   9.407  0.00  0.00    +0.000 A 
ATOM      7  C   UNL     1      44.900   3.824  10.262  0.00  0.00    +0.000 A 
ATOM      8  N   UNL     1      44.875   2.507   9.933  0.00  0.00    +0.000 NA
ATOM      9  C   UNL     1      45.413   2.151   8.741  0.00  0.00    +0.000 A 
BRANCH   4  11
ATOM     10  C   UNL     1      47.713   1.804   6.806  0.00  0.00    +0.000 C 
ATOM     11  O   UNL     1      46.478   2.500   6.687  0.00  0.00    +0.000 OA
ENDBRANCH   4  11
ENDBRANCH   2   7
ENDBRANCH   1   2
BRANCH   1  12
ATOM     12  O   UNL     1      45.837   4.188  13.512  0.00  0.00    +0.000 OA
BRANCH  12  13
ATOM     13  C   UNL     1      46.784   4.786  14.304  0.00  0.00    +0.000 A 
ATOM     14  C   UNL     1      47.486   5.952  13.985  0.00  0.00    +0.000 A 
ATOM     15  C   UNL     1      48.412   6.488  14.882  0.00  0.00    +0.000 A 
ATOM     16  C   UNL     1      48.652   5.863  16.110  0.00  0.00    +0.000 A 
ATOM     17  C   UNL     1      47.963   4.688  16.424  0.00  0.00    +0.000 A 
ATOM     18 CL   UNL     1      48.216   3.853  17.917  0.00  0.00    +0.000 Cl
ATOM     19  C   UNL     1      47.035   4.152  15.522  0.00  0.00    +0.000 A 
BRANCH  16  20
ATOM     20  C   UNL     1      49.599   6.461  17.006  0.00  0.00    +0.000 C 
ATOM     21  N   UNL     1      50.368   6.900  17.755  0.00  0.00    +0.000 NA
ENDBRANCH  16  20
ENDBRANCH  12  13
ENDBRANCH   1  12
TORSDOF 6
ENDMDL
MODEL 7
REMARK VINA RESULT:    -5.735      3.513      6.960
REMARK INTER + INTRA:          -8.663
REMARK INTER:                  -8.038
REMARK INTRA:                  -0.626
REMARK UNBOUND:                -0.917
REMARK  Name = 
REMARK  8 active torsions:
REMARK  status: ('A' for Active; 'I' for Inactive)
REMARK    1  A    between atoms: C_1  and  O_2
REMARK    2  A    between atoms: O_2  and  C_3
REMARK    3  A    between atoms: C_6  and  C_7
REMARK    4  A    between atoms: C_7  and  C_8
REMARK    5  A    between atoms: C_7  and  C_9
REMARK    6  A    between atoms: C_9  and  O_10
REMARK    7  A    between atoms: O_10  and  C_11
REMARK    8  A    between atoms: C_14  and  C_15
REMARK                            x       y       z     vdW  Elec       q    Type
REMARK                         _______ _______ _______ _____ _____    ______ ____
ROOT
ATOM      1  C   UNL     1      44.702   6.011  10.712  0.00  0.00    +0.000 C 
ENDROOT
BRANCH   1   2
ATOM      2  C   UNL     1      43.915   4.731  10.394  0.00  0.00    +0.000 C 
ATOM      3  C   UNL     1      43.561   3.950  11.659  0.00  0.00    +0.000 C 
BRANCH   2   7
ATOM      4  C   UNL     1      46.175   2.314   7.669  0.00  0.00    +0.000 A 
ATOM      5  C   UNL     1      45.545   1.711   8.753  0.00  0.00    +0.000 A 
ATOM      6  C   UNL     1      44.808   2.491   9.648  0.00  0.00    +0.000 A 
ATOM      7  C   UNL     1      44.712   3.862   9.437  0.00  0.00    +0.000 A 
ATOM      8  N   UNL     1      45.335   4.473   8.397  0.00  0.00    +0.000 NA
ATOM      9  C   UNL     1      46.041   3.691   7.544  0.00  0.00    +0.000 A 
BRANCH   4  11
ATOM     10  C   UNL     1      48.257   2.141   6.552  0.00  0.00    +0.000 C 
ATOM     11  O   UNL     1      46.917   1.688   6.710  0.00  0.00    +0.000 OA
ENDBRANCH   4  11
ENDBRANCH   2   7
ENDBRANCH   1   2
BRANCH   1  12
ATOM     12  O   UNL     1      45.801   5.742  11.593  0.00  0.00    +0.000 OA
BRANCH  12  13
ATOM     13  C   UNL     1      46.435   6.851  12.094  0.00  0.00    +0.000 A 
ATOM     14  C   UNL     1      45.853   7.805  12.934  0.00  0.00    +0.000 A 
ATOM     15  C   UNL     1      46.603   8.883  13.407  0.00  0.00    +0.000 A 
ATOM     16  C   UNL     1      47.947   9.024  13.045  0.00  0.00    +0.000 A 
ATOM     17  C   UNL     1      48.527   8.079  12.193  0.00  0.00    +0.000 A 
ATOM     18 CL   UNL     1      50.178   8.194  11.693  0.00  0.00    +0.000 Cl
ATOM     19  C   UNL     1      47.771   6.999  11.719  0.00  0.00    +0.000 A 
BRANCH  16  20
ATOM     20  C   UNL     1      48.682  10.137  13.571  0.00  0.00    +0.000 C 
ATOM     21  N   UNL     1      49.244  11.040  14.034  0.00  0.00    +0.000 NA
ENDBRANCH  16  20
ENDBRANCH  12  13
ENDBRANCH   1  12
TORSDOF 6
ENDMDL
MODEL 8
REMARK VINA RESULT:    -5.455      4.909      7.065
REMARK INTER + INTRA:          -8.286
REMARK INTER:                  -7.509
REMARK INTRA:                  -0.777
REMARK UNBOUND:                -0.917
REMARK  Name = 
REMARK  8 active torsions:
REMARK  status: ('A' for Active; 'I' for Inactive)
REMARK    1  A    between atoms: C_1  and  O_2
REMARK    2  A    between atoms: O_2  and  C_3
REMARK    3  A    between atoms: C_6  and  C_7
REMARK    4  A    between atoms: C_7  and  C_8
REMARK    5  A    between atoms: C_7  and  C_9
REMARK    6  A    between atoms: C_9  and  O_10
REMARK    7  A    between atoms: O_10  and  C_11
REMARK    8  A    between atoms: C_14  and  C_15
REMARK                            x       y       z     vdW  Elec       q    Type
REMARK                         _______ _______ _______ _____ _____    ______ ____
ROOT
ATOM      1  C   UNL     1      48.710   6.655  15.740  0.00  0.00    +0.000 C 
ENDROOT
BRANCH   1   2
ATOM      2  C   UNL     1      48.231   5.840  16.950  0.00  0.00    +0.000 C 
ATOM      3  C   UNL     1      48.411   6.605  18.261  0.00  0.00    +0.000 C 
BRANCH   2   7
ATOM      4  C   UNL     1      50.347   2.117  17.107  0.00  0.00    +0.000 A 
ATOM      5  C   UNL     1      48.996   2.119  16.777  0.00  0.00    +0.000 A 
ATOM      6  C   UNL     1      48.297   3.327  16.726  0.00  0.00    +0.000 A 
ATOM      7  C   UNL     1      48.968   4.514  17.001  0.00  0.00    +0.000 A 
ATOM      8  N   UNL     1      50.282   4.532  17.344  0.00  0.00    +0.000 NA
ATOM      9  C   UNL     1      50.934   3.344  17.383  0.00  0.00    +0.000 A 
BRANCH   4  11
ATOM     10  C   UNL     1      52.456   1.242  17.740  0.00  0.00    +0.000 C 
ATOM     11  O   UNL     1      51.162   1.025  17.186  0.00  0.00    +0.000 OA
ENDBRANCH   4  11
ENDBRANCH   2   7
ENDBRANCH   1   2
BRANCH   1  12
ATOM     12  O   UNL     1      48.679   5.873  14.539  0.00  0.00    +0.000 OA
BRANCH  12  13
ATOM     13  C   UNL     1      47.459   5.806  13.915  0.00  0.00    +0.000 A 
ATOM     14  C   UNL     1      46.646   4.670  13.849  0.00  0.00    +0.000 A 
ATOM     15  C   UNL     1      45.406   4.724  13.209  0.00  0.00    +0.000 A 
ATOM     16  C   UNL     1      44.963   5.915  12.622  0.00  0.00    +0.000 A 
ATOM     17  C   UNL     1      45.781   7.047  12.674  0.00  0.00    +0.000 A 
ATOM     18 CL   UNL     1      45.306   8.549  11.962  0.00  0.00    +0.000 Cl
ATOM     19  C   UNL     1      47.025   6.990  13.316  0.00  0.00    +0.000 A 
BRANCH  16  20
ATOM     20  C   UNL     1      43.675   5.927  11.992  0.00  0.00    +0.000 C 
ATOM     21  N   UNL     1      42.654   5.960  11.442  0.00  0.00    +0.000 NA
ENDBRANCH  16  20
ENDBRANCH  12  13
ENDBRANCH   1  12
TORSDOF 6
ENDMDL
MODEL 9
REMARK VINA RESULT:    -5.214      3.518      5.577
REMARK INTER + INTRA:          -7.960
REMARK INTER:                  -7.271
REMARK INTRA:                  -0.689
REMARK UNBOUND:                -0.917
REMARK  Name = 
REMARK  8 active torsions:
REMARK  status: ('A' for Active; 'I' for Inactive)
REMARK    1  A    between atoms: C_1  and  O_2
REMARK    2  A    between atoms: O_2  and  C_3
REMARK    3  A    between atoms: C_6  and  C_7
REMARK    4  A    between atoms: C_7  and  C_8
REMARK    5  A    between atoms: C_7  and  C_9
REMARK    6  A    between atoms: C_9  and  O_10
REMARK    7  A    between atoms: O_10  and  C_11
REMARK    8  A    between atoms: C_14  and  C_15
REMARK                            x       y       z     vdW  Elec       q    Type
REMARK                         _______ _______ _______ _____ _____    ______ ____
ROOT
ATOM      1  C   UNL     1      47.316   8.056  13.302  0.00  0.00    +0.000 C 
ENDROOT
BRANCH   1   2
ATOM      2  C   UNL     1      48.840   7.948  13.456  0.00  0.00    +0.000 C 
ATOM      3  C   UNL     1      49.497   7.339  12.218  0.00  0.00    +0.000 C 
BRANCH   2   7
ATOM      4  C   UNL     1      49.753   5.628  16.941  0.00  0.00    +0.000 A 
ATOM      5  C   UNL     1      50.638   6.619  16.532  0.00  0.00    +0.000 A 
ATOM      6  C   UNL     1      50.351   7.379  15.396  0.00  0.00    +0.000 A 
ATOM      7  C   UNL     1      49.176   7.134  14.693  0.00  0.00    +0.000 A 
ATOM      8  N   UNL     1      48.308   6.159  15.064  0.00  0.00    +0.000 NA
ATOM      9  C   UNL     1      48.613   5.439  16.172  0.00  0.00    +0.000 A 
BRANCH   4  11
ATOM     10  C   UNL     1      49.557   3.445  17.840  0.00  0.00    +0.000 C 
ATOM     11  O   UNL     1      49.890   4.815  18.030  0.00  0.00    +0.000 OA
ENDBRANCH   4  11
ENDBRANCH   2   7
ENDBRANCH   1   2
BRANCH   1  12
ATOM     12  O   UNL     1      46.892   7.624  12.002  0.00  0.00    +0.000 OA
BRANCH  12  13
ATOM     13  C   UNL     1      46.109   6.497  11.985  0.00  0.00    +0.000 A 
ATOM     14  C   UNL     1      45.552   5.883  13.110  0.00  0.00    +0.000 A 
ATOM     15  C   UNL     1      44.746   4.751  12.972  0.00  0.00    +0.000 A 
ATOM     16  C   UNL     1      44.489   4.215  11.706  0.00  0.00    +0.000 A 
ATOM     17  C   UNL     1      45.058   4.819  10.580  0.00  0.00    +0.000 A 
ATOM     18 CL   UNL     1      44.795   4.206   8.985  0.00  0.00    +0.000 Cl
ATOM     19  C   UNL     1      45.867   5.954  10.722  0.00  0.00    +0.000 A 
BRANCH  16  20
ATOM     20  C   UNL     1      43.641   3.062  11.612  0.00  0.00    +0.000 C 
ATOM     21  N   UNL     1      42.973   2.114  11.580  0.00  0.00    +0.000 NA
ENDBRANCH  16  20
ENDBRANCH  12  13
ENDBRANCH   1  12
TORSDOF 6
ENDMDL
