MODEL 1
REMARK VINA RESULT:    -9.607      0.000      0.000
REMARK INTER + INTRA:         -14.045
REMARK INTER:                 -12.976
REMARK INTRA:                  -1.068
REMARK UNBOUND:                -1.068
REMARK  Name = 
REMARK  6 active torsions:
REMARK  status: ('A' for Active; 'I' for Inactive)
REMARK    1  A    between atoms: C_2  and  C_4
REMARK    2  A    between atoms: N_8  and  C_9
REMARK    3  A    between atoms: C_9  and  C_10
REMARK    4  A    between atoms: C_10  and  C_13
REMARK    5  A    between atoms: C_18  and  O_19
REMARK    6  A    between atoms: O_19  and  C_20
REMARK                            x       y       z     vdW  Elec       q    Type
REMARK                         _______ _______ _______ _____ _____    ______ ____
ROOT
ATOM      1  C   UNL     1      43.701   4.830  12.419  0.00  0.00    +0.000 C 
ATOM      2  F   UNL     1      42.769   5.763  12.794  0.00  0.00    +0.000 F 
ATOM      3  F   UNL     1      43.468   3.757  13.234  0.00  0.00    +0.000 F 
ENDROOT
BRANCH   1   4
ATOM      4  C   UNL     1      45.120   5.346  12.580  0.00  0.00    +0.000 A 
ATOM      5  C   UNL     1      45.662   6.220  11.625  0.00  0.00    +0.000 A 
ATOM      6  C   UNL     1      46.959   6.712  11.772  0.00  0.00    +0.000 A 
ATOM      7  C   UNL     1      47.730   6.329  12.868  0.00  0.00    +0.000 A 
ATOM      8  F   UNL     1      48.962   6.844  12.978  0.00  0.00    +0.000 F 
ATOM      9  C   UNL     1      47.220   5.450  13.823  0.00  0.00    +0.000 A 
ATOM     10  C   UNL     1      45.912   4.968  13.678  0.00  0.00    +0.000 A 
BRANCH   9  11
ATOM     11  O   UNL     1      47.878   5.014  14.948  0.00  0.00    +0.000 OA
BRANCH  11  12
ATOM     12  C   UNL     1      47.240   4.049  15.814  0.00  0.00    +0.000 C 
ATOM     13  C   UNL     1      47.146   4.407  17.313  0.00  0.00    +0.000 C 
ATOM     14  C   UNL     1      47.677   3.006  17.658  0.00  0.00    +0.000 C 
ATOM     15  F   UNL     1      48.656   2.969  18.590  0.00  0.00    +0.000 F 
ATOM     16  F   UNL     1      46.738   2.114  18.048  0.00  0.00    +0.000 F 
ATOM     17  C   UNL     1      48.147   2.864  16.203  0.00  0.00    +0.000 C 
ENDBRANCH  11  12
ENDBRANCH   9  11
ENDBRANCH   1   4
BRANCH   1  18
ATOM     18  C   UNL     1      43.398   4.425  10.952  0.00  0.00    +0.000 C 
BRANCH  18  23
ATOM     19  C   UNL     1      46.437   2.779   7.339  0.00  0.00    +0.000 A 
ATOM     20  C   UNL     1      46.038   1.625   8.006  0.00  0.00    +0.000 A 
ATOM     21  C   UNL     1      45.186   1.741   9.106  0.00  0.00    +0.000 A 
ATOM     22  C   UNL     1      44.737   2.998   9.512  0.00  0.00    +0.000 A 
ATOM     23  N   UNL     1      43.903   3.071  10.633  0.00  0.00    +0.000 N 
ATOM     24  N   UNL     1      45.145   4.123   8.891  0.00  0.00    +0.000 NA
ATOM     25  C   UNL     1      45.986   3.995   7.830  0.00  0.00    +0.000 A 
ATOM     26  H   UNL     1      43.149   2.393  10.565  0.00  0.00    +0.000 HD
BRANCH  19  28
ATOM     27  N   UNL     1      48.646   2.488   6.372  0.00  0.00    +0.000 N 
ATOM     28  C   UNL     1      47.324   2.767   6.157  0.00  0.00    +0.000 C 
ATOM     29  O   UNL     1      46.891   2.954   5.030  0.00  0.00    +0.000 OA
ATOM     30  H   UNL     1      49.220   2.375   5.545  0.00  0.00    +0.000 HD
ATOM     31  H   UNL     1      48.990   2.090   7.234  0.00  0.00    +0.000 HD
ENDBRANCH  19  28
ENDBRANCH  18  23
ENDBRANCH   1  18
TORSDOF 6
ENDMDL
MODEL 2
REMARK VINA RESULT:    -8.333      3.604      7.895
REMARK INTER + INTRA:         -12.324
REMARK INTER:                 -11.578
REMARK INTRA:                  -0.746
REMARK UNBOUND:                -1.068
REMARK  Name = 
REMARK  6 active torsions:
REMARK  status: ('A' for Active; 'I' for Inactive)
REMARK    1  A    between atoms: C_2  and  C_4
REMARK    2  A    between atoms: N_8  and  C_9
REMARK    3  A    between atoms: C_9  and  C_10
REMARK    4  A    between atoms: C_10  and  C_13
REMARK    5  A    between atoms: C_18  and  O_19
REMARK    6  A    between atoms: O_19  and  C_20
REMARK                            x       y       z     vdW  Elec       q    Type
REMARK                         _______ _______ _______ _____ _____    ______ ____
ROOT
ATOM      1  C   UNL     1      45.777   6.884  12.075  0.00  0.00    +0.000 C 
ATOM      2  F   UNL     1      45.467   7.524  13.247  0.00  0.00    +0.000 F 
ATOM      3  F   UNL     1      45.444   7.775  11.092  0.00  0.00    +0.000 F 
ENDROOT
BRANCH   1   4
ATOM      4  C   UNL     1      45.014   5.581  11.919  0.00  0.00    +0.000 A 
ATOM      5  C   UNL     1      44.170   5.133  12.948  0.00  0.00    +0.000 A 
ATOM      6  C   UNL     1      43.453   3.946  12.807  0.00  0.00    +0.000 A 
ATOM      7  C   UNL     1      43.576   3.189  11.643  0.00  0.00    +0.000 A 
ATOM      8  F   UNL     1      42.851   2.067  11.546  0.00  0.00    +0.000 F 
ATOM      9  C   UNL     1      44.419   3.604  10.613  0.00  0.00    +0.000 A 
ATOM     10  C   UNL     1      45.128   4.804  10.753  0.00  0.00    +0.000 A 
BRANCH   9  11
ATOM     11  O   UNL     1      44.610   2.952   9.419  0.00  0.00    +0.000 OA
BRANCH  11  12
ATOM     12  C   UNL     1      45.940   2.872   8.859  0.00  0.00    +0.000 C 
ATOM     13  C   UNL     1      46.204   3.666   7.562  0.00  0.00    +0.000 C 
ATOM     14  C   UNL     1      46.860   2.416   6.954  0.00  0.00    +0.000 C 
ATOM     15  F   UNL     1      46.475   2.112   5.694  0.00  0.00    +0.000 F 
ATOM     16  F   UNL     1      48.212   2.415   6.957  0.00  0.00    +0.000 F 
ATOM     17  C   UNL     1      46.205   1.577   8.063  0.00  0.00    +0.000 C 
ENDBRANCH  11  12
ENDBRANCH   9  11
ENDBRANCH   1   4
BRANCH   1  18
ATOM     18  C   UNL     1      47.312   6.659  12.054  0.00  0.00    +0.000 C 
BRANCH  18  23
ATOM     19  C   UNL     1      47.856   4.257  16.404  0.00  0.00    +0.000 A 
ATOM     20  C   UNL     1      48.381   5.523  16.642  0.00  0.00    +0.000 A 
ATOM     21  C   UNL     1      48.402   6.452  15.600  0.00  0.00    +0.000 A 
ATOM     22  C   UNL     1      47.890   6.109  14.348  0.00  0.00    +0.000 A 
ATOM     23  N   UNL     1      47.951   7.062  13.326  0.00  0.00    +0.000 N 
ATOM     24  N   UNL     1      47.410   4.874  14.102  0.00  0.00    +0.000 NA
ATOM     25  C   UNL     1      47.409   3.975  15.122  0.00  0.00    +0.000 A 
ATOM     26  H   UNL     1      47.610   7.962  13.652  0.00  0.00    +0.000 HD
BRANCH  19  28
ATOM     27  N   UNL     1      48.918   2.924  18.136  0.00  0.00    +0.000 N 
ATOM     28  C   UNL     1      47.775   3.206  17.439  0.00  0.00    +0.000 C 
ATOM     29  O   UNL     1      46.722   2.640  17.696  0.00  0.00    +0.000 OA
ATOM     30  H   UNL     1      48.822   2.283  18.914  0.00  0.00    +0.000 HD
ATOM     31  H   UNL     1      49.727   3.529  18.129  0.00  0.00    +0.000 HD
ENDBRANCH  19  28
ENDBRANCH  18  23
ENDBRANCH   1  18
TORSDOF 6
ENDMDL
MODEL 3
REMARK VINA RESULT:    -7.518      3.963      8.479
REMARK INTER + INTRA:         -11.223
REMARK INTER:                 -10.683
REMARK INTRA:                  -0.540
REMARK UNBOUND:                -1.068
REMARK  Name = 
REMARK  6 active torsions:
REMARK  status: ('A' for Active; 'I' for Inactive)
REMARK    1  A    between atoms: C_2  and  C_4
REMARK    2  A    between atoms: N_8  and  C_9
REMARK    3  A    between atoms: C_9  and  C_10
REMARK    4  A    between atoms: C_10  and  C_13
REMARK    5  A    between atoms: C_18  and  O_19
REMARK    6  A    between atoms: O_19  and  C_20
REMARK                            x       y       z     vdW  Elec       q    Type
REMARK                         _______ _______ _______ _____ _____    ______ ____
ROOT
ATOM      1  C   UNL     1      46.199   6.338  12.513  0.00  0.00    +0.000 C 
ATOM      2  F   UNL     1      45.576   7.326  13.231  0.00  0.00    +0.000 F 
ATOM      3  F   UNL     1      46.625   6.955  11.369  0.00  0.00    +0.000 F 
ENDROOT
BRANCH   1   4
ATOM      4  C   UNL     1      45.264   5.184  12.201  0.00  0.00    +0.000 A 
ATOM      5  C   UNL     1      44.282   4.804  13.130  0.00  0.00    +0.000 A 
ATOM      6  C   UNL     1      43.408   3.756  12.846  0.00  0.00    +0.000 A 
ATOM      7  C   UNL     1      43.510   3.070  11.637  0.00  0.00    +0.000 A 
ATOM      8  F   UNL     1      42.635   2.084  11.400  0.00  0.00    +0.000 F 
ATOM      9  C   UNL     1      44.486   3.417  10.703  0.00  0.00    +0.000 A 
ATOM     10  C   UNL     1      45.354   4.480  10.987  0.00  0.00    +0.000 A 
BRANCH   9  11
ATOM     11  O   UNL     1      44.673   2.826   9.478  0.00  0.00    +0.000 OA
BRANCH  11  12
ATOM     12  C   UNL     1      45.982   2.863   8.864  0.00  0.00    +0.000 C 
ATOM     13  C   UNL     1      46.132   3.714   7.585  0.00  0.00    +0.000 C 
ATOM     14  C   UNL     1      46.853   2.535   6.911  0.00  0.00    +0.000 C 
ATOM     15  F   UNL     1      46.441   2.241   5.657  0.00  0.00    +0.000 F 
ATOM     16  F   UNL     1      48.201   2.636   6.861  0.00  0.00    +0.000 F 
ATOM     17  C   UNL     1      46.308   1.617   8.016  0.00  0.00    +0.000 C 
ENDBRANCH  11  12
ENDBRANCH   9  11
ENDBRANCH   1   4
BRANCH   1  18
ATOM     18  C   UNL     1      47.436   5.874  13.326  0.00  0.00    +0.000 C 
BRANCH  18  23
ATOM     19  C   UNL     1      48.720   4.620  17.993  0.00  0.00    +0.000 A 
ATOM     20  C   UNL     1      48.059   3.498  17.504  0.00  0.00    +0.000 A 
ATOM     21  C   UNL     1      47.542   3.530  16.208  0.00  0.00    +0.000 A 
ATOM     22  C   UNL     1      47.704   4.669  15.419  0.00  0.00    +0.000 A 
ATOM     23  N   UNL     1      47.151   4.668  14.134  0.00  0.00    +0.000 N 
ATOM     24  N   UNL     1      48.315   5.772  15.898  0.00  0.00    +0.000 NA
ATOM     25  C   UNL     1      48.801   5.731  17.167  0.00  0.00    +0.000 A 
ATOM     26  H   UNL     1      47.395   3.814  13.638  0.00  0.00    +0.000 HD
BRANCH  19  28
ATOM     27  N   UNL     1      50.614   4.276  19.475  0.00  0.00    +0.000 N 
ATOM     28  C   UNL     1      49.315   4.686  19.344  0.00  0.00    +0.000 C 
ATOM     29  O   UNL     1      48.692   5.128  20.297  0.00  0.00    +0.000 OA
ATOM     30  H   UNL     1      51.043   4.429  20.380  0.00  0.00    +0.000 HD
ATOM     31  H   UNL     1      51.229   4.143  18.686  0.00  0.00    +0.000 HD
ENDBRANCH  19  28
ENDBRANCH  18  23
ENDBRANCH   1  18
TORSDOF 6
ENDMDL
MODEL 4
REMARK VINA RESULT:    -7.314      3.917      8.608
REMARK INTER + INTRA:         -10.947
REMARK INTER:                 -10.222
REMARK INTRA:                  -0.725
REMARK UNBOUND:                -1.068
REMARK  Name = 
REMARK  6 active torsions:
REMARK  status: ('A' for Active; 'I' for Inactive)
REMARK    1  A    between atoms: C_2  and  C_4
REMARK    2  A    between atoms: N_8  and  C_9
REMARK    3  A    between atoms: C_9  and  C_10
REMARK    4  A    between atoms: C_10  and  C_13
REMARK    5  A    between atoms: C_18  and  O_19
REMARK    6  A    between atoms: O_19  and  C_20
REMARK                            x       y       z     vdW  Elec       q    Type
REMARK                         _______ _______ _______ _____ _____    ______ ____
ROOT
ATOM      1  C   UNL     1      47.393   7.034  12.322  0.00  0.00    +0.000 C 
ATOM      2  F   UNL     1      47.222   8.291  12.841  0.00  0.00    +0.000 F 
ATOM      3  F   UNL     1      48.165   7.220  11.208  0.00  0.00    +0.000 F 
ENDROOT
BRANCH   1   4
ATOM      4  C   UNL     1      46.070   6.378  11.971  0.00  0.00    +0.000 A 
ATOM      5  C   UNL     1      44.866   7.069  12.182  0.00  0.00    +0.000 A 
ATOM      6  C   UNL     1      43.646   6.480  11.848  0.00  0.00    +0.000 A 
ATOM      7  C   UNL     1      43.615   5.195  11.310  0.00  0.00    +0.000 A 
ATOM      8  F   UNL     1      42.422   4.680  10.987  0.00  0.00    +0.000 F 
ATOM      9  C   UNL     1      44.796   4.482  11.105  0.00  0.00    +0.000 A 
ATOM     10  C   UNL     1      46.020   5.082  11.430  0.00  0.00    +0.000 A 
BRANCH   9  11
ATOM     11  O   UNL     1      44.891   3.220  10.571  0.00  0.00    +0.000 OA
BRANCH  11  12
ATOM     12  C   UNL     1      44.855   3.053   9.135  0.00  0.00    +0.000 C 
ATOM     13  C   UNL     1      45.846   2.040   8.523  0.00  0.00    +0.000 C 
ATOM     14  C   UNL     1      46.241   3.093   7.475  0.00  0.00    +0.000 C 
ATOM     15  F   UNL     1      47.570   3.241   7.272  0.00  0.00    +0.000 F 
ATOM     16  F   UNL     1      45.679   2.933   6.256  0.00  0.00    +0.000 F 
ATOM     17  C   UNL     1      45.587   4.166   8.359  0.00  0.00    +0.000 C 
ENDBRANCH  11  12
ENDBRANCH   9  11
ENDBRANCH   1   4
BRANCH   1  18
ATOM     18  C   UNL     1      48.194   6.201  13.357  0.00  0.00    +0.000 C 
BRANCH  18  23
ATOM     19  C   UNL     1      48.712   5.158  18.219  0.00  0.00    +0.000 A 
ATOM     20  C   UNL     1      49.023   6.510  18.122  0.00  0.00    +0.000 A 
ATOM     21  C   UNL     1      48.997   7.121  16.867  0.00  0.00    +0.000 A 
ATOM     22  C   UNL     1      48.649   6.381  15.737  0.00  0.00    +0.000 A 
ATOM     23  N   UNL     1      48.657   7.025  14.496  0.00  0.00    +0.000 N 
ATOM     24  N   UNL     1      48.378   5.062  15.820  0.00  0.00    +0.000 NA
ATOM     25  C   UNL     1      48.422   4.477  17.046  0.00  0.00    +0.000 A 
ATOM     26  H   UNL     1      48.160   7.911  14.548  0.00  0.00    +0.000 HD
BRANCH  19  28
ATOM     27  N   UNL     1      48.350   3.096  19.453  0.00  0.00    +0.000 N 
ATOM     28  C   UNL     1      48.698   4.419  19.499  0.00  0.00    +0.000 C 
ATOM     29  O   UNL     1      49.024   4.951  20.549  0.00  0.00    +0.000 OA
ATOM     30  H   UNL     1      48.450   2.577  20.317  0.00  0.00    +0.000 HD
ATOM     31  H   UNL     1      48.317   2.568  18.594  0.00  0.00    +0.000 HD
ENDBRANCH  19  28
ENDBRANCH  18  23
ENDBRANCH   1  18
TORSDOF 6
ENDMDL
MODEL 5
REMARK VINA RESULT:    -7.240      3.962      8.015
REMARK INTER + INTRA:         -10.848
REMARK INTER:                  -9.828
REMARK INTRA:                  -1.020
REMARK UNBOUND:                -1.068
REMARK  Name = 
REMARK  6 active torsions:
REMARK  status: ('A' for Active; 'I' for Inactive)
REMARK    1  A    between atoms: C_2  and  C_4
REMARK    2  A    between atoms: N_8  and  C_9
REMARK    3  A    between atoms: C_9  and  C_10
REMARK    4  A    between atoms: C_10  and  C_13
REMARK    5  A    between atoms: C_18  and  O_19
REMARK    6  A    between atoms: O_19  and  C_20
REMARK                            x       y       z     vdW  Elec       q    Type
REMARK                         _______ _______ _______ _____ _____    ______ ____
ROOT
ATOM      1  C   UNL     1      48.258   8.732  12.521  0.00  0.00    +0.000 C 
ATOM      2  F   UNL     1      48.207   9.484  13.666  0.00  0.00    +0.000 F 
ATOM      3  F   UNL     1      48.760   9.578  11.571  0.00  0.00    +0.000 F 
ENDROOT
BRANCH   1   4
ATOM      4  C   UNL     1      46.890   8.207  12.124  0.00  0.00    +0.000 A 
ATOM      5  C   UNL     1      45.808   9.092  11.995  0.00  0.00    +0.000 A 
ATOM      6  C   UNL     1      44.552   8.622  11.615  0.00  0.00    +0.000 A 
ATOM      7  C   UNL     1      44.360   7.263  11.369  0.00  0.00    +0.000 A 
ATOM      8  F   UNL     1      43.140   6.862  10.987  0.00  0.00    +0.000 F 
ATOM      9  C   UNL     1      45.414   6.361  11.506  0.00  0.00    +0.000 A 
ATOM     10  C   UNL     1      46.678   6.839  11.875  0.00  0.00    +0.000 A 
BRANCH   9  11
ATOM     11  O   UNL     1      45.349   5.008  11.278  0.00  0.00    +0.000 OA
BRANCH  11  12
ATOM     12  C   UNL     1      44.796   4.523  10.033  0.00  0.00    +0.000 C 
ATOM     13  C   UNL     1      44.878   3.004   9.775  0.00  0.00    +0.000 C 
ATOM     14  C   UNL     1      45.420   3.293   8.366  0.00  0.00    +0.000 C 
ATOM     15  F   UNL     1      46.497   2.564   7.996  0.00  0.00    +0.000 F 
ATOM     16  F   UNL     1      44.517   3.183   7.366  0.00  0.00    +0.000 F 
ATOM     17  C   UNL     1      45.722   4.731   8.817  0.00  0.00    +0.000 C 
ENDBRANCH  11  12
ENDBRANCH   9  11
ENDBRANCH   1   4
BRANCH   1  18
ATOM     18  C   UNL     1      49.271   7.581  12.758  0.00  0.00    +0.000 C 
BRANCH  18  23
ATOM     19  C   UNL     1      48.096   4.901  16.812  0.00  0.00    +0.000 A 
ATOM     20  C   UNL     1      49.051   5.807  17.262  0.00  0.00    +0.000 A 
ATOM     21  C   UNL     1      49.615   6.703  16.352  0.00  0.00    +0.000 A 
ATOM     22  C   UNL     1      49.208   6.692  15.018  0.00  0.00    +0.000 A 
ATOM     23  N   UNL     1      49.813   7.592  14.134  0.00  0.00    +0.000 N 
ATOM     24  N   UNL     1      48.306   5.796  14.568  0.00  0.00    +0.000 NA
ATOM     25  C   UNL     1      47.777   4.919  15.462  0.00  0.00    +0.000 A 
ATOM     26  H   UNL     1      49.827   8.529  14.528  0.00  0.00    +0.000 HD
BRANCH  19  28
ATOM     27  N   UNL     1      47.852   3.861  18.993  0.00  0.00    +0.000 N 
ATOM     28  C   UNL     1      47.430   3.921  17.693  0.00  0.00    +0.000 C 
ATOM     29  O   UNL     1      46.511   3.222  17.294  0.00  0.00    +0.000 OA
ATOM     30  H   UNL     1      47.315   3.265  19.612  0.00  0.00    +0.000 HD
ATOM     31  H   UNL     1      48.422   4.578  19.418  0.00  0.00    +0.000 HD
ENDBRANCH  19  28
ENDBRANCH  18  23
ENDBRANCH   1  18
TORSDOF 6
ENDMDL
MODEL 6
REMARK VINA RESULT:    -7.053      3.924      6.366
REMARK INTER + INTRA:         -10.596
REMARK INTER:                  -9.766
REMARK INTRA:                  -0.830
REMARK UNBOUND:                -1.068
REMARK  Name = 
REMARK  6 active torsions:
REMARK  status: ('A' for Active; 'I' for Inactive)
REMARK    1  A    between atoms: C_2  and  C_4
REMARK    2  A    between atoms: N_8  and  C_9
REMARK    3  A    between atoms: C_9  and  C_10
REMARK    4  A    between atoms: C_10  and  C_13
REMARK    5  A    between atoms: C_18  and  O_19
REMARK    6  A    between atoms: O_19  and  C_20
REMARK                            x       y       z     vdW  Elec       q    Type
REMARK                         _______ _______ _______ _____ _____    ______ ____
ROOT
ATOM      1  C   UNL     1      47.451   3.778  17.343  0.00  0.00    +0.000 C 
ATOM      2  F   UNL     1      46.489   4.711  17.633  0.00  0.00    +0.000 F 
ATOM      3  F   UNL     1      46.914   2.587  17.749  0.00  0.00    +0.000 F 
ENDROOT
BRANCH   1   4
ATOM      4  C   UNL     1      48.757   4.066  18.061  0.00  0.00    +0.000 A 
ATOM      5  C   UNL     1      48.752   4.783  19.268  0.00  0.00    +0.000 A 
ATOM      6  C   UNL     1      49.946   5.039  19.942  0.00  0.00    +0.000 A 
ATOM      7  C   UNL     1      51.156   4.590  19.415  0.00  0.00    +0.000 A 
ATOM      8  F   UNL     1      52.273   4.842  20.109  0.00  0.00    +0.000 F 
ATOM      9  C   UNL     1      51.189   3.890  18.210  0.00  0.00    +0.000 A 
ATOM     10  C   UNL     1      49.986   3.623  17.542  0.00  0.00    +0.000 A 
BRANCH   9  11
ATOM     11  O   UNL     1      52.314   3.388  17.602  0.00  0.00    +0.000 OA
BRANCH  11  12
ATOM     12  C   UNL     1      52.951   2.210  18.149  0.00  0.00    +0.000 C 
ATOM     13  C   UNL     1      54.309   1.802  17.540  0.00  0.00    +0.000 C 
ATOM     14  C   UNL     1      53.798   0.356  17.425  0.00  0.00    +0.000 C 
ATOM     15  F   UNL     1      54.034  -0.252  16.240  0.00  0.00    +0.000 F 
ATOM     16  F   UNL     1      54.235  -0.488  18.386  0.00  0.00    +0.000 F 
ATOM     17  C   UNL     1      52.368   0.883  17.620  0.00  0.00    +0.000 C 
ENDBRANCH  11  12
ENDBRANCH   9  11
ENDBRANCH   1   4
BRANCH   1  18
ATOM     18  C   UNL     1      47.632   3.751  15.803  0.00  0.00    +0.000 C 
BRANCH  18  23
ATOM     19  C   UNL     1      44.999   4.246  11.581  0.00  0.00    +0.000 A 
ATOM     20  C   UNL     1      45.165   5.549  12.039  0.00  0.00    +0.000 A 
ATOM     21  C   UNL     1      45.851   5.763  13.236  0.00  0.00    +0.000 A 
ATOM     22  C   UNL     1      46.371   4.681  13.945  0.00  0.00    +0.000 A 
ATOM     23  N   UNL     1      47.033   4.936  15.151  0.00  0.00    +0.000 N 
ATOM     24  N   UNL     1      46.187   3.413  13.524  0.00  0.00    +0.000 NA
ATOM     25  C   UNL     1      45.503   3.219  12.365  0.00  0.00    +0.000 A 
ATOM     26  H   UNL     1      47.709   5.688  15.038  0.00  0.00    +0.000 HD
BRANCH  19  28
ATOM     27  N   UNL     1      44.331   4.846   9.324  0.00  0.00    +0.000 N 
ATOM     28  C   UNL     1      44.301   3.912  10.323  0.00  0.00    +0.000 C 
ATOM     29  O   UNL     1      43.756   2.830  10.161  0.00  0.00    +0.000 OA
ATOM     30  H   UNL     1      43.945   4.561   8.432  0.00  0.00    +0.000 HD
ATOM     31  H   UNL     1      44.968   5.630   9.326  0.00  0.00    +0.000 HD
ENDBRANCH  19  28
ENDBRANCH  18  23
ENDBRANCH   1  18
TORSDOF 6
ENDMDL
MODEL 7
REMARK VINA RESULT:    -6.978      3.184      4.689
REMARK INTER + INTRA:         -10.493
REMARK INTER:                  -9.342
REMARK INTRA:                  -1.151
REMARK UNBOUND:                -1.068
REMARK  Name = 
REMARK  6 active torsions:
REMARK  status: ('A' for Active; 'I' for Inactive)
REMARK    1  A    between atoms: C_2  and  C_4
REMARK    2  A    between atoms: N_8  and  C_9
REMARK    3  A    between atoms: C_9  and  C_10
REMARK    4  A    between atoms: C_10  and  C_13
REMARK    5  A    between atoms: C_18  and  O_19
REMARK    6  A    between atoms: O_19  and  C_20
REMARK                            x       y       z     vdW  Elec       q    Type
REMARK                         _______ _______ _______ _____ _____    ______ ____
ROOT
ATOM      1  C   UNL     1      48.188   8.376  12.383  0.00  0.00    +0.000 C 
ATOM      2  F   UNL     1      48.713   7.312  11.697  0.00  0.00    +0.000 F 
ATOM      3  F   UNL     1      48.799   9.474  11.844  0.00  0.00    +0.000 F 
ENDROOT
BRANCH   1   4
ATOM      4  C   UNL     1      48.451   8.277  13.876  0.00  0.00    +0.000 A 
ATOM      5  C   UNL     1      48.208   9.382  14.706  0.00  0.00    +0.000 A 
ATOM      6  C   UNL     1      48.431   9.296  16.080  0.00  0.00    +0.000 A 
ATOM      7  C   UNL     1      48.908   8.111  16.637  0.00  0.00    +0.000 A 
ATOM      8  F   UNL     1      49.087   8.069  17.964  0.00  0.00    +0.000 F 
ATOM      9  C   UNL     1      49.172   7.003  15.832  0.00  0.00    +0.000 A 
ATOM     10  C   UNL     1      48.934   7.090  14.453  0.00  0.00    +0.000 A 
BRANCH   9  11
ATOM     11  O   UNL     1      49.628   5.783  16.266  0.00  0.00    +0.000 OA
BRANCH  11  12
ATOM     12  C   UNL     1      48.740   4.917  17.011  0.00  0.00    +0.000 C 
ATOM     13  C   UNL     1      49.337   3.601  17.552  0.00  0.00    +0.000 C 
ATOM     14  C   UNL     1      48.123   2.844  16.989  0.00  0.00    +0.000 C 
ATOM     15  F   UNL     1      48.408   1.712  16.307  0.00  0.00    +0.000 F 
ATOM     16  F   UNL     1      47.175   2.520  17.897  0.00  0.00    +0.000 F 
ATOM     17  C   UNL     1      47.804   4.072  16.123  0.00  0.00    +0.000 C 
ENDBRANCH  11  12
ENDBRANCH   9  11
ENDBRANCH   1   4
BRANCH   1  18
ATOM     18  C   UNL     1      46.670   8.437  12.068  0.00  0.00    +0.000 C 
BRANCH  18  23
ATOM     19  C   UNL     1      44.359   4.036  11.532  0.00  0.00    +0.000 A 
ATOM     20  C   UNL     1      44.020   4.450  12.817  0.00  0.00    +0.000 A 
ATOM     21  C   UNL     1      44.534   5.656  13.296  0.00  0.00    +0.000 A 
ATOM     22  C   UNL     1      45.361   6.434  12.486  0.00  0.00    +0.000 A 
ATOM     23  N   UNL     1      45.872   7.624  13.013  0.00  0.00    +0.000 N 
ATOM     24  N   UNL     1      45.720   6.024  11.252  0.00  0.00    +0.000 NA
ATOM     25  C   UNL     1      45.224   4.839  10.804  0.00  0.00    +0.000 A 
ATOM     26  H   UNL     1      45.135   8.169  13.451  0.00  0.00    +0.000 HD
BRANCH  19  28
ATOM     27  N   UNL     1      44.517   2.323   9.817  0.00  0.00    +0.000 N 
ATOM     28  C   UNL     1      43.860   2.785  10.925  0.00  0.00    +0.000 C 
ATOM     29  O   UNL     1      42.930   2.163  11.414  0.00  0.00    +0.000 OA
ATOM     30  H   UNL     1      44.236   1.411   9.477  0.00  0.00    +0.000 HD
ATOM     31  H   UNL     1      45.424   2.664   9.536  0.00  0.00    +0.000 HD
ENDBRANCH  19  28
ENDBRANCH  18  23
ENDBRANCH   1  18
TORSDOF 6
ENDMDL
MODEL 8
REMARK VINA RESULT:    -6.957      4.471      8.848
REMARK INTER + INTRA:         -10.465
REMARK INTER:                  -9.976
REMARK INTRA:                  -0.489
REMARK UNBOUND:                -1.068
REMARK  Name = 
REMARK  6 active torsions:
REMARK  status: ('A' for Active; 'I' for Inactive)
REMARK    1  A    between atoms: C_2  and  C_4
REMARK    2  A    between atoms: N_8  and  C_9
REMARK    3  A    between atoms: C_9  and  C_10
REMARK    4  A    between atoms: C_10  and  C_13
REMARK    5  A    between atoms: C_18  and  O_19
REMARK    6  A    between atoms: O_19  and  C_20
REMARK                            x       y       z     vdW  Elec       q    Type
REMARK                         _______ _______ _______ _____ _____    ______ ____
ROOT
ATOM      1  C   UNL     1      46.877   4.491  14.350  0.00  0.00    +0.000 C 
ATOM      2  F   UNL     1      47.505   3.276  14.263  0.00  0.00    +0.000 F 
ATOM      3  F   UNL     1      46.315   4.504  15.597  0.00  0.00    +0.000 F 
ENDROOT
BRANCH   1   4
ATOM      4  C   UNL     1      45.824   4.667  13.270  0.00  0.00    +0.000 A 
ATOM      5  C   UNL     1      45.140   5.887  13.149  0.00  0.00    +0.000 A 
ATOM      6  C   UNL     1      44.182   6.064  12.150  0.00  0.00    +0.000 A 
ATOM      7  C   UNL     1      43.893   5.023  11.269  0.00  0.00    +0.000 A 
ATOM      8  F   UNL     1      42.981   5.247  10.314  0.00  0.00    +0.000 F 
ATOM      9  C   UNL     1      44.547   3.797  11.378  0.00  0.00    +0.000 A 
ATOM     10  C   UNL     1      45.518   3.628  12.375  0.00  0.00    +0.000 A 
BRANCH   9  11
ATOM     11  O   UNL     1      44.357   2.709  10.562  0.00  0.00    +0.000 OA
BRANCH  11  12
ATOM     12  C   UNL     1      44.502   2.860   9.131  0.00  0.00    +0.000 C 
ATOM     13  C   UNL     1      45.370   1.813   8.401  0.00  0.00    +0.000 C 
ATOM     14  C   UNL     1      46.101   2.955   7.678  0.00  0.00    +0.000 C 
ATOM     15  F   UNL     1      47.450   2.857   7.651  0.00  0.00    +0.000 F 
ATOM     16  F   UNL     1      45.705   3.178   6.404  0.00  0.00    +0.000 F 
ATOM     17  C   UNL     1      45.532   3.931   8.719  0.00  0.00    +0.000 C 
ENDBRANCH  11  12
ENDBRANCH   9  11
ENDBRANCH   1   4
BRANCH   1  18
ATOM     18  C   UNL     1      47.968   5.592  14.277  0.00  0.00    +0.000 C 
BRANCH  18  23
ATOM     19  C   UNL     1      50.171   5.297  18.755  0.00  0.00    +0.000 A 
ATOM     20  C   UNL     1      49.371   6.431  18.839  0.00  0.00    +0.000 A 
ATOM     21  C   UNL     1      48.624   6.816  17.724  0.00  0.00    +0.000 A 
ATOM     22  C   UNL     1      48.677   6.058  16.554  0.00  0.00    +0.000 A 
ATOM     23  N   UNL     1      47.931   6.491  15.452  0.00  0.00    +0.000 N 
ATOM     24  N   UNL     1      49.475   4.976  16.455  0.00  0.00    +0.000 NA
ATOM     25  C   UNL     1      50.208   4.622  17.544  0.00  0.00    +0.000 A 
ATOM     26  H   UNL     1      46.978   6.713  15.728  0.00  0.00    +0.000 HD
BRANCH  19  28
ATOM     27  N   UNL     1      52.030   3.963  19.573  0.00  0.00    +0.000 N 
ATOM     28  C   UNL     1      50.989   4.797  19.879  0.00  0.00    +0.000 C 
ATOM     29  O   UNL     1      50.776   5.145  21.031  0.00  0.00    +0.000 OA
ATOM     30  H   UNL     1      52.647   3.717  20.337  0.00  0.00    +0.000 HD
ATOM     31  H   UNL     1      52.386   3.854  18.634  0.00  0.00    +0.000 HD
ENDBRANCH  19  28
ENDBRANCH  18  23
ENDBRANCH   1  18
TORSDOF 6
ENDMDL
MODEL 9
REMARK VINA RESULT:    -6.857      4.068      7.583
REMARK INTER + INTRA:         -10.331
REMARK INTER:                  -9.023
REMARK INTRA:                  -1.308
REMARK UNBOUND:                -1.068
REMARK  Name = 
REMARK  6 active torsions:
REMARK  status: ('A' for Active; 'I' for Inactive)
REMARK    1  A    between atoms: C_2  and  C_4
REMARK    2  A    between atoms: N_8  and  C_9
REMARK    3  A    between atoms: C_9  and  C_10
REMARK    4  A    between atoms: C_10  and  C_13
REMARK    5  A    between atoms: C_18  and  O_19
REMARK    6  A    between atoms: O_19  and  C_20
REMARK                            x       y       z     vdW  Elec       q    Type
REMARK                         _______ _______ _______ _____ _____    ______ ____
ROOT
ATOM      1  C   UNL     1      48.522   9.235  12.499  0.00  0.00    +0.000 C 
ATOM      2  F   UNL     1      48.757   9.944  13.649  0.00  0.00    +0.000 F 
ATOM      3  F   UNL     1      49.314   9.830  11.555  0.00  0.00    +0.000 F 
ENDROOT
BRANCH   1   4
ATOM      4  C   UNL     1      47.059   9.275  12.095  0.00  0.00    +0.000 A 
ATOM      5  C   UNL     1      46.462  10.494  11.737  0.00  0.00    +0.000 A 
ATOM      6  C   UNL     1      45.124  10.539  11.349  0.00  0.00    +0.000 A 
ATOM      7  C   UNL     1      44.365   9.370  11.323  0.00  0.00    +0.000 A 
ATOM      8  F   UNL     1      43.090   9.459  10.924  0.00  0.00    +0.000 F 
ATOM      9  C   UNL     1      44.930   8.148  11.689  0.00  0.00    +0.000 A 
ATOM     10  C   UNL     1      46.279   8.106  12.065  0.00  0.00    +0.000 A 
BRANCH   9  11
ATOM     11  O   UNL     1      44.289   6.933  11.688  0.00  0.00    +0.000 OA
BRANCH  11  12
ATOM     12  C   UNL     1      45.027   5.741  12.043  0.00  0.00    +0.000 C 
ATOM     13  C   UNL     1      45.172   4.658  10.953  0.00  0.00    +0.000 C 
ATOM     14  C   UNL     1      44.745   3.597  11.981  0.00  0.00    +0.000 C 
ATOM     15  F   UNL     1      43.817   2.712  11.552  0.00  0.00    +0.000 F 
ATOM     16  F   UNL     1      45.754   2.872  12.514  0.00  0.00    +0.000 F 
ATOM     17  C   UNL     1      44.212   4.728  12.874  0.00  0.00    +0.000 C 
ENDBRANCH  11  12
ENDBRANCH   9  11
ENDBRANCH   1   4
BRANCH   1  18
ATOM     18  C   UNL     1      49.018   7.783  12.730  0.00  0.00    +0.000 C 
BRANCH  18  23
ATOM     19  C   UNL     1      48.123   4.868  16.691  0.00  0.00    +0.000 A 
ATOM     20  C   UNL     1      49.201   5.656  17.080  0.00  0.00    +0.000 A 
ATOM     21  C   UNL     1      49.724   6.580  16.174  0.00  0.00    +0.000 A 
ATOM     22  C   UNL     1      49.156   6.713  14.907  0.00  0.00    +0.000 A 
ATOM     23  N   UNL     1      49.724   7.636  14.021  0.00  0.00    +0.000 N 
ATOM     24  N   UNL     1      48.132   5.930  14.512  0.00  0.00    +0.000 NA
ATOM     25  C   UNL     1      47.643   5.024  15.400  0.00  0.00    +0.000 A 
ATOM     26  H   UNL     1      49.867   8.532  14.479  0.00  0.00    +0.000 HD
BRANCH  19  28
ATOM     27  N   UNL     1      47.981   3.758  18.848  0.00  0.00    +0.000 N 
ATOM     28  C   UNL     1      47.487   3.870  17.577  0.00  0.00    +0.000 C 
ATOM     29  O   UNL     1      46.533   3.202  17.207  0.00  0.00    +0.000 OA
ATOM     30  H   UNL     1      47.468   3.151  19.476  0.00  0.00    +0.000 HD
ATOM     31  H   UNL     1      48.589   4.449  19.263  0.00  0.00    +0.000 HD
ENDBRANCH  19  28
ENDBRANCH  18  23
ENDBRANCH   1  18
TORSDOF 6
ENDMDL
