MODEL 1
REMARK VINA RESULT:    -8.211      0.000      0.000
REMARK INTER + INTRA:         -11.520
REMARK INTER:                 -10.610
REMARK INTRA:                  -0.910
REMARK UNBOUND:                -0.910
REMARK  Name = 
REMARK  5 active torsions:
REMARK  status: ('A' for Active; 'I' for Inactive)
REMARK    1  A    between atoms: C_2  and  C_3
REMARK    2  A    between atoms: C_6  and  N_7
REMARK    3  A    between atoms: N_7  and  C_8
REMARK    4  A    between atoms: C_8  and  C_9
REMARK    5  A    between atoms: C_13  and  C_14
REMARK                            x       y       z     vdW  Elec       q    Type
REMARK                         _______ _______ _______ _____ _____    ______ ____
ROOT
ATOM      1  C   UNL     1      43.825   5.036  11.227  0.00  0.00    +0.000 C 
ATOM      2  C   UNL     1      42.493   5.187  11.965  0.00  0.00    +0.000 C 
ATOM      3  C   UNL     1      42.932   6.245  11.016  0.00  0.00    +0.000 C 
ENDROOT
BRANCH   1   4
ATOM      4  C   UNL     1      45.085   5.274  12.060  0.00  0.00    +0.000 A 
ATOM      5  C   UNL     1      45.507   4.350  13.023  0.00  0.00    +0.000 A 
ATOM      6  C   UNL     1      46.769   4.454  13.603  0.00  0.00    +0.000 A 
ATOM      7  C   UNL     1      47.613   5.518  13.273  0.00  0.00    +0.000 A 
ATOM      8  C   UNL     1      47.197   6.530  12.395  0.00  0.00    +0.000 A 
ATOM      9  C   UNL     1      45.926   6.377  11.806  0.00  0.00    +0.000 A 
BRANCH   8  10
ATOM     10  C   UNL     1      48.040   7.709  12.078  0.00  0.00    +0.000 A 
ATOM     11  C   UNL     1      49.387   7.541  11.689  0.00  0.00    +0.000 A 
ATOM     12  C   UNL     1      50.215   8.632  11.401  0.00  0.00    +0.000 A 
ATOM     13  C   UNL     1      49.712   9.925  11.473  0.00  0.00    +0.000 A 
ATOM     14  C   UNL     1      48.385  10.125  11.841  0.00  0.00    +0.000 A 
ATOM     15  C   UNL     1      47.569   9.030  12.144  0.00  0.00    +0.000 A 
ATOM     16  F   UNL     1      46.307   9.289  12.522  0.00  0.00    +0.000 F 
ENDBRANCH   8  10
ENDBRANCH   1   4
BRANCH   1  17
ATOM     17  N   UNL     1      43.902   3.881  10.337  0.00  0.00    +0.000 N 
ATOM     18  H   UNL     1      43.356   3.055  10.560  0.00  0.00    +0.000 HD
BRANCH  17  22
ATOM     19  C   UNL     1      46.658   2.679   7.538  0.00  0.00    +0.000 A 
ATOM     20  C   UNL     1      46.033   1.799   8.402  0.00  0.00    +0.000 A 
ATOM     21  N   UNL     1      45.144   2.210   9.347  0.00  0.00    +0.000 NA
ATOM     22  C   UNL     1      44.888   3.537   9.423  0.00  0.00    +0.000 A 
ATOM     23  C   UNL     1      45.553   4.410   8.564  0.00  0.00    +0.000 A 
ATOM     24  N   UNL     1      46.442   4.011   7.607  0.00  0.00    +0.000 NA
BRANCH  19  26
ATOM     25  N   UNL     1      48.274   1.773   5.717  0.00  0.00    +0.000 NA
ATOM     26  C   UNL     1      47.543   2.195   6.512  0.00  0.00    +0.000 C 
ENDBRANCH  19  26
ENDBRANCH  17  22
ENDBRANCH   1  17
TORSDOF 5
ENDMDL
MODEL 2
REMARK VINA RESULT:    -7.929      2.098      3.841
REMARK INTER + INTRA:         -11.156
REMARK INTER:                 -11.070
REMARK INTRA:                  -0.086
REMARK UNBOUND:                -0.910
REMARK  Name = 
REMARK  5 active torsions:
REMARK  status: ('A' for Active; 'I' for Inactive)
REMARK    1  A    between atoms: C_2  and  C_3
REMARK    2  A    between atoms: C_6  and  N_7
REMARK    3  A    between atoms: N_7  and  C_8
REMARK    4  A    between atoms: C_8  and  C_9
REMARK    5  A    between atoms: C_13  and  C_14
REMARK                            x       y       z     vdW  Elec       q    Type
REMARK                         _______ _______ _______ _____ _____    ______ ____
ROOT
ATOM      1  C   UNL     1      44.073   4.862  11.709  0.00  0.00    +0.000 C 
ATOM      2  C   UNL     1      43.393   3.755  12.518  0.00  0.00    +0.000 C 
ATOM      3  C   UNL     1      42.920   5.159  12.650  0.00  0.00    +0.000 C 
ENDROOT
BRANCH   1   4
ATOM      4  C   UNL     1      45.458   5.293  12.193  0.00  0.00    +0.000 A 
ATOM      5  C   UNL     1      46.198   6.265  11.511  0.00  0.00    +0.000 A 
ATOM      6  C   UNL     1      47.341   6.820  12.082  0.00  0.00    +0.000 A 
ATOM      7  C   UNL     1      47.798   6.372  13.325  0.00  0.00    +0.000 A 
ATOM      8  C   UNL     1      47.154   5.325  14.002  0.00  0.00    +0.000 A 
ATOM      9  C   UNL     1      45.987   4.808  13.407  0.00  0.00    +0.000 A 
BRANCH   8  10
ATOM     10  C   UNL     1      47.654   4.779  15.288  0.00  0.00    +0.000 A 
ATOM     11  C   UNL     1      47.510   3.407  15.586  0.00  0.00    +0.000 A 
ATOM     12  C   UNL     1      47.953   2.862  16.796  0.00  0.00    +0.000 A 
ATOM     13  C   UNL     1      48.572   3.674  17.738  0.00  0.00    +0.000 A 
ATOM     14  C   UNL     1      48.741   5.029  17.471  0.00  0.00    +0.000 A 
ATOM     15  C   UNL     1      48.280   5.569  16.266  0.00  0.00    +0.000 A 
ATOM     16  F   UNL     1      48.444   6.888  16.079  0.00  0.00    +0.000 F 
ENDBRANCH   8  10
ENDBRANCH   1   4
BRANCH   1  17
ATOM     17  N   UNL     1      43.962   4.716  10.261  0.00  0.00    +0.000 N 
ATOM     18  H   UNL     1      43.081   4.948   9.812  0.00  0.00    +0.000 HD
BRANCH  17  22
ATOM     19  C   UNL     1      46.411   2.598   7.733  0.00  0.00    +0.000 A 
ATOM     20  C   UNL     1      46.243   3.968   7.643  0.00  0.00    +0.000 A 
ATOM     21  N   UNL     1      45.406   4.657   8.464  0.00  0.00    +0.000 NA
ATOM     22  C   UNL     1      44.721   3.946   9.391  0.00  0.00    +0.000 A 
ATOM     23  C   UNL     1      44.880   2.563   9.443  0.00  0.00    +0.000 A 
ATOM     24  N   UNL     1      45.722   1.859   8.630  0.00  0.00    +0.000 NA
BRANCH  19  26
ATOM     25  N   UNL     1      48.130   1.412   6.189  0.00  0.00    +0.000 NA
ATOM     26  C   UNL     1      47.353   1.918   6.886  0.00  0.00    +0.000 C 
ENDBRANCH  19  26
ENDBRANCH  17  22
ENDBRANCH   1  17
TORSDOF 5
ENDMDL
MODEL 3
REMARK VINA RESULT:    -7.553      3.621      7.067
REMARK INTER + INTRA:         -10.671
REMARK INTER:                  -9.786
REMARK INTRA:                  -0.885
REMARK UNBOUND:                -0.910
REMARK  Name = 
REMARK  5 active torsions:
REMARK  status: ('A' for Active; 'I' for Inactive)
REMARK    1  A    between atoms: C_2  and  C_3
REMARK    2  A    between atoms: C_6  and  N_7
REMARK    3  A    between atoms: N_7  and  C_8
REMARK    4  A    between atoms: C_8  and  C_9
REMARK    5  A    between atoms: C_13  and  C_14
REMARK                            x       y       z     vdW  Elec       q    Type
REMARK                         _______ _______ _______ _____ _____    ______ ____
ROOT
ATOM      1  C   UNL     1      46.158   7.294  12.429  0.00  0.00    +0.000 C 
ATOM      2  C   UNL     1      46.320   8.652  11.743  0.00  0.00    +0.000 C 
ATOM      3  C   UNL     1      45.459   8.536  12.950  0.00  0.00    +0.000 C 
ENDROOT
BRANCH   1   4
ATOM      4  C   UNL     1      45.268   6.280  11.710  0.00  0.00    +0.000 A 
ATOM      5  C   UNL     1      43.885   6.246  11.919  0.00  0.00    +0.000 A 
ATOM      6  C   UNL     1      43.058   5.489  11.092  0.00  0.00    +0.000 A 
ATOM      7  C   UNL     1      43.606   4.705  10.073  0.00  0.00    +0.000 A 
ATOM      8  C   UNL     1      44.994   4.619   9.888  0.00  0.00    +0.000 A 
ATOM      9  C   UNL     1      45.797   5.419  10.725  0.00  0.00    +0.000 A 
BRANCH   8  10
ATOM     10  C   UNL     1      45.611   3.743   8.862  0.00  0.00    +0.000 A 
ATOM     11  C   UNL     1      46.338   4.301   7.789  0.00  0.00    +0.000 A 
ATOM     12  C   UNL     1      46.918   3.505   6.794  0.00  0.00    +0.000 A 
ATOM     13  C   UNL     1      46.802   2.122   6.855  0.00  0.00    +0.000 A 
ATOM     14  C   UNL     1      46.101   1.538   7.907  0.00  0.00    +0.000 A 
ATOM     15  C   UNL     1      45.512   2.342   8.888  0.00  0.00    +0.000 A 
ATOM     16  F   UNL     1      44.824   1.722   9.859  0.00  0.00    +0.000 F 
ENDBRANCH   8  10
ENDBRANCH   1   4
BRANCH   1  17
ATOM     17  N   UNL     1      47.392   6.732  12.971  0.00  0.00    +0.000 N 
ATOM     18  H   UNL     1      48.200   6.647  12.362  0.00  0.00    +0.000 HD
BRANCH  17  22
ATOM     19  C   UNL     1      47.916   4.546  16.410  0.00  0.00    +0.000 A 
ATOM     20  C   UNL     1      48.642   5.689  16.128  0.00  0.00    +0.000 A 
ATOM     21  N   UNL     1      48.484   6.390  14.973  0.00  0.00    +0.000 NA
ATOM     22  C   UNL     1      47.578   5.921  14.083  0.00  0.00    +0.000 A 
ATOM     23  C   UNL     1      46.881   4.750  14.371  0.00  0.00    +0.000 A 
ATOM     24  N   UNL     1      47.025   4.041  15.530  0.00  0.00    +0.000 NA
BRANCH  19  26
ATOM     25  N   UNL     1      48.242   3.336  18.685  0.00  0.00    +0.000 NA
ATOM     26  C   UNL     1      48.070   3.872  17.671  0.00  0.00    +0.000 C 
ENDBRANCH  19  26
ENDBRANCH  17  22
ENDBRANCH   1  17
TORSDOF 5
ENDMDL
MODEL 4
REMARK VINA RESULT:    -6.769      4.261      7.797
REMARK INTER + INTRA:          -9.658
REMARK INTER:                  -8.700
REMARK INTRA:                  -0.958
REMARK UNBOUND:                -0.910
REMARK  Name = 
REMARK  5 active torsions:
REMARK  status: ('A' for Active; 'I' for Inactive)
REMARK    1  A    between atoms: C_2  and  C_3
REMARK    2  A    between atoms: C_6  and  N_7
REMARK    3  A    between atoms: N_7  and  C_8
REMARK    4  A    between atoms: C_8  and  C_9
REMARK    5  A    between atoms: C_13  and  C_14
REMARK                            x       y       z     vdW  Elec       q    Type
REMARK                         _______ _______ _______ _____ _____    ______ ____
ROOT
ATOM      1  C   UNL     1      49.012   7.840  12.782  0.00  0.00    +0.000 C 
ATOM      2  C   UNL     1      49.910   7.951  11.548  0.00  0.00    +0.000 C 
ATOM      3  C   UNL     1      49.568   9.174  12.321  0.00  0.00    +0.000 C 
ENDROOT
BRANCH   1   4
ATOM      4  C   UNL     1      47.525   7.607  12.511  0.00  0.00    +0.000 A 
ATOM      5  C   UNL     1      46.559   8.544  12.896  0.00  0.00    +0.000 A 
ATOM      6  C   UNL     1      45.247   8.440  12.440  0.00  0.00    +0.000 A 
ATOM      7  C   UNL     1      44.861   7.365  11.635  0.00  0.00    +0.000 A 
ATOM      8  C   UNL     1      45.764   6.341  11.309  0.00  0.00    +0.000 A 
ATOM      9  C   UNL     1      47.088   6.494  11.764  0.00  0.00    +0.000 A 
BRANCH   8  10
ATOM     10  C   UNL     1      45.369   5.151  10.516  0.00  0.00    +0.000 A 
ATOM     11  C   UNL     1      45.654   5.086   9.135  0.00  0.00    +0.000 A 
ATOM     12  C   UNL     1      45.281   3.986   8.353  0.00  0.00    +0.000 A 
ATOM     13  C   UNL     1      44.626   2.909   8.937  0.00  0.00    +0.000 A 
ATOM     14  C   UNL     1      44.340   2.936  10.299  0.00  0.00    +0.000 A 
ATOM     15  C   UNL     1      44.703   4.046  11.069  0.00  0.00    +0.000 A 
ATOM     16  F   UNL     1      44.372   4.026  12.370  0.00  0.00    +0.000 F 
ENDBRANCH   8  10
ENDBRANCH   1   4
BRANCH   1  17
ATOM     17  N   UNL     1      49.560   7.028  13.864  0.00  0.00    +0.000 N 
ATOM     18  H   UNL     1      50.175   6.255  13.633  0.00  0.00    +0.000 HD
BRANCH  17  22
ATOM     19  C   UNL     1      48.355   6.335  17.731  0.00  0.00    +0.000 A 
ATOM     20  C   UNL     1      48.366   5.351  16.759  0.00  0.00    +0.000 A 
ATOM     21  N   UNL     1      48.737   5.596  15.474  0.00  0.00    +0.000 NA
ATOM     22  C   UNL     1      49.098   6.863  15.164  0.00  0.00    +0.000 A 
ATOM     23  C   UNL     1      49.050   7.847  16.149  0.00  0.00    +0.000 A 
ATOM     24  N   UNL     1      48.686   7.613  17.445  0.00  0.00    +0.000 NA
BRANCH  19  26
ATOM     25  N   UNL     1      47.761   5.805  20.203  0.00  0.00    +0.000 NA
ATOM     26  C   UNL     1      48.017   6.018  19.092  0.00  0.00    +0.000 C 
ENDBRANCH  19  26
ENDBRANCH  17  22
ENDBRANCH   1  17
TORSDOF 5
ENDMDL
MODEL 5
REMARK VINA RESULT:    -6.365      3.358      5.996
REMARK INTER + INTRA:          -9.135
REMARK INTER:                  -8.302
REMARK INTRA:                  -0.834
REMARK UNBOUND:                -0.910
REMARK  Name = 
REMARK  5 active torsions:
REMARK  status: ('A' for Active; 'I' for Inactive)
REMARK    1  A    between atoms: C_2  and  C_3
REMARK    2  A    between atoms: C_6  and  N_7
REMARK    3  A    between atoms: N_7  and  C_8
REMARK    4  A    between atoms: C_8  and  C_9
REMARK    5  A    between atoms: C_13  and  C_14
REMARK                            x       y       z     vdW  Elec       q    Type
REMARK                         _______ _______ _______ _____ _____    ______ ____
ROOT
ATOM      1  C   UNL     1      47.963   8.070  12.561  0.00  0.00    +0.000 C 
ATOM      2  C   UNL     1      48.549   9.243  11.773  0.00  0.00    +0.000 C 
ATOM      3  C   UNL     1      49.096   7.875  11.571  0.00  0.00    +0.000 C 
ENDROOT
BRANCH   1   4
ATOM      4  C   UNL     1      48.348   7.994  14.039  0.00  0.00    +0.000 A 
ATOM      5  C   UNL     1      48.364   9.137  14.847  0.00  0.00    +0.000 A 
ATOM      6  C   UNL     1      48.481   9.028  16.230  0.00  0.00    +0.000 A 
ATOM      7  C   UNL     1      48.642   7.776  16.829  0.00  0.00    +0.000 A 
ATOM      8  C   UNL     1      48.740   6.608  16.058  0.00  0.00    +0.000 A 
ATOM      9  C   UNL     1      48.589   6.753  14.665  0.00  0.00    +0.000 A 
BRANCH   8  10
ATOM     10  C   UNL     1      48.980   5.272  16.656  0.00  0.00    +0.000 A 
ATOM     11  C   UNL     1      50.202   4.987  17.303  0.00  0.00    +0.000 A 
ATOM     12  C   UNL     1      50.468   3.733  17.862  0.00  0.00    +0.000 A 
ATOM     13  C   UNL     1      49.509   2.730  17.808  0.00  0.00    +0.000 A 
ATOM     14  C   UNL     1      48.288   2.981  17.189  0.00  0.00    +0.000 A 
ATOM     15  C   UNL     1      48.036   4.233  16.618  0.00  0.00    +0.000 A 
ATOM     16  F   UNL     1      46.853   4.404  16.008  0.00  0.00    +0.000 F 
ENDBRANCH   8  10
ENDBRANCH   1   4
BRANCH   1  17
ATOM     17  N   UNL     1      46.554   7.797  12.293  0.00  0.00    +0.000 N 
ATOM     18  H   UNL     1      45.862   8.491  12.558  0.00  0.00    +0.000 HD
BRANCH  17  22
ATOM     19  C   UNL     1      44.468   4.290  11.815  0.00  0.00    +0.000 A 
ATOM     20  C   UNL     1      44.725   4.848  13.053  0.00  0.00    +0.000 A 
ATOM     21  N   UNL     1      45.443   5.994  13.205  0.00  0.00    +0.000 NA
ATOM     22  C   UNL     1      45.916   6.582  12.081  0.00  0.00    +0.000 A 
ATOM     23  C   UNL     1      45.674   5.986  10.846  0.00  0.00    +0.000 A 
ATOM     24  N   UNL     1      44.948   4.840  10.678  0.00  0.00    +0.000 NA
BRANCH  19  26
ATOM     25  N   UNL     1      43.019   2.149  11.563  0.00  0.00    +0.000 NA
ATOM     26  C   UNL     1      43.651   3.112  11.696  0.00  0.00    +0.000 C 
ENDBRANCH  19  26
ENDBRANCH  17  22
ENDBRANCH   1  17
TORSDOF 5
ENDMDL
MODEL 6
REMARK VINA RESULT:    -6.364      5.807      8.348
REMARK INTER + INTRA:          -9.134
REMARK INTER:                  -8.538
REMARK INTRA:                  -0.596
REMARK UNBOUND:                -0.910
REMARK  Name = 
REMARK  5 active torsions:
REMARK  status: ('A' for Active; 'I' for Inactive)
REMARK    1  A    between atoms: C_2  and  C_3
REMARK    2  A    between atoms: C_6  and  N_7
REMARK    3  A    between atoms: N_7  and  C_8
REMARK    4  A    between atoms: C_8  and  C_9
REMARK    5  A    between atoms: C_13  and  C_14
REMARK                            x       y       z     vdW  Elec       q    Type
REMARK                         _______ _______ _______ _____ _____    ______ ____
ROOT
ATOM      1  C   UNL     1      48.242   4.513  16.981  0.00  0.00    +0.000 C 
ATOM      2  C   UNL     1      47.305   4.750  18.168  0.00  0.00    +0.000 C 
ATOM      3  C   UNL     1      47.240   3.463  17.424  0.00  0.00    +0.000 C 
ENDROOT
BRANCH   1   4
ATOM      4  C   UNL     1      47.898   5.263  15.694  0.00  0.00    +0.000 A 
ATOM      5  C   UNL     1      48.726   6.276  15.198  0.00  0.00    +0.000 A 
ATOM      6  C   UNL     1      48.536   6.786  13.915  0.00  0.00    +0.000 A 
ATOM      7  C   UNL     1      47.478   6.331  13.124  0.00  0.00    +0.000 A 
ATOM      8  C   UNL     1      46.554   5.395  13.613  0.00  0.00    +0.000 A 
ATOM      9  C   UNL     1      46.794   4.881  14.903  0.00  0.00    +0.000 A 
BRANCH   8  10
ATOM     10  C   UNL     1      45.381   4.944  12.827  0.00  0.00    +0.000 A 
ATOM     11  C   UNL     1      44.376   5.862  12.450  0.00  0.00    +0.000 A 
ATOM     12  C   UNL     1      43.247   5.467  11.724  0.00  0.00    +0.000 A 
ATOM     13  C   UNL     1      43.099   4.141  11.335  0.00  0.00    +0.000 A 
ATOM     14  C   UNL     1      44.077   3.212  11.680  0.00  0.00    +0.000 A 
ATOM     15  C   UNL     1      45.195   3.613  12.419  0.00  0.00    +0.000 A 
ATOM     16  F   UNL     1      46.087   2.665  12.747  0.00  0.00    +0.000 F 
ENDBRANCH   8  10
ENDBRANCH   1   4
BRANCH   1  17
ATOM     17  N   UNL     1      49.663   4.514  17.315  0.00  0.00    +0.000 N 
ATOM     18  H   UNL     1      50.192   5.373  17.202  0.00  0.00    +0.000 HD
BRANCH  17  22
ATOM     19  C   UNL     1      52.326   1.428  17.832  0.00  0.00    +0.000 A 
ATOM     20  C   UNL     1      52.621   2.738  18.161  0.00  0.00    +0.000 A 
ATOM     21  N   UNL     1      51.745   3.759  17.959  0.00  0.00    +0.000 NA
ATOM     22  C   UNL     1      50.549   3.449  17.405  0.00  0.00    +0.000 A 
ATOM     23  C   UNL     1      50.284   2.128  17.050  0.00  0.00    +0.000 A 
ATOM     24  N   UNL     1      51.151   1.092  17.255  0.00  0.00    +0.000 NA
BRANCH  19  26
ATOM     25  N   UNL     1      54.000  -0.474  18.402  0.00  0.00    +0.000 NA
ATOM     26  C   UNL     1      53.257   0.371  18.121  0.00  0.00    +0.000 C 
ENDBRANCH  19  26
ENDBRANCH  17  22
ENDBRANCH   1  17
TORSDOF 5
ENDMDL
MODEL 7
REMARK VINA RESULT:    -5.727      4.096      6.120
REMARK INTER + INTRA:          -8.311
REMARK INTER:                  -7.455
REMARK INTRA:                  -0.855
REMARK UNBOUND:                -0.910
REMARK  Name = 
REMARK  5 active torsions:
REMARK  status: ('A' for Active; 'I' for Inactive)
REMARK    1  A    between atoms: C_2  and  C_3
REMARK    2  A    between atoms: C_6  and  N_7
REMARK    3  A    between atoms: N_7  and  C_8
REMARK    4  A    between atoms: C_8  and  C_9
REMARK    5  A    between atoms: C_13  and  C_14
REMARK                            x       y       z     vdW  Elec       q    Type
REMARK                         _______ _______ _______ _____ _____    ______ ____
ROOT
ATOM      1  C   UNL     1      46.173   4.768  13.696  0.00  0.00    +0.000 C 
ATOM      2  C   UNL     1      44.852   4.185  13.186  0.00  0.00    +0.000 C 
ATOM      3  C   UNL     1      46.140   3.588  12.743  0.00  0.00    +0.000 C 
ENDROOT
BRANCH   1   4
ATOM      4  C   UNL     1      46.595   6.105  13.089  0.00  0.00    +0.000 A 
ATOM      5  C   UNL     1      45.666   7.126  12.857  0.00  0.00    +0.000 A 
ATOM      6  C   UNL     1      46.090   8.413  12.531  0.00  0.00    +0.000 A 
ATOM      7  C   UNL     1      47.451   8.690  12.374  0.00  0.00    +0.000 A 
ATOM      8  C   UNL     1      48.417   7.678  12.489  0.00  0.00    +0.000 A 
ATOM      9  C   UNL     1      47.954   6.397  12.847  0.00  0.00    +0.000 A 
BRANCH   8  10
ATOM     10  C   UNL     1      49.861   7.924  12.260  0.00  0.00    +0.000 A 
ATOM     11  C   UNL     1      50.449   7.623  11.012  0.00  0.00    +0.000 A 
ATOM     12  C   UNL     1      51.812   7.825  10.768  0.00  0.00    +0.000 A 
ATOM     13  C   UNL     1      52.625   8.353  11.762  0.00  0.00    +0.000 A 
ATOM     14  C   UNL     1      52.076   8.672  13.001  0.00  0.00    +0.000 A 
ATOM     15  C   UNL     1      50.716   8.452  13.242  0.00  0.00    +0.000 A 
ATOM     16  F   UNL     1      50.251   8.750  14.465  0.00  0.00    +0.000 F 
ENDBRANCH   8  10
ENDBRANCH   1   4
BRANCH   1  17
ATOM     17  N   UNL     1      46.362   4.677  15.141  0.00  0.00    +0.000 N 
ATOM     18  H   UNL     1      45.727   5.184  15.751  0.00  0.00    +0.000 HD
BRANCH  17  22
ATOM     19  C   UNL     1      49.786   3.489  17.076  0.00  0.00    +0.000 A 
ATOM     20  C   UNL     1      48.869   2.595  16.554  0.00  0.00    +0.000 A 
ATOM     21  N   UNL     1      47.723   2.997  15.942  0.00  0.00    +0.000 NA
ATOM     22  C   UNL     1      47.496   4.329  15.862  0.00  0.00    +0.000 A 
ATOM     23  C   UNL     1      48.416   5.212  16.423  0.00  0.00    +0.000 A 
ATOM     24  N   UNL     1      49.575   4.823  17.034  0.00  0.00    +0.000 NA
BRANCH  19  26
ATOM     25  N   UNL     1      52.014   2.621  18.089  0.00  0.00    +0.000 NA
ATOM     26  C   UNL     1      51.015   3.023  17.659  0.00  0.00    +0.000 C 
ENDBRANCH  19  26
ENDBRANCH  17  22
ENDBRANCH   1  17
TORSDOF 5
ENDMDL
