MODEL 1
REMARK VINA RESULT:    -8.271      0.000      0.000
REMARK INTER + INTRA:          -9.733
REMARK INTER:                  -9.722
REMARK INTRA:                  -0.010
REMARK UNBOUND:                -0.010
REMARK  Name = 
REMARK  3 active torsions:
REMARK  status: ('A' for Active; 'I' for Inactive)
REMARK    1  A    between atoms: C_2  and  C_4
REMARK    2  A    between atoms: N_8  and  C_9
REMARK    3  A    between atoms: C_9  and  C_10
REMARK                            x       y       z     vdW  Elec       q    Type
REMARK                         _______ _______ _______ _____ _____    ______ ____
ROOT
ATOM      1  C   UNL     1      46.484   2.932   7.452  0.00  0.00    +0.000 A 
ATOM      2  C   UNL     1      46.052   1.825   8.177  0.00  0.00    +0.000 A 
ATOM      3  C   UNL     1      45.241   2.022   9.302  0.00  0.00    +0.000 A 
ATOM      4  C   UNL     1      44.914   3.317   9.695  0.00  0.00    +0.000 A 
ATOM      5  N   UNL     1      43.962   3.494  10.730  0.00  0.00    +0.000 N 
ATOM      6  N   UNL     1      45.397   4.391   9.031  0.00  0.00    +0.000 NA
ATOM      7  C   UNL     1      46.159   4.186   7.930  0.00  0.00    +0.000 A 
ATOM      8  H   UNL     1      43.055   3.252  10.342  0.00  0.00    +0.000 HD
ENDROOT
BRANCH   1  10
ATOM      9  N   UNL     1      48.584   2.552   6.293  0.00  0.00    +0.000 N 
ATOM     10  C   UNL     1      47.240   2.833   6.194  0.00  0.00    +0.000 C 
ATOM     11  O   UNL     1      46.698   2.910   5.102  0.00  0.00    +0.000 OA
ATOM     12  H   UNL     1      49.053   2.327   5.427  0.00  0.00    +0.000 HD
ATOM     13  H   UNL     1      49.003   2.229   7.153  0.00  0.00    +0.000 HD
ENDBRANCH   1  10
BRANCH   5  14
ATOM     14  C   UNL     1      43.980   4.770  11.487  0.00  0.00    +0.000 C 
ATOM     15  C   UNL     1      42.859   5.169  12.453  0.00  0.00    +0.000 C 
ATOM     16  C   UNL     1      42.951   5.831  11.128  0.00  0.00    +0.000 C 
BRANCH  14  17
ATOM     17  C   UNL     1      45.336   5.075  12.117  0.00  0.00    +0.000 A 
ATOM     18  C   UNL     1      46.097   6.199  11.770  0.00  0.00    +0.000 A 
ATOM     19  C   UNL     1      47.203   6.585  12.535  0.00  0.00    +0.000 A 
ATOM     20  C   UNL     1      47.587   5.835  13.643  0.00  0.00    +0.000 A 
ATOM     21  C   UNL     1      46.895   4.671  13.953  0.00  0.00    +0.000 A 
ATOM     22 CL   UNL     1      47.352   3.742  15.329  0.00  0.00    +0.000 Cl
ATOM     23  C   UNL     1      45.795   4.286  13.195  0.00  0.00    +0.000 A 
ENDBRANCH  14  17
ENDBRANCH   5  14
TORSDOF 3
ENDMDL
MODEL 2
REMARK VINA RESULT:    -8.157      1.225      1.629
REMARK INTER + INTRA:          -9.598
REMARK INTER:                  -9.383
REMARK INTRA:                  -0.215
REMARK UNBOUND:                -0.010
REMARK  Name = 
REMARK  3 active torsions:
REMARK  status: ('A' for Active; 'I' for Inactive)
REMARK    1  A    between atoms: C_2  and  C_4
REMARK    2  A    between atoms: N_8  and  C_9
REMARK    3  A    between atoms: C_9  and  C_10
REMARK                            x       y       z     vdW  Elec       q    Type
REMARK                         _______ _______ _______ _____ _____    ______ ____
ROOT
ATOM      1  C   UNL     1      46.402   2.957   7.551  0.00  0.00    +0.000 A 
ATOM      2  C   UNL     1      45.978   1.863   8.302  0.00  0.00    +0.000 A 
ATOM      3  C   UNL     1      45.148   2.078   9.408  0.00  0.00    +0.000 A 
ATOM      4  C   UNL     1      44.793   3.377   9.759  0.00  0.00    +0.000 A 
ATOM      5  N   UNL     1      43.823   3.566  10.776  0.00  0.00    +0.000 N 
ATOM      6  N   UNL     1      45.267   4.440   9.072  0.00  0.00    +0.000 NA
ATOM      7  C   UNL     1      46.049   4.218   7.988  0.00  0.00    +0.000 A 
ATOM      8  H   UNL     1      42.925   3.298  10.382  0.00  0.00    +0.000 HD
ENDROOT
BRANCH   1  10
ATOM      9  N   UNL     1      48.513   2.522   6.431  0.00  0.00    +0.000 N 
ATOM     10  C   UNL     1      47.178   2.835   6.307  0.00  0.00    +0.000 C 
ATOM     11  O   UNL     1      46.658   2.923   5.205  0.00  0.00    +0.000 OA
ATOM     12  H   UNL     1      48.992   2.283   5.575  0.00  0.00    +0.000 HD
ATOM     13  H   UNL     1      48.908   2.191   7.300  0.00  0.00    +0.000 HD
ENDBRANCH   1  10
BRANCH   5  14
ATOM     14  C   UNL     1      43.807   4.863  11.496  0.00  0.00    +0.000 C 
ATOM     15  C   UNL     1      42.611   5.324  12.336  0.00  0.00    +0.000 C 
ATOM     16  C   UNL     1      42.853   5.943  11.009  0.00  0.00    +0.000 C 
BRANCH  14  17
ATOM     17  C   UNL     1      45.105   5.147  12.250  0.00  0.00    +0.000 A 
ATOM     18  C   UNL     1      45.635   4.267  13.202  0.00  0.00    +0.000 A 
ATOM     19  C   UNL     1      46.938   4.430  13.686  0.00  0.00    +0.000 A 
ATOM     20  C   UNL     1      47.722   5.494  13.249  0.00  0.00    +0.000 A 
ATOM     21  C   UNL     1      47.183   6.423  12.368  0.00  0.00    +0.000 A 
ATOM     22 CL   UNL     1      48.147   7.737  11.811  0.00  0.00    +0.000 Cl
ATOM     23  C   UNL     1      45.889   6.264  11.886  0.00  0.00    +0.000 A 
ENDBRANCH  14  17
ENDBRANCH   5  14
TORSDOF 3
ENDMDL
MODEL 3
REMARK VINA RESULT:    -7.126      3.789      6.352
REMARK INTER + INTRA:          -8.386
REMARK INTER:                  -8.807
REMARK INTRA:                   0.420
REMARK UNBOUND:                -0.010
REMARK  Name = 
REMARK  3 active torsions:
REMARK  status: ('A' for Active; 'I' for Inactive)
REMARK    1  A    between atoms: C_2  and  C_4
REMARK    2  A    between atoms: N_8  and  C_9
REMARK    3  A    between atoms: C_9  and  C_10
REMARK                            x       y       z     vdW  Elec       q    Type
REMARK                         _______ _______ _______ _____ _____    ______ ____
ROOT
ATOM      1  C   UNL     1      47.654   6.727  13.663  0.00  0.00    +0.000 A 
ATOM      2  C   UNL     1      47.158   7.554  12.659  0.00  0.00    +0.000 A 
ATOM      3  C   UNL     1      46.208   7.047  11.765  0.00  0.00    +0.000 A 
ATOM      4  C   UNL     1      45.806   5.718  11.871  0.00  0.00    +0.000 A 
ATOM      5  N   UNL     1      44.728   5.268  11.069  0.00  0.00    +0.000 N 
ATOM      6  N   UNL     1      46.345   4.898  12.800  0.00  0.00    +0.000 NA
ATOM      7  C   UNL     1      47.244   5.408  13.676  0.00  0.00    +0.000 A 
ATOM      8  H   UNL     1      43.882   5.681  11.450  0.00  0.00    +0.000 HD
ENDROOT
BRANCH   1  10
ATOM      9  N   UNL     1      48.139   8.251  15.491  0.00  0.00    +0.000 N 
ATOM     10  C   UNL     1      48.564   7.191  14.721  0.00  0.00    +0.000 C 
ATOM     11  O   UNL     1      49.614   6.621  14.972  0.00  0.00    +0.000 OA
ATOM     12  H   UNL     1      48.694   8.452  16.310  0.00  0.00    +0.000 HD
ATOM     13  H   UNL     1      47.181   8.571  15.481  0.00  0.00    +0.000 HD
ENDBRANCH   1  10
BRANCH   5  14
ATOM     14  C   UNL     1      44.621   3.814  10.790  0.00  0.00    +0.000 C 
ATOM     15  C   UNL     1      43.345   3.014  11.071  0.00  0.00    +0.000 C 
ATOM     16  C   UNL     1      44.514   2.864  11.972  0.00  0.00    +0.000 C 
BRANCH  14  17
ATOM     17  C   UNL     1      45.186   3.421   9.427  0.00  0.00    +0.000 A 
ATOM     18  C   UNL     1      45.581   4.366   8.470  0.00  0.00    +0.000 A 
ATOM     19  C   UNL     1      46.322   3.985   7.346  0.00  0.00    +0.000 A 
ATOM     20  C   UNL     1      46.652   2.648   7.142  0.00  0.00    +0.000 A 
ATOM     21  C   UNL     1      46.198   1.688   8.036  0.00  0.00    +0.000 A 
ATOM     22 CL   UNL     1      46.611   0.032   7.802  0.00  0.00    +0.000 Cl
ATOM     23  C   UNL     1      45.462   2.063   9.155  0.00  0.00    +0.000 A 
ENDBRANCH  14  17
ENDBRANCH   5  14
TORSDOF 3
ENDMDL
MODEL 4
REMARK VINA RESULT:    -6.573      4.031      6.324
REMARK INTER + INTRA:          -7.736
REMARK INTER:                  -7.793
REMARK INTRA:                   0.057
REMARK UNBOUND:                -0.010
REMARK  Name = 
REMARK  3 active torsions:
REMARK  status: ('A' for Active; 'I' for Inactive)
REMARK    1  A    between atoms: C_2  and  C_4
REMARK    2  A    between atoms: N_8  and  C_9
REMARK    3  A    between atoms: C_9  and  C_10
REMARK                            x       y       z     vdW  Elec       q    Type
REMARK                         _______ _______ _______ _____ _____    ______ ____
ROOT
ATOM      1  C   UNL     1      48.500   6.870  13.692  0.00  0.00    +0.000 A 
ATOM      2  C   UNL     1      48.470   7.557  12.481  0.00  0.00    +0.000 A 
ATOM      3  C   UNL     1      47.339   7.446  11.663  0.00  0.00    +0.000 A 
ATOM      4  C   UNL     1      46.286   6.624  12.055  0.00  0.00    +0.000 A 
ATOM      5  N   UNL     1      45.086   6.651  11.301  0.00  0.00    +0.000 N 
ATOM      6  N   UNL     1      46.352   5.901  13.195  0.00  0.00    +0.000 NA
ATOM      7  C   UNL     1      47.440   6.037  13.990  0.00  0.00    +0.000 A 
ATOM      8  H   UNL     1      44.629   7.536  11.503  0.00  0.00    +0.000 HD
ENDROOT
BRANCH   1  10
ATOM      9  N   UNL     1      50.769   7.550  14.229  0.00  0.00    +0.000 N 
ATOM     10  C   UNL     1      49.584   7.009  14.676  0.00  0.00    +0.000 C 
ATOM     11  O   UNL     1      49.430   6.738  15.857  0.00  0.00    +0.000 OA
ATOM     12  H   UNL     1      51.442   7.788  14.942  0.00  0.00    +0.000 HD
ATOM     13  H   UNL     1      50.842   8.018  13.337  0.00  0.00    +0.000 HD
ENDBRANCH   1  10
BRANCH   5  14
ATOM     14  C   UNL     1      44.186   5.473  11.374  0.00  0.00    +0.000 C 
ATOM     15  C   UNL     1      42.659   5.600  11.356  0.00  0.00    +0.000 C 
ATOM     16  C   UNL     1      43.350   5.286  12.631  0.00  0.00    +0.000 C 
BRANCH  14  17
ATOM     17  C   UNL     1      44.619   4.330  10.459  0.00  0.00    +0.000 A 
ATOM     18  C   UNL     1      44.151   3.018  10.613  0.00  0.00    +0.000 A 
ATOM     19  C   UNL     1      44.363   2.056   9.619  0.00  0.00    +0.000 A 
ATOM     20  C   UNL     1      45.075   2.382   8.467  0.00  0.00    +0.000 A 
ATOM     21  C   UNL     1      45.617   3.653   8.336  0.00  0.00    +0.000 A 
ATOM     22 CL   UNL     1      46.489   4.072   6.910  0.00  0.00    +0.000 Cl
ATOM     23  C   UNL     1      45.408   4.611   9.322  0.00  0.00    +0.000 A 
ENDBRANCH  14  17
ENDBRANCH   5  14
TORSDOF 3
ENDMDL
MODEL 5
REMARK VINA RESULT:    -5.685      2.872      3.986
REMARK INTER + INTRA:          -6.693
REMARK INTER:                  -6.538
REMARK INTRA:                  -0.155
REMARK UNBOUND:                -0.010
REMARK  Name = 
REMARK  3 active torsions:
REMARK  status: ('A' for Active; 'I' for Inactive)
REMARK    1  A    between atoms: C_2  and  C_4
REMARK    2  A    between atoms: N_8  and  C_9
REMARK    3  A    between atoms: C_9  and  C_10
REMARK                            x       y       z     vdW  Elec       q    Type
REMARK                         _______ _______ _______ _____ _____    ______ ____
ROOT
ATOM      1  C   UNL     1      44.974   3.516  10.394  0.00  0.00    +0.000 A 
ATOM      2  C   UNL     1      44.797   3.364  11.767  0.00  0.00    +0.000 A 
ATOM      3  C   UNL     1      44.813   4.500  12.585  0.00  0.00    +0.000 A 
ATOM      4  C   UNL     1      45.043   5.751  12.019  0.00  0.00    +0.000 A 
ATOM      5  N   UNL     1      44.891   6.903  12.831  0.00  0.00    +0.000 N 
ATOM      6  N   UNL     1      45.288   5.885  10.697  0.00  0.00    +0.000 NA
ATOM      7  C   UNL     1      45.245   4.781   9.912  0.00  0.00    +0.000 A 
ATOM      8  H   UNL     1      43.895   7.024  12.991  0.00  0.00    +0.000 HD
ENDROOT
BRANCH   1  10
ATOM      9  N   UNL     1      45.927   2.201   8.587  0.00  0.00    +0.000 N 
ATOM     10  C   UNL     1      44.861   2.407   9.434  0.00  0.00    +0.000 C 
ATOM     11  O   UNL     1      43.907   1.644   9.432  0.00  0.00    +0.000 OA
ATOM     12  H   UNL     1      45.906   1.346   8.051  0.00  0.00    +0.000 HD
ATOM     13  H   UNL     1      46.823   2.641   8.737  0.00  0.00    +0.000 HD
ENDBRANCH   1  10
BRANCH   5  14
ATOM     14  C   UNL     1      45.596   8.144  12.425  0.00  0.00    +0.000 C 
ATOM     15  C   UNL     1      44.984   9.537  12.611  0.00  0.00    +0.000 C 
ATOM     16  C   UNL     1      45.036   8.937  11.254  0.00  0.00    +0.000 C 
BRANCH  14  17
ATOM     17  C   UNL     1      47.063   8.166  12.847  0.00  0.00    +0.000 A 
ATOM     18  C   UNL     1      47.465   8.180  14.189  0.00  0.00    +0.000 A 
ATOM     19  C   UNL     1      48.799   7.946  14.544  0.00  0.00    +0.000 A 
ATOM     20  C   UNL     1      49.760   7.727  13.561  0.00  0.00    +0.000 A 
ATOM     21  C   UNL     1      49.394   7.793  12.222  0.00  0.00    +0.000 A 
ATOM     22 CL   UNL     1      50.571   7.512  10.996  0.00  0.00    +0.000 Cl
ATOM     23  C   UNL     1      48.070   8.024  11.867  0.00  0.00    +0.000 A 
ENDBRANCH  14  17
ENDBRANCH   5  14
TORSDOF 3
ENDMDL
MODEL 6
REMARK VINA RESULT:    -5.460      4.900      7.334
REMARK INTER + INTRA:          -6.428
REMARK INTER:                  -6.222
REMARK INTRA:                  -0.206
REMARK UNBOUND:                -0.010
REMARK  Name = 
REMARK  3 active torsions:
REMARK  status: ('A' for Active; 'I' for Inactive)
REMARK    1  A    between atoms: C_2  and  C_4
REMARK    2  A    between atoms: N_8  and  C_9
REMARK    3  A    between atoms: C_9  and  C_10
REMARK                            x       y       z     vdW  Elec       q    Type
REMARK                         _______ _______ _______ _____ _____    ______ ____
ROOT
ATOM      1  C   UNL     1      46.317   5.050  13.302  0.00  0.00    +0.000 A 
ATOM      2  C   UNL     1      46.755   6.256  12.762  0.00  0.00    +0.000 A 
ATOM      3  C   UNL     1      47.798   6.945  13.392  0.00  0.00    +0.000 A 
ATOM      4  C   UNL     1      48.350   6.435  14.564  0.00  0.00    +0.000 A 
ATOM      5  N   UNL     1      49.508   7.054  15.096  0.00  0.00    +0.000 N 
ATOM      6  N   UNL     1      47.871   5.302  15.125  0.00  0.00    +0.000 NA
ATOM      7  C   UNL     1      46.879   4.631  14.491  0.00  0.00    +0.000 A 
ATOM      8  H   UNL     1      50.282   6.812  14.483  0.00  0.00    +0.000 HD
ENDROOT
BRANCH   1  10
ATOM      9  N   UNL     1      45.544   2.833  12.679  0.00  0.00    +0.000 N 
ATOM     10  C   UNL     1      45.312   4.190  12.658  0.00  0.00    +0.000 C 
ATOM     11  O   UNL     1      44.275   4.638  12.194  0.00  0.00    +0.000 OA
ATOM     12  H   UNL     1      44.775   2.249  12.382  0.00  0.00    +0.000 HD
ATOM     13  H   UNL     1      46.248   2.418  13.273  0.00  0.00    +0.000 HD
ENDBRANCH   1  10
BRANCH   5  14
ATOM     14  C   UNL     1      49.799   6.873  16.540  0.00  0.00    +0.000 C 
ATOM     15  C   UNL     1      51.205   7.042  17.124  0.00  0.00    +0.000 C 
ATOM     16  C   UNL     1      50.642   5.679  16.958  0.00  0.00    +0.000 C 
BRANCH  14  17
ATOM     17  C   UNL     1      48.779   7.557  17.447  0.00  0.00    +0.000 A 
ATOM     18  C   UNL     1      48.186   6.913  18.541  0.00  0.00    +0.000 A 
ATOM     19  C   UNL     1      47.456   7.634  19.493  0.00  0.00    +0.000 A 
ATOM     20  C   UNL     1      47.280   9.007  19.350  0.00  0.00    +0.000 A 
ATOM     21  C   UNL     1      47.790   9.649  18.228  0.00  0.00    +0.000 A 
ATOM     22 CL   UNL     1      47.589  11.350  18.047  0.00  0.00    +0.000 Cl
ATOM     23  C   UNL     1      48.516   8.935  17.281  0.00  0.00    +0.000 A 
ENDBRANCH  14  17
ENDBRANCH   5  14
TORSDOF 3
ENDMDL
MODEL 7
REMARK VINA RESULT:    -5.347      3.643      5.572
REMARK INTER + INTRA:          -6.295
REMARK INTER:                  -6.110
REMARK INTRA:                  -0.185
REMARK UNBOUND:                -0.010
REMARK  Name = 
REMARK  3 active torsions:
REMARK  status: ('A' for Active; 'I' for Inactive)
REMARK    1  A    between atoms: C_2  and  C_4
REMARK    2  A    between atoms: N_8  and  C_9
REMARK    3  A    between atoms: C_9  and  C_10
REMARK                            x       y       z     vdW  Elec       q    Type
REMARK                         _______ _______ _______ _____ _____    ______ ____
ROOT
ATOM      1  C   UNL     1      44.697   4.859  12.073  0.00  0.00    +0.000 A 
ATOM      2  C   UNL     1      44.085   6.076  12.360  0.00  0.00    +0.000 A 
ATOM      3  C   UNL     1      44.875   7.227  12.468  0.00  0.00    +0.000 A 
ATOM      4  C   UNL     1      46.256   7.129  12.325  0.00  0.00    +0.000 A 
ATOM      5  N   UNL     1      47.020   8.321  12.272  0.00  0.00    +0.000 N 
ATOM      6  N   UNL     1      46.852   5.934  12.120  0.00  0.00    +0.000 NA
ATOM      7  C   UNL     1      46.075   4.831  11.992  0.00  0.00    +0.000 A 
ATOM      8  H   UNL     1      46.836   8.752  11.370  0.00  0.00    +0.000 HD
ENDROOT
BRANCH   1  10
ATOM      9  N   UNL     1      44.335   2.504  12.543  0.00  0.00    +0.000 N 
ATOM     10  C   UNL     1      43.953   3.615  11.825  0.00  0.00    +0.000 C 
ATOM     11  O   UNL     1      42.985   3.574  11.081  0.00  0.00    +0.000 OA
ATOM     12  H   UNL     1      43.717   1.707  12.484  0.00  0.00    +0.000 HD
ATOM     13  H   UNL     1      44.948   2.567  13.342  0.00  0.00    +0.000 HD
ENDBRANCH   1  10
BRANCH   5  14
ATOM     14  C   UNL     1      48.459   8.246  12.626  0.00  0.00    +0.000 C 
ATOM     15  C   UNL     1      49.524   9.101  11.930  0.00  0.00    +0.000 C 
ATOM     16  C   UNL     1      49.420   7.658  11.604  0.00  0.00    +0.000 C 
BRANCH  14  17
ATOM     17  C   UNL     1      48.707   8.240  14.132  0.00  0.00    +0.000 A 
ATOM     18  C   UNL     1      48.329   9.301  14.966  0.00  0.00    +0.000 A 
ATOM     19  C   UNL     1      48.339   9.161  16.358  0.00  0.00    +0.000 A 
ATOM     20  C   UNL     1      48.759   7.969  16.942  0.00  0.00    +0.000 A 
ATOM     21  C   UNL     1      49.217   6.936  16.133  0.00  0.00    +0.000 A 
ATOM     22 CL   UNL     1      49.726   5.452  16.842  0.00  0.00    +0.000 Cl
ATOM     23  C   UNL     1      49.207   7.072  14.749  0.00  0.00    +0.000 A 
ENDBRANCH  14  17
ENDBRANCH   5  14
TORSDOF 3
ENDMDL
