MODEL 1
REMARK VINA RESULT:    -8.076      0.000      0.000
REMARK INTER + INTRA:         -12.044
REMARK INTER:                 -10.909
REMARK INTRA:                  -1.135
REMARK UNBOUND:                -1.135
REMARK  Name = 
REMARK  6 active torsions:
REMARK  status: ('A' for Active; 'I' for Inactive)
REMARK    1  A    between atoms: C_2  and  C_25
REMARK    2  A    between atoms: N_3  and  C_4
REMARK    3  A    between atoms: C_4  and  C_5
REMARK    4  A    between atoms: C_8  and  C_9
REMARK    5  A    between atoms: C_9  and  N_10
REMARK    6  A    between atoms: C_11  and  C_13
REMARK                            x       y       z     vdW  Elec       q    Type
REMARK                         _______ _______ _______ _____ _____    ______ ____
ROOT
ATOM      1  C   UNL     1      44.949   5.831  10.863  0.00  0.00    +0.000 A 
ATOM      2  C   UNL     1      44.323   6.401  11.981  0.00  0.00    +0.000 A 
ATOM      3  C   UNL     1      45.047   7.203  12.872  0.00  0.00    +0.000 A 
ATOM      4  C   UNL     1      46.405   7.468  12.654  0.00  0.00    +0.000 A 
ATOM      5  C   UNL     1      47.029   6.896  11.538  0.00  0.00    +0.000 A 
ATOM      6  C   UNL     1      46.307   6.096  10.647  0.00  0.00    +0.000 A 
ENDROOT
BRANCH   1   7
ATOM      7  C   UNL     1      44.191   4.916   9.939  0.00  0.00    +0.000 C 
BRANCH   7  10
ATOM      8  O   UNL     1      44.968   2.228   9.740  0.00  0.00    +0.000 OA
ATOM      9  C   UNL     1      45.311   3.028   8.883  0.00  0.00    +0.000 C 
ATOM     10  N   UNL     1      44.996   4.369   8.876  0.00  0.00    +0.000 N 
ATOM     11  H   UNL     1      45.328   4.943   8.107  0.00  0.00    +0.000 HD
BRANCH   9  12
ATOM     12  C   UNL     1      46.148   2.554   7.727  0.00  0.00    +0.000 C 
ATOM     13  C   UNL     1      46.360   3.375   6.524  0.00  0.00    +0.000 C 
ATOM     14  C   UNL     1      47.222   2.567   5.724  0.00  0.00    +0.000 C 
ATOM     15  C   UNL     1      47.426   1.448   6.436  0.00  0.00    +0.000 C 
ATOM     16  N   UNL     1      46.783   1.405   7.667  0.00  0.00    +0.000 NA
ENDBRANCH   9  12
ENDBRANCH   7  10
ENDBRANCH   1   7
BRANCH   4  17
ATOM     17  C   UNL     1      47.196   8.320  13.614  0.00  0.00    +0.000 C 
BRANCH  17  18
ATOM     18  N   UNL     1      47.626   7.560  14.762  0.00  0.00    +0.000 N 
ATOM     19  C   UNL     1      48.835   6.912  14.774  0.00  0.00    +0.000 C 
ATOM     20  O   UNL     1      49.624   6.990  13.835  0.00  0.00    +0.000 OA
ATOM     21  H   UNL     1      46.911   7.301  15.436  0.00  0.00    +0.000 HD
BRANCH  19  22
ATOM     22  C   UNL     1      49.169   6.163  15.993  0.00  0.00    +0.000 A 
ATOM     23  C   UNL     1      50.272   6.535  16.750  0.00  0.00    +0.000 A 
ATOM     24  S   UNL     1      50.486   5.598  18.158  0.00  0.00    +0.000 S 
ATOM     25  C   UNL     1      49.142   4.624  17.780  0.00  0.00    +0.000 A 
ATOM     26  N   UNL     1      48.779   3.589  18.586  0.00  0.00    +0.000 NA
ATOM     27  C   UNL     1      47.761   2.917  18.163  0.00  0.00    +0.000 A 
ATOM     28  N   UNL     1      47.070   3.188  17.012  0.00  0.00    +0.000 N 
ATOM     29  C   UNL     1      47.385   4.238  16.181  0.00  0.00    +0.000 A 
ATOM     30  O   UNL     1      46.722   4.471  15.175  0.00  0.00    +0.000 OA
ATOM     31  C   UNL     1      48.528   5.022  16.605  0.00  0.00    +0.000 A 
ATOM     32  H   UNL     1      46.280   2.625  16.739  0.00  0.00    +0.000 HD
ENDBRANCH  19  22
ENDBRANCH  17  18
ENDBRANCH   4  17
TORSDOF 6
ENDMDL
MODEL 2
REMARK VINA RESULT:    -7.119      2.095      2.392
REMARK INTER + INTRA:         -10.751
REMARK INTER:                  -9.927
REMARK INTRA:                  -0.824
REMARK UNBOUND:                -1.135
REMARK  Name = 
REMARK  6 active torsions:
REMARK  status: ('A' for Active; 'I' for Inactive)
REMARK    1  A    between atoms: C_2  and  C_25
REMARK    2  A    between atoms: N_3  and  C_4
REMARK    3  A    between atoms: C_4  and  C_5
REMARK    4  A    between atoms: C_8  and  C_9
REMARK    5  A    between atoms: C_9  and  N_10
REMARK    6  A    between atoms: C_11  and  C_13
REMARK                            x       y       z     vdW  Elec       q    Type
REMARK                         _______ _______ _______ _____ _____    ______ ____
ROOT
ATOM      1  C   UNL     1      45.436   6.239  11.402  0.00  0.00    +0.000 A 
ATOM      2  C   UNL     1      45.184   7.579  11.726  0.00  0.00    +0.000 A 
ATOM      3  C   UNL     1      46.001   8.259  12.637  0.00  0.00    +0.000 A 
ATOM      4  C   UNL     1      47.098   7.620  13.229  0.00  0.00    +0.000 A 
ATOM      5  C   UNL     1      47.346   6.279  12.907  0.00  0.00    +0.000 A 
ATOM      6  C   UNL     1      46.532   5.600  11.997  0.00  0.00    +0.000 A 
ENDROOT
BRANCH   1   7
ATOM      7  C   UNL     1      44.522   5.486  10.473  0.00  0.00    +0.000 C 
BRANCH   7  10
ATOM      8  O   UNL     1      44.235   2.718  10.114  0.00  0.00    +0.000 OA
ATOM      9  C   UNL     1      44.992   3.353   9.394  0.00  0.00    +0.000 C 
ATOM     10  N   UNL     1      45.218   4.708   9.478  0.00  0.00    +0.000 N 
ATOM     11  H   UNL     1      45.865   5.136   8.822  0.00  0.00    +0.000 HD
BRANCH   9  12
ATOM     12  C   UNL     1      45.761   2.633   8.321  0.00  0.00    +0.000 C 
ATOM     13  C   UNL     1      46.164   3.294   7.069  0.00  0.00    +0.000 C 
ATOM     14  C   UNL     1      46.882   2.274   6.376  0.00  0.00    +0.000 C 
ATOM     15  C   UNL     1      46.846   1.202   7.182  0.00  0.00    +0.000 C 
ATOM     16  N   UNL     1      46.167   1.385   8.380  0.00  0.00    +0.000 NA
ENDBRANCH   9  12
ENDBRANCH   7  10
ENDBRANCH   1   7
BRANCH   4  17
ATOM     17  C   UNL     1      47.976   8.339  14.222  0.00  0.00    +0.000 C 
BRANCH  17  18
ATOM     18  N   UNL     1      47.983   7.672  15.500  0.00  0.00    +0.000 N 
ATOM     19  C   UNL     1      49.046   6.900  15.895  0.00  0.00    +0.000 C 
ATOM     20  O   UNL     1      50.056   6.783  15.204  0.00  0.00    +0.000 OA
ATOM     21  H   UNL     1      47.089   7.571  15.971  0.00  0.00    +0.000 HD
BRANCH  19  22
ATOM     22  C   UNL     1      48.945   6.262  17.214  0.00  0.00    +0.000 A 
ATOM     23  C   UNL     1      49.351   4.943  17.375  0.00  0.00    +0.000 A 
ATOM     24  S   UNL     1      49.218   4.375  18.976  0.00  0.00    +0.000 S 
ATOM     25  C   UNL     1      48.560   5.854  19.504  0.00  0.00    +0.000 A 
ATOM     26  N   UNL     1      48.192   6.032  20.802  0.00  0.00    +0.000 NA
ATOM     27  C   UNL     1      47.681   7.189  21.057  0.00  0.00    +0.000 A 
ATOM     28  N   UNL     1      47.510   8.187  20.133  0.00  0.00    +0.000 N 
ATOM     29  C   UNL     1      47.890   8.061  18.818  0.00  0.00    +0.000 A 
ATOM     30  O   UNL     1      47.751   8.988  18.026  0.00  0.00    +0.000 OA
ATOM     31  C   UNL     1      48.463   6.774  18.475  0.00  0.00    +0.000 A 
ATOM     32  H   UNL     1      47.106   9.072  20.398  0.00  0.00    +0.000 HD
ENDBRANCH  19  22
ENDBRANCH  17  18
ENDBRANCH   4  17
TORSDOF 6
ENDMDL
MODEL 3
REMARK VINA RESULT:    -7.057      4.712      9.589
REMARK INTER + INTRA:         -10.666
REMARK INTER:                  -9.879
REMARK INTRA:                  -0.788
REMARK UNBOUND:                -1.135
REMARK  Name = 
REMARK  6 active torsions:
REMARK  status: ('A' for Active; 'I' for Inactive)
REMARK    1  A    between atoms: C_2  and  C_25
REMARK    2  A    between atoms: N_3  and  C_4
REMARK    3  A    between atoms: C_4  and  C_5
REMARK    4  A    between atoms: C_8  and  C_9
REMARK    5  A    between atoms: C_9  and  N_10
REMARK    6  A    between atoms: C_11  and  C_13
REMARK                            x       y       z     vdW  Elec       q    Type
REMARK                         _______ _______ _______ _____ _____    ______ ____
ROOT
ATOM      1  C   UNL     1      51.551   3.002  17.757  0.00  0.00    +0.000 A 
ATOM      2  C   UNL     1      50.915   4.205  18.091  0.00  0.00    +0.000 A 
ATOM      3  C   UNL     1      49.543   4.373  17.864  0.00  0.00    +0.000 A 
ATOM      4  C   UNL     1      48.776   3.336  17.318  0.00  0.00    +0.000 A 
ATOM      5  C   UNL     1      49.415   2.136  16.981  0.00  0.00    +0.000 A 
ATOM      6  C   UNL     1      50.784   1.967  17.208  0.00  0.00    +0.000 A 
ENDROOT
BRANCH   1   7
ATOM      7  C   UNL     1      53.037   2.840  17.938  0.00  0.00    +0.000 C 
BRANCH   7  10
ATOM      8  O   UNL     1      54.569   0.818  16.740  0.00  0.00    +0.000 OA
ATOM      9  C   UNL     1      54.172   0.686  17.888  0.00  0.00    +0.000 C 
ATOM     10  N   UNL     1      53.412   1.604  18.577  0.00  0.00    +0.000 N 
ATOM     11  H   UNL     1      53.144   1.394  19.534  0.00  0.00    +0.000 HD
BRANCH   9  12
ATOM     12  C   UNL     1      54.516  -0.568  18.644  0.00  0.00    +0.000 C 
ATOM     13  C   UNL     1      54.769  -1.849  17.964  0.00  0.00    +0.000 C 
ATOM     14  C   UNL     1      55.083  -2.734  19.038  0.00  0.00    +0.000 C 
ATOM     15  C   UNL     1      54.994  -1.990  20.151  0.00  0.00    +0.000 C 
ATOM     16  N   UNL     1      54.648  -0.660  19.948  0.00  0.00    +0.000 NA
ENDBRANCH   9  12
ENDBRANCH   7  10
ENDBRANCH   1   7
BRANCH   4  17
ATOM     17  C   UNL     1      47.301   3.512  17.058  0.00  0.00    +0.000 C 
BRANCH  17  18
ATOM     18  N   UNL     1      47.059   4.515  16.051  0.00  0.00    +0.000 N 
ATOM     19  C   UNL     1      47.121   4.211  14.714  0.00  0.00    +0.000 C 
ATOM     20  O   UNL     1      47.334   3.068  14.316  0.00  0.00    +0.000 OA
ATOM     21  H   UNL     1      47.108   5.485  16.346  0.00  0.00    +0.000 HD
BRANCH  19  22
ATOM     22  C   UNL     1      46.863   5.311  13.775  0.00  0.00    +0.000 A 
ATOM     23  C   UNL     1      47.839   6.275  13.558  0.00  0.00    +0.000 A 
ATOM     24  S   UNL     1      47.400   7.448  12.402  0.00  0.00    +0.000 S 
ATOM     25  C   UNL     1      45.867   6.741  12.187  0.00  0.00    +0.000 A 
ATOM     26  N   UNL     1      44.961   7.283  11.327  0.00  0.00    +0.000 NA
ATOM     27  C   UNL     1      43.829   6.663  11.286  0.00  0.00    +0.000 A 
ATOM     28  N   UNL     1      43.523   5.548  12.021  0.00  0.00    +0.000 N 
ATOM     29  C   UNL     1      44.414   4.952  12.882  0.00  0.00    +0.000 A 
ATOM     30  O   UNL     1      44.116   3.935  13.500  0.00  0.00    +0.000 OA
ATOM     31  C   UNL     1      45.701   5.615  12.973  0.00  0.00    +0.000 A 
ATOM     32  H   UNL     1      42.619   5.109  11.940  0.00  0.00    +0.000 HD
ENDBRANCH  19  22
ENDBRANCH  17  18
ENDBRANCH   4  17
TORSDOF 6
ENDMDL
MODEL 4
REMARK VINA RESULT:    -6.885      2.082      2.934
REMARK INTER + INTRA:         -10.435
REMARK INTER:                  -9.867
REMARK INTRA:                  -0.567
REMARK UNBOUND:                -1.135
REMARK  Name = 
REMARK  6 active torsions:
REMARK  status: ('A' for Active; 'I' for Inactive)
REMARK    1  A    between atoms: C_2  and  C_25
REMARK    2  A    between atoms: N_3  and  C_4
REMARK    3  A    between atoms: C_4  and  C_5
REMARK    4  A    between atoms: C_8  and  C_9
REMARK    5  A    between atoms: C_9  and  N_10
REMARK    6  A    between atoms: C_11  and  C_13
REMARK                            x       y       z     vdW  Elec       q    Type
REMARK                         _______ _______ _______ _____ _____    ______ ____
ROOT
ATOM      1  C   UNL     1      44.733   5.166  11.370  0.00  0.00    +0.000 A 
ATOM      2  C   UNL     1      44.630   6.561  11.285  0.00  0.00    +0.000 A 
ATOM      3  C   UNL     1      45.429   7.387  12.085  0.00  0.00    +0.000 A 
ATOM      4  C   UNL     1      46.362   6.835  12.973  0.00  0.00    +0.000 A 
ATOM      5  C   UNL     1      46.462   5.440  13.059  0.00  0.00    +0.000 A 
ATOM      6  C   UNL     1      45.665   4.616  12.260  0.00  0.00    +0.000 A 
ENDROOT
BRANCH   1   7
ATOM      7  C   UNL     1      43.831   4.275  10.559  0.00  0.00    +0.000 C 
BRANCH   7  10
ATOM      8  O   UNL     1      45.458   4.713   8.316  0.00  0.00    +0.000 OA
ATOM      9  C   UNL     1      45.306   3.580   8.750  0.00  0.00    +0.000 C 
ATOM     10  N   UNL     1      44.531   3.243   9.836  0.00  0.00    +0.000 N 
ATOM     11  H   UNL     1      44.481   2.268  10.116  0.00  0.00    +0.000 HD
BRANCH   9  12
ATOM     12  C   UNL     1      45.999   2.433   8.068  0.00  0.00    +0.000 C 
ATOM     13  C   UNL     1      46.817   2.619   6.858  0.00  0.00    +0.000 C 
ATOM     14  C   UNL     1      47.297   1.304   6.582  0.00  0.00    +0.000 C 
ATOM     15  C   UNL     1      46.776   0.524   7.541  0.00  0.00    +0.000 C 
ATOM     16  N   UNL     1      45.975   1.182   8.468  0.00  0.00    +0.000 NA
ENDBRANCH   9  12
ENDBRANCH   7  10
ENDBRANCH   1   7
BRANCH   4  17
ATOM     17  C   UNL     1      47.219   7.715  13.848  0.00  0.00    +0.000 C 
BRANCH  17  18
ATOM     18  N   UNL     1      48.027   6.933  14.752  0.00  0.00    +0.000 N 
ATOM     19  C   UNL     1      49.030   7.510  15.490  0.00  0.00    +0.000 C 
ATOM     20  O   UNL     1      49.251   8.718  15.453  0.00  0.00    +0.000 OA
ATOM     21  H   UNL     1      48.013   5.926  14.627  0.00  0.00    +0.000 HD
BRANCH  19  22
ATOM     22  C   UNL     1      49.793   6.619  16.373  0.00  0.00    +0.000 A 
ATOM     23  C   UNL     1      49.125   5.824  17.295  0.00  0.00    +0.000 A 
ATOM     24  S   UNL     1      50.153   4.812  18.202  0.00  0.00    +0.000 S 
ATOM     25  C   UNL     1      51.537   5.438  17.434  0.00  0.00    +0.000 A 
ATOM     26  N   UNL     1      52.782   5.004  17.772  0.00  0.00    +0.000 NA
ATOM     27  C   UNL     1      53.741   5.585  17.132  0.00  0.00    +0.000 A 
ATOM     28  N   UNL     1      53.568   6.555  16.180  0.00  0.00    +0.000 N 
ATOM     29  C   UNL     1      52.329   7.006  15.789  0.00  0.00    +0.000 A 
ATOM     30  O   UNL     1      52.212   7.854  14.909  0.00  0.00    +0.000 OA
ATOM     31  C   UNL     1      51.215   6.392  16.484  0.00  0.00    +0.000 A 
ATOM     32  H   UNL     1      54.361   6.968  15.714  0.00  0.00    +0.000 HD
ENDBRANCH  19  22
ENDBRANCH  17  18
ENDBRANCH   4  17
TORSDOF 6
ENDMDL
MODEL 5
REMARK VINA RESULT:    -6.730      4.841      9.553
REMARK INTER + INTRA:         -10.225
REMARK INTER:                  -9.258
REMARK INTRA:                  -0.967
REMARK UNBOUND:                -1.135
REMARK  Name = 
REMARK  6 active torsions:
REMARK  status: ('A' for Active; 'I' for Inactive)
REMARK    1  A    between atoms: C_2  and  C_25
REMARK    2  A    between atoms: N_3  and  C_4
REMARK    3  A    between atoms: C_4  and  C_5
REMARK    4  A    between atoms: C_8  and  C_9
REMARK    5  A    between atoms: C_9  and  N_10
REMARK    6  A    between atoms: C_11  and  C_13
REMARK                            x       y       z     vdW  Elec       q    Type
REMARK                         _______ _______ _______ _____ _____    ______ ____
ROOT
ATOM      1  C   UNL     1      51.385   2.671  17.664  0.00  0.00    +0.000 A 
ATOM      2  C   UNL     1      50.504   1.780  17.035  0.00  0.00    +0.000 A 
ATOM      3  C   UNL     1      49.172   2.142  16.797  0.00  0.00    +0.000 A 
ATOM      4  C   UNL     1      48.698   3.407  17.166  0.00  0.00    +0.000 A 
ATOM      5  C   UNL     1      49.579   4.295  17.798  0.00  0.00    +0.000 A 
ATOM      6  C   UNL     1      50.909   3.935  18.035  0.00  0.00    +0.000 A 
ENDROOT
BRANCH   1   7
ATOM      7  C   UNL     1      52.798   2.262  17.980  0.00  0.00    +0.000 C 
BRANCH   7  10
ATOM      8  O   UNL     1      55.234   0.998  18.564  0.00  0.00    +0.000 OA
ATOM      9  C   UNL     1      54.216   0.335  18.437  0.00  0.00    +0.000 C 
ATOM     10  N   UNL     1      52.969   0.841  18.147  0.00  0.00    +0.000 N 
ATOM     11  H   UNL     1      52.187   0.196  18.071  0.00  0.00    +0.000 HD
BRANCH   9  12
ATOM     12  C   UNL     1      54.287  -1.159  18.598  0.00  0.00    +0.000 C 
ATOM     13  C   UNL     1      54.994  -2.018  17.634  0.00  0.00    +0.000 C 
ATOM     14  C   UNL     1      54.838  -3.325  18.185  0.00  0.00    +0.000 C 
ATOM     15  C   UNL     1      54.122  -3.157  19.307  0.00  0.00    +0.000 C 
ATOM     16  N   UNL     1      53.766  -1.844  19.590  0.00  0.00    +0.000 NA
ENDBRANCH   9  12
ENDBRANCH   7  10
ENDBRANCH   1   7
BRANCH   4  17
ATOM     17  C   UNL     1      47.262   3.802  16.926  0.00  0.00    +0.000 C 
BRANCH  17  18
ATOM     18  N   UNL     1      47.149   4.752  15.847  0.00  0.00    +0.000 N 
ATOM     19  C   UNL     1      47.130   4.342  14.538  0.00  0.00    +0.000 C 
ATOM     20  O   UNL     1      47.157   3.153  14.228  0.00  0.00    +0.000 OA
ATOM     21  H   UNL     1      47.353   5.722  16.065  0.00  0.00    +0.000 HD
BRANCH  19  22
ATOM     22  C   UNL     1      47.018   5.394  13.519  0.00  0.00    +0.000 A 
ATOM     23  C   UNL     1      46.011   5.324  12.565  0.00  0.00    +0.000 A 
ATOM     24  S   UNL     1      45.989   6.650  11.494  0.00  0.00    +0.000 S 
ATOM     25  C   UNL     1      47.358   7.341  12.232  0.00  0.00    +0.000 A 
ATOM     26  N   UNL     1      47.889   8.506  11.771  0.00  0.00    +0.000 NA
ATOM     27  C   UNL     1      48.942   8.899  12.406  0.00  0.00    +0.000 A 
ATOM     28  N   UNL     1      49.510   8.236  13.462  0.00  0.00    +0.000 N 
ATOM     29  C   UNL     1      48.994   7.070  13.977  0.00  0.00    +0.000 A 
ATOM     30  O   UNL     1      49.510   6.521  14.945  0.00  0.00    +0.000 OA
ATOM     31  C   UNL     1      47.813   6.579  13.294  0.00  0.00    +0.000 A 
ATOM     32  H   UNL     1      50.333   8.598  13.916  0.00  0.00    +0.000 HD
ENDBRANCH  19  22
ENDBRANCH  17  18
ENDBRANCH   4  17
TORSDOF 6
ENDMDL
MODEL 6
REMARK VINA RESULT:    -6.583      3.499      4.790
REMARK INTER + INTRA:         -10.026
REMARK INTER:                  -9.130
REMARK INTRA:                  -0.896
REMARK UNBOUND:                -1.135
REMARK  Name = 
REMARK  6 active torsions:
REMARK  status: ('A' for Active; 'I' for Inactive)
REMARK    1  A    between atoms: C_2  and  C_25
REMARK    2  A    between atoms: N_3  and  C_4
REMARK    3  A    between atoms: C_4  and  C_5
REMARK    4  A    between atoms: C_8  and  C_9
REMARK    5  A    between atoms: C_9  and  N_10
REMARK    6  A    between atoms: C_11  and  C_13
REMARK                            x       y       z     vdW  Elec       q    Type
REMARK                         _______ _______ _______ _____ _____    ______ ____
ROOT
ATOM      1  C   UNL     1      47.268   6.243  13.720  0.00  0.00    +0.000 A 
ATOM      2  C   UNL     1      46.733   5.007  14.111  0.00  0.00    +0.000 A 
ATOM      3  C   UNL     1      47.148   4.393  15.299  0.00  0.00    +0.000 A 
ATOM      4  C   UNL     1      48.092   5.010  16.130  0.00  0.00    +0.000 A 
ATOM      5  C   UNL     1      48.629   6.242  15.736  0.00  0.00    +0.000 A 
ATOM      6  C   UNL     1      48.214   6.856  14.551  0.00  0.00    +0.000 A 
ENDROOT
BRANCH   1   7
ATOM      7  C   UNL     1      46.873   6.874  12.413  0.00  0.00    +0.000 C 
BRANCH   7  10
ATOM      8  O   UNL     1      44.361   6.262  11.323  0.00  0.00    +0.000 OA
ATOM      9  C   UNL     1      45.364   5.709  10.896  0.00  0.00    +0.000 C 
ATOM     10  N   UNL     1      46.645   5.924  11.353  0.00  0.00    +0.000 N 
ATOM     11  H   UNL     1      47.409   5.414  10.920  0.00  0.00    +0.000 HD
BRANCH   9  12
ATOM     12  C   UNL     1      45.233   4.703   9.786  0.00  0.00    +0.000 C 
ATOM     13  C   UNL     1      44.524   3.426   9.965  0.00  0.00    +0.000 C 
ATOM     14  C   UNL     1      44.615   2.817   8.678  0.00  0.00    +0.000 C 
ATOM     15  C   UNL     1      45.303   3.684   7.921  0.00  0.00    +0.000 C 
ATOM     16  N   UNL     1      45.699   4.849   8.566  0.00  0.00    +0.000 NA
ENDBRANCH   9  12
ENDBRANCH   7  10
ENDBRANCH   1   7
BRANCH   4  17
ATOM     17  C   UNL     1      48.556   4.351  17.405  0.00  0.00    +0.000 C 
BRANCH  17  18
ATOM     18  N   UNL     1      49.945   3.973  17.329  0.00  0.00    +0.000 N 
ATOM     19  C   UNL     1      50.798   4.181  18.383  0.00  0.00    +0.000 C 
ATOM     20  O   UNL     1      50.409   4.648  19.452  0.00  0.00    +0.000 OA
ATOM     21  H   UNL     1      50.326   3.804  16.403  0.00  0.00    +0.000 HD
BRANCH  19  22
ATOM     22  C   UNL     1      52.194   3.764  18.194  0.00  0.00    +0.000 A 
ATOM     23  C   UNL     1      53.218   4.683  18.377  0.00  0.00    +0.000 A 
ATOM     24  S   UNL     1      54.777   4.024  18.172  0.00  0.00    +0.000 S 
ATOM     25  C   UNL     1      54.138   2.496  17.778  0.00  0.00    +0.000 A 
ATOM     26  N   UNL     1      54.957   1.456  17.462  0.00  0.00    +0.000 NA
ATOM     27  C   UNL     1      54.338   0.365  17.155  0.00  0.00    +0.000 A 
ATOM     28  N   UNL     1      52.975   0.219  17.140  0.00  0.00    +0.000 N 
ATOM     29  C   UNL     1      52.111   1.234  17.476  0.00  0.00    +0.000 A 
ATOM     30  O   UNL     1      50.897   1.057  17.484  0.00  0.00    +0.000 OA
ATOM     31  C   UNL     1      52.755   2.486  17.822  0.00  0.00    +0.000 A 
ATOM     32  H   UNL     1      52.554  -0.663  16.893  0.00  0.00    +0.000 HD
ENDBRANCH  19  22
ENDBRANCH  17  18
ENDBRANCH   4  17
TORSDOF 6
ENDMDL
MODEL 7
REMARK VINA RESULT:    -6.349      3.436      5.356
REMARK INTER + INTRA:          -9.711
REMARK INTER:                  -8.963
REMARK INTRA:                  -0.748
REMARK UNBOUND:                -1.135
REMARK  Name = 
REMARK  6 active torsions:
REMARK  status: ('A' for Active; 'I' for Inactive)
REMARK    1  A    between atoms: C_2  and  C_25
REMARK    2  A    between atoms: N_3  and  C_4
REMARK    3  A    between atoms: C_4  and  C_5
REMARK    4  A    between atoms: C_8  and  C_9
REMARK    5  A    between atoms: C_9  and  N_10
REMARK    6  A    between atoms: C_11  and  C_13
REMARK                            x       y       z     vdW  Elec       q    Type
REMARK                         _______ _______ _______ _____ _____    ______ ____
ROOT
ATOM      1  C   UNL     1      47.474   5.667  14.474  0.00  0.00    +0.000 A 
ATOM      2  C   UNL     1      46.862   4.434  14.739  0.00  0.00    +0.000 A 
ATOM      3  C   UNL     1      47.147   3.735  15.918  0.00  0.00    +0.000 A 
ATOM      4  C   UNL     1      48.034   4.262  16.866  0.00  0.00    +0.000 A 
ATOM      5  C   UNL     1      48.647   5.493  16.598  0.00  0.00    +0.000 A 
ATOM      6  C   UNL     1      48.362   6.192  15.421  0.00  0.00    +0.000 A 
ENDROOT
BRANCH   1   7
ATOM      7  C   UNL     1      47.220   6.391  13.179  0.00  0.00    +0.000 C 
BRANCH   7  10
ATOM      8  O   UNL     1      45.235   7.044  11.306  0.00  0.00    +0.000 OA
ATOM      9  C   UNL     1      45.800   5.962  11.246  0.00  0.00    +0.000 C 
ATOM     10  N   UNL     1      46.783   5.530  12.109  0.00  0.00    +0.000 N 
ATOM     11  H   UNL     1      47.191   4.611  11.961  0.00  0.00    +0.000 HD
BRANCH   9  12
ATOM     12  C   UNL     1      45.419   4.994  10.161  0.00  0.00    +0.000 C 
ATOM     13  C   UNL     1      44.647   3.771  10.437  0.00  0.00    +0.000 C 
ATOM     14  C   UNL     1      44.489   3.185   9.146  0.00  0.00    +0.000 C 
ATOM     15  C   UNL     1      45.119   4.012   8.298  0.00  0.00    +0.000 C 
ATOM     16  N   UNL     1      45.701   5.130   8.885  0.00  0.00    +0.000 NA
ENDBRANCH   9  12
ENDBRANCH   7  10
ENDBRANCH   1   7
BRANCH   4  17
ATOM     17  C   UNL     1      48.358   3.511  18.133  0.00  0.00    +0.000 C 
BRANCH  17  18
ATOM     18  N   UNL     1      49.767   3.223  18.229  0.00  0.00    +0.000 N 
ATOM     19  C   UNL     1      50.367   2.316  17.392  0.00  0.00    +0.000 C 
ATOM     20  O   UNL     1      49.747   1.750  16.494  0.00  0.00    +0.000 OA
ATOM     21  H   UNL     1      50.236   3.499  19.087  0.00  0.00    +0.000 HD
BRANCH  19  22
ATOM     22  C   UNL     1      51.807   2.096  17.582  0.00  0.00    +0.000 A 
ATOM     23  C   UNL     1      52.297   0.801  17.688  0.00  0.00    +0.000 A 
ATOM     24  S   UNL     1      53.992   0.720  17.851  0.00  0.00    +0.000 S 
ATOM     25  C   UNL     1      54.129   2.417  17.839  0.00  0.00    +0.000 A 
ATOM     26  N   UNL     1      55.341   3.022  17.969  0.00  0.00    +0.000 NA
ATOM     27  C   UNL     1      55.294   4.312  17.974  0.00  0.00    +0.000 A 
ATOM     28  N   UNL     1      54.147   5.052  17.855  0.00  0.00    +0.000 N 
ATOM     29  C   UNL     1      52.904   4.484  17.697  0.00  0.00    +0.000 A 
ATOM     30  O   UNL     1      51.902   5.179  17.561  0.00  0.00    +0.000 OA
ATOM     31  C   UNL     1      52.899   3.035  17.693  0.00  0.00    +0.000 A 
ATOM     32  H   UNL     1      54.179   6.059  17.864  0.00  0.00    +0.000 HD
ENDBRANCH  19  22
ENDBRANCH  17  18
ENDBRANCH   4  17
TORSDOF 6
ENDMDL
MODEL 8
REMARK VINA RESULT:    -5.607      3.780      5.933
REMARK INTER + INTRA:          -8.708
REMARK INTER:                  -7.867
REMARK INTRA:                  -0.841
REMARK UNBOUND:                -1.135
REMARK  Name = 
REMARK  6 active torsions:
REMARK  status: ('A' for Active; 'I' for Inactive)
REMARK    1  A    between atoms: C_2  and  C_25
REMARK    2  A    between atoms: N_3  and  C_4
REMARK    3  A    between atoms: C_4  and  C_5
REMARK    4  A    between atoms: C_8  and  C_9
REMARK    5  A    between atoms: C_9  and  N_10
REMARK    6  A    between atoms: C_11  and  C_13
REMARK                            x       y       z     vdW  Elec       q    Type
REMARK                         _______ _______ _______ _____ _____    ______ ____
ROOT
ATOM      1  C   UNL     1      47.297   5.667  13.266  0.00  0.00    +0.000 A 
ATOM      2  C   UNL     1      46.703   4.415  13.479  0.00  0.00    +0.000 A 
ATOM      3  C   UNL     1      46.784   3.791  14.730  0.00  0.00    +0.000 A 
ATOM      4  C   UNL     1      47.443   4.413  15.798  0.00  0.00    +0.000 A 
ATOM      5  C   UNL     1      48.039   5.662  15.582  0.00  0.00    +0.000 A 
ATOM      6  C   UNL     1      47.957   6.286  14.334  0.00  0.00    +0.000 A 
ENDROOT
BRANCH   1   7
ATOM      7  C   UNL     1      47.268   6.311  11.906  0.00  0.00    +0.000 C 
BRANCH   7  10
ATOM      8  O   UNL     1      44.621   6.402  10.979  0.00  0.00    +0.000 OA
ATOM      9  C   UNL     1      45.167   7.422  11.374  0.00  0.00    +0.000 C 
ATOM     10  N   UNL     1      46.458   7.502  11.845  0.00  0.00    +0.000 N 
ATOM     11  H   UNL     1      46.808   8.403  12.156  0.00  0.00    +0.000 HD
BRANCH   9  12
ATOM     12  C   UNL     1      44.403   8.718  11.355  0.00  0.00    +0.000 C 
ATOM     13  C   UNL     1      44.916   9.939  11.995  0.00  0.00    +0.000 C 
ATOM     14  C   UNL     1      43.908  10.908  11.710  0.00  0.00    +0.000 C 
ATOM     15  C   UNL     1      42.973  10.253  11.006  0.00  0.00    +0.000 C 
ATOM     16  N   UNL     1      43.242   8.910  10.771  0.00  0.00    +0.000 NA
ENDBRANCH   9  12
ENDBRANCH   7  10
ENDBRANCH   1   7
BRANCH   4  17
ATOM     17  C   UNL     1      47.547   3.743  17.146  0.00  0.00    +0.000 C 
BRANCH  17  18
ATOM     18  N   UNL     1      48.922   3.507  17.512  0.00  0.00    +0.000 N 
ATOM     19  C   UNL     1      49.649   2.498  16.933  0.00  0.00    +0.000 C 
ATOM     20  O   UNL     1      49.183   1.787  16.046  0.00  0.00    +0.000 OA
ATOM     21  H   UNL     1      49.244   3.922  18.381  0.00  0.00    +0.000 HD
BRANCH  19  22
ATOM     22  C   UNL     1      51.038   2.344  17.386  0.00  0.00    +0.000 A 
ATOM     23  C   UNL     1      51.569   1.072  17.560  0.00  0.00    +0.000 A 
ATOM     24  S   UNL     1      53.206   1.071  18.035  0.00  0.00    +0.000 S 
ATOM     25  C   UNL     1      53.251   2.772  18.078  0.00  0.00    +0.000 A 
ATOM     26  N   UNL     1      54.384   3.433  18.442  0.00  0.00    +0.000 NA
ATOM     27  C   UNL     1      54.268   4.719  18.460  0.00  0.00    +0.000 A 
ATOM     28  N   UNL     1      53.125   5.404  18.142  0.00  0.00    +0.000 N 
ATOM     29  C   UNL     1      51.966   4.780  17.745  0.00  0.00    +0.000 A 
ATOM     30  O   UNL     1      50.971   5.427  17.435  0.00  0.00    +0.000 OA
ATOM     31  C   UNL     1      52.039   3.332  17.715  0.00  0.00    +0.000 A 
ATOM     32  H   UNL     1      53.101   6.411  18.174  0.00  0.00    +0.000 HD
ENDBRANCH  19  22
ENDBRANCH  17  18
ENDBRANCH   4  17
TORSDOF 6
ENDMDL
MODEL 9
REMARK VINA RESULT:    -5.528      3.799      5.840
REMARK INTER + INTRA:          -8.602
REMARK INTER:                  -7.732
REMARK INTRA:                  -0.871
REMARK UNBOUND:                -1.135
REMARK  Name = 
REMARK  6 active torsions:
REMARK  status: ('A' for Active; 'I' for Inactive)
REMARK    1  A    between atoms: C_2  and  C_25
REMARK    2  A    between atoms: N_3  and  C_4
REMARK    3  A    between atoms: C_4  and  C_5
REMARK    4  A    between atoms: C_8  and  C_9
REMARK    5  A    between atoms: C_9  and  N_10
REMARK    6  A    between atoms: C_11  and  C_13
REMARK                            x       y       z     vdW  Elec       q    Type
REMARK                         _______ _______ _______ _____ _____    ______ ____
ROOT
ATOM      1  C   UNL     1      46.932   5.787  13.083  0.00  0.00    +0.000 A 
ATOM      2  C   UNL     1      46.315   4.657  13.638  0.00  0.00    +0.000 A 
ATOM      3  C   UNL     1      46.642   4.227  14.930  0.00  0.00    +0.000 A 
ATOM      4  C   UNL     1      47.578   4.928  15.701  0.00  0.00    +0.000 A 
ATOM      5  C   UNL     1      48.197   6.055  15.144  0.00  0.00    +0.000 A 
ATOM      6  C   UNL     1      47.869   6.485  13.855  0.00  0.00    +0.000 A 
ENDROOT
BRANCH   1   7
ATOM      7  C   UNL     1      46.631   6.215  11.672  0.00  0.00    +0.000 C 
BRANCH   7  10
ATOM      8  O   UNL     1      43.933   6.943  11.423  0.00  0.00    +0.000 OA
ATOM      9  C   UNL     1      44.798   7.804  11.452  0.00  0.00    +0.000 C 
ATOM     10  N   UNL     1      46.150   7.570  11.566  0.00  0.00    +0.000 N 
ATOM     11  H   UNL     1      46.783   8.364  11.589  0.00  0.00    +0.000 HD
BRANCH   9  12
ATOM     12  C   UNL     1      44.399   9.251  11.354  0.00  0.00    +0.000 C 
ATOM     13  C   UNL     1      43.162   9.678  10.679  0.00  0.00    +0.000 C 
ATOM     14  C   UNL     1      43.168  11.095  10.851  0.00  0.00    +0.000 C 
ATOM     15  C   UNL     1      44.290  11.367  11.534  0.00  0.00    +0.000 C 
ATOM     16  N   UNL     1      45.069  10.263  11.858  0.00  0.00    +0.000 NA
ENDBRANCH   9  12
ENDBRANCH   7  10
ENDBRANCH   1   7
BRANCH   4  17
ATOM     17  C   UNL     1      47.948   4.465  17.088  0.00  0.00    +0.000 C 
BRANCH  17  18
ATOM     18  N   UNL     1      49.337   4.087  17.165  0.00  0.00    +0.000 N 
ATOM     19  C   UNL     1      50.117   4.456  18.232  0.00  0.00    +0.000 C 
ATOM     20  O   UNL     1      49.658   5.078  19.188  0.00  0.00    +0.000 OA
ATOM     21  H   UNL     1      49.780   3.781  16.304  0.00  0.00    +0.000 HD
BRANCH  19  22
ATOM     22  C   UNL     1      51.520   4.022  18.205  0.00  0.00    +0.000 A 
ATOM     23  C   UNL     1      52.524   4.915  18.556  0.00  0.00    +0.000 A 
ATOM     24  S   UNL     1      54.088   4.236  18.524  0.00  0.00    +0.000 S 
ATOM     25  C   UNL     1      53.485   2.737  17.986  0.00  0.00    +0.000 A 
ATOM     26  N   UNL     1      54.324   1.696  17.733  0.00  0.00    +0.000 NA
ATOM     27  C   UNL     1      53.736   0.630  17.303  0.00  0.00    +0.000 A 
ATOM     28  N   UNL     1      52.385   0.509  17.109  0.00  0.00    +0.000 N 
ATOM     29  C   UNL     1      51.497   1.525  17.375  0.00  0.00    +0.000 A 
ATOM     30  O   UNL     1      50.290   1.370  17.220  0.00  0.00    +0.000 OA
ATOM     31  C   UNL     1      52.108   2.751  17.853  0.00  0.00    +0.000 A 
ATOM     32  H   UNL     1      51.987  -0.354  16.772  0.00  0.00    +0.000 HD
ENDBRANCH  19  22
ENDBRANCH  17  18
ENDBRANCH   4  17
TORSDOF 6
ENDMDL
