MODEL 1
REMARK VINA RESULT:    -8.270      0.000      0.000
REMARK INTER + INTRA:         -12.720
REMARK INTER:                 -12.138
REMARK INTRA:                  -0.582
REMARK UNBOUND:                -0.582
REMARK  Name = 
REMARK  8 active torsions:
REMARK  status: ('A' for Active; 'I' for Inactive)
REMARK    1  A    between atoms: C_2  and  C_3
REMARK    2  A    between atoms: C_3  and  N_4
REMARK    3  A    between atoms: C_3  and  C_26
REMARK    4  A    between atoms: N_4  and  C_5
REMARK    5  A    between atoms: C_5  and  C_6
REMARK    6  A    between atoms: C_9  and  C_10
REMARK    7  A    between atoms: C_10  and  N_11
REMARK    8  A    between atoms: C_12  and  C_14
REMARK                            x       y       z     vdW  Elec       q    Type
REMARK                         _______ _______ _______ _____ _____    ______ ____
ROOT
ATOM      1  C   UNL     1      44.314   6.730  11.680  0.00  0.00    +0.000 A 
ATOM      2  C   UNL     1      44.608   8.075  11.416  0.00  0.00    +0.000 A 
ATOM      3  C   UNL     1      45.666   8.723  12.064  0.00  0.00    +0.000 A 
ATOM      4  C   UNL     1      46.464   8.033  12.985  0.00  0.00    +0.000 A 
ATOM      5  C   UNL     1      46.171   6.688  13.249  0.00  0.00    +0.000 A 
ATOM      6  C   UNL     1      45.116   6.038  12.597  0.00  0.00    +0.000 A 
ENDROOT
BRANCH   1   7
ATOM      7  C   UNL     1      43.092   6.086  11.065  0.00  0.00    +0.000 C 
BRANCH   7   8
ATOM      8  N   UNL     1      43.448   5.172   9.979  0.00  0.00    +0.000 NA
ATOM      9  H   UNL     1      43.967   5.695   9.271  0.00  0.00    +0.000 HD
BRANCH   8  10
ATOM     10  C   UNL     1      44.323   4.060  10.446  0.00  0.00    +0.000 C 
BRANCH  10  11
ATOM     11  C   UNL     1      45.147   3.508   9.282  0.00  0.00    +0.000 A 
ATOM     12  C   UNL     1      45.360   2.133   9.151  0.00  0.00    +0.000 A 
ATOM     13  C   UNL     1      46.151   1.666   8.108  0.00  0.00    +0.000 A 
ATOM     14  C   UNL     1      46.709   2.576   7.220  0.00  0.00    +0.000 A 
ATOM     15  C   UNL     1      46.439   3.922   7.404  0.00  0.00    +0.000 A 
ATOM     16  N   UNL     1      45.668   4.407   8.405  0.00  0.00    +0.000 NA
ENDBRANCH  10  11
BRANCH  10  18
ATOM     17  N   UNL     1      43.062   2.040  11.618  0.00  0.00    +0.000 NA
ATOM     18  C   UNL     1      43.597   2.935  11.103  0.00  0.00    +0.000 C 
ENDBRANCH  10  18
ENDBRANCH   8  10
ENDBRANCH   7   8
ENDBRANCH   1   7
BRANCH   4  19
ATOM     19  C   UNL     1      47.604   8.713  13.701  0.00  0.00    +0.000 C 
BRANCH  19  20
ATOM     20  N   UNL     1      47.899   8.086  14.966  0.00  0.00    +0.000 N 
ATOM     21  C   UNL     1      48.966   7.231  15.109  0.00  0.00    +0.000 C 
ATOM     22  O   UNL     1      49.741   6.991  14.188  0.00  0.00    +0.000 OA
ATOM     23  H   UNL     1      47.140   8.036  15.638  0.00  0.00    +0.000 HD
BRANCH  21  24
ATOM     24  C   UNL     1      49.161   6.655  16.446  0.00  0.00    +0.000 A 
ATOM     25  C   UNL     1      49.847   7.372  17.418  0.00  0.00    +0.000 A 
ATOM     26  S   UNL     1      49.983   6.545  18.904  0.00  0.00    +0.000 S 
ATOM     27  C   UNL     1      49.161   5.189  18.292  0.00  0.00    +0.000 A 
ATOM     28  N   UNL     1      48.964   4.083  19.056  0.00  0.00    +0.000 NA
ATOM     29  C   UNL     1      48.334   3.125  18.460  0.00  0.00    +0.000 A 
ATOM     30  N   UNL     1      47.863   3.184  17.173  0.00  0.00    +0.000 N 
ATOM     31  C   UNL     1      48.010   4.293  16.375  0.00  0.00    +0.000 A 
ATOM     32  O   UNL     1      47.526   4.335  15.249  0.00  0.00    +0.000 OA
ATOM     33  C   UNL     1      48.749   5.380  16.989  0.00  0.00    +0.000 A 
ATOM     34  H   UNL     1      47.349   2.414  16.772  0.00  0.00    +0.000 HD
ENDBRANCH  21  24
ENDBRANCH  19  20
ENDBRANCH   4  19
TORSDOF 8
ENDMDL
MODEL 2
REMARK VINA RESULT:    -7.722      1.673      2.295
REMARK INTER + INTRA:         -11.916
REMARK INTER:                 -11.414
REMARK INTRA:                  -0.501
REMARK UNBOUND:                -0.582
REMARK  Name = 
REMARK  8 active torsions:
REMARK  status: ('A' for Active; 'I' for Inactive)
REMARK    1  A    between atoms: C_2  and  C_3
REMARK    2  A    between atoms: C_3  and  N_4
REMARK    3  A    between atoms: C_3  and  C_26
REMARK    4  A    between atoms: N_4  and  C_5
REMARK    5  A    between atoms: C_5  and  C_6
REMARK    6  A    between atoms: C_9  and  C_10
REMARK    7  A    between atoms: C_10  and  N_11
REMARK    8  A    between atoms: C_12  and  C_14
REMARK                            x       y       z     vdW  Elec       q    Type
REMARK                         _______ _______ _______ _____ _____    ______ ____
ROOT
ATOM      1  C   UNL     1      44.391   6.469  11.915  0.00  0.00    +0.000 A 
ATOM      2  C   UNL     1      45.015   5.599  12.820  0.00  0.00    +0.000 A 
ATOM      3  C   UNL     1      46.208   5.957  13.459  0.00  0.00    +0.000 A 
ATOM      4  C   UNL     1      46.798   7.204  13.215  0.00  0.00    +0.000 A 
ATOM      5  C   UNL     1      46.173   8.075  12.311  0.00  0.00    +0.000 A 
ATOM      6  C   UNL     1      44.977   7.718  11.677  0.00  0.00    +0.000 A 
ENDROOT
BRANCH   1   7
ATOM      7  C   UNL     1      43.173   6.014  11.144  0.00  0.00    +0.000 C 
BRANCH   7   8
ATOM      8  N   UNL     1      43.534   5.167  10.007  0.00  0.00    +0.000 NA
ATOM      9  H   UNL     1      44.086   5.723   9.350  0.00  0.00    +0.000 HD
BRANCH   8  10
ATOM     10  C   UNL     1      44.367   4.002  10.418  0.00  0.00    +0.000 C 
BRANCH  10  11
ATOM     11  C   UNL     1      45.163   3.470   9.225  0.00  0.00    +0.000 A 
ATOM     12  C   UNL     1      45.413   2.101   9.091  0.00  0.00    +0.000 A 
ATOM     13  C   UNL     1      46.177   1.654   8.020  0.00  0.00    +0.000 A 
ATOM     14  C   UNL     1      46.672   2.577   7.107  0.00  0.00    +0.000 A 
ATOM     15  C   UNL     1      46.367   3.915   7.297  0.00  0.00    +0.000 A 
ATOM     16  N   UNL     1      45.622   4.380   8.325  0.00  0.00    +0.000 NA
ENDBRANCH  10  11
BRANCH  10  18
ATOM     17  N   UNL     1      43.032   1.998  11.533  0.00  0.00    +0.000 NA
ATOM     18  C   UNL     1      43.601   2.879  11.031  0.00  0.00    +0.000 C 
ENDBRANCH  10  18
ENDBRANCH   8  10
ENDBRANCH   7   8
ENDBRANCH   1   7
BRANCH   4  19
ATOM     19  C   UNL     1      48.087   7.608  13.885  0.00  0.00    +0.000 C 
BRANCH  19  20
ATOM     20  N   UNL     1      48.157   7.142  15.249  0.00  0.00    +0.000 N 
ATOM     21  C   UNL     1      49.351   6.774  15.819  0.00  0.00    +0.000 C 
ATOM     22  O   UNL     1      50.418   6.860  15.218  0.00  0.00    +0.000 OA
ATOM     23  H   UNL     1      47.294   6.798  15.657  0.00  0.00    +0.000 HD
BRANCH  21  24
ATOM     24  C   UNL     1      49.291   6.316  17.213  0.00  0.00    +0.000 A 
ATOM     25  C   UNL     1      49.864   5.103  17.572  0.00  0.00    +0.000 A 
ATOM     26  S   UNL     1      49.690   4.732  19.228  0.00  0.00    +0.000 S 
ATOM     27  C   UNL     1      48.817   6.162  19.518  0.00  0.00    +0.000 A 
ATOM     28  N   UNL     1      48.330   6.448  20.753  0.00  0.00    +0.000 NA
ATOM     29  C   UNL     1      47.677   7.562  20.825  0.00  0.00    +0.000 A 
ATOM     30  N   UNL     1      47.489   8.425  19.776  0.00  0.00    +0.000 N 
ATOM     31  C   UNL     1      47.993   8.192  18.519  0.00  0.00    +0.000 A 
ATOM     32  O   UNL     1      47.857   9.013  17.618  0.00  0.00    +0.000 OA
ATOM     33  C   UNL     1      48.697   6.932  18.379  0.00  0.00    +0.000 A 
ATOM     34  H   UNL     1      46.998   9.298  19.902  0.00  0.00    +0.000 HD
ENDBRANCH  21  24
ENDBRANCH  19  20
ENDBRANCH   4  19
TORSDOF 8
ENDMDL
MODEL 3
REMARK VINA RESULT:    -7.604      3.004      4.153
REMARK INTER + INTRA:         -11.743
REMARK INTER:                 -10.571
REMARK INTRA:                  -1.171
REMARK UNBOUND:                -0.582
REMARK  Name = 
REMARK  8 active torsions:
REMARK  status: ('A' for Active; 'I' for Inactive)
REMARK    1  A    between atoms: C_2  and  C_3
REMARK    2  A    between atoms: C_3  and  N_4
REMARK    3  A    between atoms: C_3  and  C_26
REMARK    4  A    between atoms: N_4  and  C_5
REMARK    5  A    between atoms: C_5  and  C_6
REMARK    6  A    between atoms: C_9  and  C_10
REMARK    7  A    between atoms: C_10  and  N_11
REMARK    8  A    between atoms: C_12  and  C_14
REMARK                            x       y       z     vdW  Elec       q    Type
REMARK                         _______ _______ _______ _____ _____    ______ ____
ROOT
ATOM      1  C   UNL     1      46.877   4.583  14.049  0.00  0.00    +0.000 A 
ATOM      2  C   UNL     1      46.914   3.957  15.302  0.00  0.00    +0.000 A 
ATOM      3  C   UNL     1      47.657   4.499  16.357  0.00  0.00    +0.000 A 
ATOM      4  C   UNL     1      48.371   5.692  16.184  0.00  0.00    +0.000 A 
ATOM      5  C   UNL     1      48.333   6.319  14.931  0.00  0.00    +0.000 A 
ATOM      6  C   UNL     1      47.586   5.779  13.878  0.00  0.00    +0.000 A 
ENDROOT
BRANCH   1   7
ATOM      7  C   UNL     1      46.173   3.917  12.889  0.00  0.00    +0.000 C 
BRANCH   7   8
ATOM      8  N   UNL     1      44.720   4.052  12.985  0.00  0.00    +0.000 NA
ATOM      9  H   UNL     1      44.498   4.589  13.826  0.00  0.00    +0.000 HD
BRANCH   8  10
ATOM     10  C   UNL     1      44.146   4.785  11.821  0.00  0.00    +0.000 C 
BRANCH  10  11
ATOM     11  C   UNL     1      44.582   4.127  10.511  0.00  0.00    +0.000 A 
ATOM     12  C   UNL     1      45.305   4.849   9.558  0.00  0.00    +0.000 A 
ATOM     13  C   UNL     1      45.647   4.236   8.359  0.00  0.00    +0.000 A 
ATOM     14  C   UNL     1      45.263   2.919   8.136  0.00  0.00    +0.000 A 
ATOM     15  C   UNL     1      44.563   2.263   9.135  0.00  0.00    +0.000 A 
ATOM     16  N   UNL     1      44.221   2.830  10.315  0.00  0.00    +0.000 NA
ENDBRANCH  10  11
BRANCH  10  18
ATOM     17  N   UNL     1      44.784   7.360  11.759  0.00  0.00    +0.000 NA
ATOM     18  C   UNL     1      44.489   6.236  11.773  0.00  0.00    +0.000 C 
ENDBRANCH  10  18
ENDBRANCH   8  10
ENDBRANCH   7   8
ENDBRANCH   1   7
BRANCH   4  19
ATOM     19  C   UNL     1      49.185   6.290  17.305  0.00  0.00    +0.000 C 
BRANCH  19  20
ATOM     20  N   UNL     1      50.180   5.371  17.801  0.00  0.00    +0.000 N 
ATOM     21  C   UNL     1      51.460   5.367  17.303  0.00  0.00    +0.000 C 
ATOM     22  O   UNL     1      51.834   6.164  16.449  0.00  0.00    +0.000 OA
ATOM     23  H   UNL     1      49.838   4.542  18.276  0.00  0.00    +0.000 HD
BRANCH  21  24
ATOM     24  C   UNL     1      52.381   4.384  17.889  0.00  0.00    +0.000 A 
ATOM     25  C   UNL     1      53.512   4.811  18.573  0.00  0.00    +0.000 A 
ATOM     26  S   UNL     1      54.466   3.533  19.177  0.00  0.00    +0.000 S 
ATOM     27  C   UNL     1      53.421   2.364  18.519  0.00  0.00    +0.000 A 
ATOM     28  N   UNL     1      53.684   1.037  18.646  0.00  0.00    +0.000 NA
ATOM     29  C   UNL     1      52.811   0.263  18.088  0.00  0.00    +0.000 A 
ATOM     30  N   UNL     1      51.687   0.699  17.435  0.00  0.00    +0.000 N 
ATOM     31  C   UNL     1      51.364   2.029  17.312  0.00  0.00    +0.000 A 
ATOM     32  O   UNL     1      50.321   2.383  16.773  0.00  0.00    +0.000 OA
ATOM     33  C   UNL     1      52.338   2.938  17.887  0.00  0.00    +0.000 A 
ATOM     34  H   UNL     1      51.024   0.044  17.047  0.00  0.00    +0.000 HD
ENDBRANCH  21  24
ENDBRANCH  19  20
ENDBRANCH   4  19
TORSDOF 8
ENDMDL
MODEL 4
REMARK VINA RESULT:    -7.448      1.755      2.560
REMARK INTER + INTRA:         -11.514
REMARK INTER:                 -10.511
REMARK INTRA:                  -1.003
REMARK UNBOUND:                -0.582
REMARK  Name = 
REMARK  8 active torsions:
REMARK  status: ('A' for Active; 'I' for Inactive)
REMARK    1  A    between atoms: C_2  and  C_3
REMARK    2  A    between atoms: C_3  and  N_4
REMARK    3  A    between atoms: C_3  and  C_26
REMARK    4  A    between atoms: N_4  and  C_5
REMARK    5  A    between atoms: C_5  and  C_6
REMARK    6  A    between atoms: C_9  and  C_10
REMARK    7  A    between atoms: C_10  and  N_11
REMARK    8  A    between atoms: C_12  and  C_14
REMARK                            x       y       z     vdW  Elec       q    Type
REMARK                         _______ _______ _______ _____ _____    ______ ____
ROOT
ATOM      1  C   UNL     1      45.550   4.373  12.950  0.00  0.00    +0.000 A 
ATOM      2  C   UNL     1      46.681   3.889  13.622  0.00  0.00    +0.000 A 
ATOM      3  C   UNL     1      47.686   4.758  14.060  0.00  0.00    +0.000 A 
ATOM      4  C   UNL     1      47.576   6.137  13.847  0.00  0.00    +0.000 A 
ATOM      5  C   UNL     1      46.445   6.623  13.176  0.00  0.00    +0.000 A 
ATOM      6  C   UNL     1      45.437   5.754  12.742  0.00  0.00    +0.000 A 
ENDROOT
BRANCH   1   7
ATOM      7  C   UNL     1      44.538   3.408  12.376  0.00  0.00    +0.000 C 
BRANCH   7   8
ATOM      8  N   UNL     1      45.098   2.623  11.277  0.00  0.00    +0.000 NA
ATOM      9  H   UNL     1      44.971   1.631  11.488  0.00  0.00    +0.000 HD
BRANCH   8  10
ATOM     10  C   UNL     1      44.410   2.896   9.984  0.00  0.00    +0.000 C 
BRANCH  10  11
ATOM     11  C   UNL     1      45.373   2.688   8.814  0.00  0.00    +0.000 A 
ATOM     12  C   UNL     1      45.654   3.734   7.930  0.00  0.00    +0.000 A 
ATOM     13  C   UNL     1      46.498   3.501   6.852  0.00  0.00    +0.000 A 
ATOM     14  C   UNL     1      47.044   2.234   6.678  0.00  0.00    +0.000 A 
ATOM     15  C   UNL     1      46.732   1.254   7.606  0.00  0.00    +0.000 A 
ATOM     16  N   UNL     1      45.919   1.451   8.669  0.00  0.00    +0.000 NA
ENDBRANCH  10  11
BRANCH  10  18
ATOM     17  N   UNL     1      43.350   5.325   9.831  0.00  0.00    +0.000 NA
ATOM     18  C   UNL     1      43.806   4.256   9.880  0.00  0.00    +0.000 C 
ENDBRANCH  10  18
ENDBRANCH   8  10
ENDBRANCH   7   8
ENDBRANCH   1   7
BRANCH   4  19
ATOM     19  C   UNL     1      48.652   7.091  14.303  0.00  0.00    +0.000 C 
BRANCH  19  20
ATOM     20  N   UNL     1      48.996   6.895  15.690  0.00  0.00    +0.000 N 
ATOM     21  C   UNL     1      48.745   7.862  16.633  0.00  0.00    +0.000 C 
ATOM     22  O   UNL     1      48.180   8.916  16.357  0.00  0.00    +0.000 OA
ATOM     23  H   UNL     1      49.697   6.189  15.889  0.00  0.00    +0.000 HD
BRANCH  21  24
ATOM     24  C   UNL     1      49.143   7.543  18.011  0.00  0.00    +0.000 A 
ATOM     25  C   UNL     1      49.914   8.441  18.737  0.00  0.00    +0.000 A 
ATOM     26  S   UNL     1      50.287   7.901  20.311  0.00  0.00    +0.000 S 
ATOM     27  C   UNL     1      49.458   6.437  20.069  0.00  0.00    +0.000 A 
ATOM     28  N   UNL     1      49.419   5.484  21.036  0.00  0.00    +0.000 NA
ATOM     29  C   UNL     1      48.764   4.418  20.711  0.00  0.00    +0.000 A 
ATOM     30  N   UNL     1      48.126   4.230  19.512  0.00  0.00    +0.000 N 
ATOM     31  C   UNL     1      48.110   5.180  18.518  0.00  0.00    +0.000 A 
ATOM     32  O   UNL     1      47.480   5.004  17.481  0.00  0.00    +0.000 OA
ATOM     33  C   UNL     1      48.870   6.378  18.823  0.00  0.00    +0.000 A 
ATOM     34  H   UNL     1      47.601   3.388  19.328  0.00  0.00    +0.000 HD
ENDBRANCH  21  24
ENDBRANCH  19  20
ENDBRANCH   4  19
TORSDOF 8
ENDMDL
MODEL 5
REMARK VINA RESULT:    -7.387      4.344      9.391
REMARK INTER + INTRA:         -11.423
REMARK INTER:                 -10.020
REMARK INTRA:                  -1.403
REMARK UNBOUND:                -0.582
REMARK  Name = 
REMARK  8 active torsions:
REMARK  status: ('A' for Active; 'I' for Inactive)
REMARK    1  A    between atoms: C_2  and  C_3
REMARK    2  A    between atoms: C_3  and  N_4
REMARK    3  A    between atoms: C_3  and  C_26
REMARK    4  A    between atoms: N_4  and  C_5
REMARK    5  A    between atoms: C_5  and  C_6
REMARK    6  A    between atoms: C_9  and  C_10
REMARK    7  A    between atoms: C_10  and  N_11
REMARK    8  A    between atoms: C_12  and  C_14
REMARK                            x       y       z     vdW  Elec       q    Type
REMARK                         _______ _______ _______ _____ _____    ______ ____
ROOT
ATOM      1  C   UNL     1      50.615   2.340  17.618  0.00  0.00    +0.000 A 
ATOM      2  C   UNL     1      51.401   3.500  17.666  0.00  0.00    +0.000 A 
ATOM      3  C   UNL     1      50.852   4.756  17.381  0.00  0.00    +0.000 A 
ATOM      4  C   UNL     1      49.496   4.881  17.055  0.00  0.00    +0.000 A 
ATOM      5  C   UNL     1      48.709   3.722  17.009  0.00  0.00    +0.000 A 
ATOM      6  C   UNL     1      49.257   2.466  17.298  0.00  0.00    +0.000 A 
ENDROOT
BRANCH   1   7
ATOM      7  C   UNL     1      51.254   0.983  17.806  0.00  0.00    +0.000 C 
BRANCH   7   8
ATOM      8  N   UNL     1      52.337   0.755  16.850  0.00  0.00    +0.000 NA
ATOM      9  H   UNL     1      52.530   1.632  16.362  0.00  0.00    +0.000 HD
BRANCH   8  10
ATOM     10  C   UNL     1      53.597   0.328  17.521  0.00  0.00    +0.000 C 
BRANCH  10  11
ATOM     11  C   UNL     1      54.301   1.534  18.145  0.00  0.00    +0.000 A 
ATOM     12  C   UNL     1      54.933   2.484  17.339  0.00  0.00    +0.000 A 
ATOM     13  C   UNL     1      55.602   3.544  17.938  0.00  0.00    +0.000 A 
ATOM     14  C   UNL     1      55.627   3.634  19.325  0.00  0.00    +0.000 A 
ATOM     15  C   UNL     1      54.963   2.663  20.056  0.00  0.00    +0.000 A 
ATOM     16  N   UNL     1      54.298   1.624  19.502  0.00  0.00    +0.000 NA
ENDBRANCH  10  11
BRANCH  10  18
ATOM     17  N   UNL     1      55.332  -0.924  15.950  0.00  0.00    +0.000 NA
ATOM     18  C   UNL     1      54.558  -0.390  16.634  0.00  0.00    +0.000 C 
ENDBRANCH  10  18
ENDBRANCH   8  10
ENDBRANCH   7   8
ENDBRANCH   1   7
BRANCH   4  19
ATOM     19  C   UNL     1      48.885   6.222  16.737  0.00  0.00    +0.000 C 
BRANCH  19  20
ATOM     20  N   UNL     1      47.873   6.127  15.713  0.00  0.00    +0.000 N 
ATOM     21  C   UNL     1      48.165   6.374  14.394  0.00  0.00    +0.000 C 
ATOM     22  O   UNL     1      49.300   6.645  14.013  0.00  0.00    +0.000 OA
ATOM     23  H   UNL     1      46.908   6.190  16.020  0.00  0.00    +0.000 HD
BRANCH  21  24
ATOM     24  C   UNL     1      47.050   6.245  13.447  0.00  0.00    +0.000 A 
ATOM     25  C   UNL     1      46.527   7.375  12.830  0.00  0.00    +0.000 A 
ATOM     26  S   UNL     1      45.234   7.036  11.771  0.00  0.00    +0.000 S 
ATOM     27  C   UNL     1      45.304   5.374  12.123  0.00  0.00    +0.000 A 
ATOM     28  N   UNL     1      44.427   4.501  11.564  0.00  0.00    +0.000 NA
ATOM     29  C   UNL     1      44.590   3.271  11.928  0.00  0.00    +0.000 A 
ATOM     30  N   UNL     1      45.568   2.835  12.785  0.00  0.00    +0.000 N 
ATOM     31  C   UNL     1      46.497   3.678  13.348  0.00  0.00    +0.000 A 
ATOM     32  O   UNL     1      47.394   3.247  14.064  0.00  0.00    +0.000 OA
ATOM     33  C   UNL     1      46.326   5.076  13.000  0.00  0.00    +0.000 A 
ATOM     34  H   UNL     1      45.666   1.856  13.008  0.00  0.00    +0.000 HD
ENDBRANCH  21  24
ENDBRANCH  19  20
ENDBRANCH   4  19
TORSDOF 8
ENDMDL
MODEL 6
REMARK VINA RESULT:    -7.383      4.819      9.552
REMARK INTER + INTRA:         -11.418
REMARK INTER:                 -10.307
REMARK INTRA:                  -1.112
REMARK UNBOUND:                -0.582
REMARK  Name = 
REMARK  8 active torsions:
REMARK  status: ('A' for Active; 'I' for Inactive)
REMARK    1  A    between atoms: C_2  and  C_3
REMARK    2  A    between atoms: C_3  and  N_4
REMARK    3  A    between atoms: C_3  and  C_26
REMARK    4  A    between atoms: N_4  and  C_5
REMARK    5  A    between atoms: C_5  and  C_6
REMARK    6  A    between atoms: C_9  and  C_10
REMARK    7  A    between atoms: C_10  and  N_11
REMARK    8  A    between atoms: C_12  and  C_14
REMARK                            x       y       z     vdW  Elec       q    Type
REMARK                         _______ _______ _______ _____ _____    ______ ____
ROOT
ATOM      1  C   UNL     1      50.707   2.414  17.559  0.00  0.00    +0.000 A 
ATOM      2  C   UNL     1      51.467   3.590  17.627  0.00  0.00    +0.000 A 
ATOM      3  C   UNL     1      50.889   4.838  17.369  0.00  0.00    +0.000 A 
ATOM      4  C   UNL     1      49.529   4.939  17.050  0.00  0.00    +0.000 A 
ATOM      5  C   UNL     1      48.768   3.763  16.984  0.00  0.00    +0.000 A 
ATOM      6  C   UNL     1      49.345   2.515  17.247  0.00  0.00    +0.000 A 
ENDROOT
BRANCH   1   7
ATOM      7  C   UNL     1      51.377   1.068  17.717  0.00  0.00    +0.000 C 
BRANCH   7   8
ATOM      8  N   UNL     1      52.724   1.193  18.274  0.00  0.00    +0.000 NA
ATOM      9  H   UNL     1      52.776   0.632  19.127  0.00  0.00    +0.000 HD
BRANCH   8  10
ATOM     10  C   UNL     1      53.767   0.685  17.339  0.00  0.00    +0.000 C 
BRANCH  10  11
ATOM     11  C   UNL     1      54.334  -0.642  17.844  0.00  0.00    +0.000 A 
ATOM     12  C   UNL     1      55.156  -1.421  17.025  0.00  0.00    +0.000 A 
ATOM     13  C   UNL     1      55.619  -2.644  17.497  0.00  0.00    +0.000 A 
ATOM     14  C   UNL     1      55.255  -3.061  18.772  0.00  0.00    +0.000 A 
ATOM     15  C   UNL     1      54.451  -2.226  19.530  0.00  0.00    +0.000 A 
ATOM     16  N   UNL     1      53.990  -1.029  19.102  0.00  0.00    +0.000 NA
ENDBRANCH  10  11
BRANCH  10  18
ATOM     17  N   UNL     1      55.755   2.380  16.872  0.00  0.00    +0.000 NA
ATOM     18  C   UNL     1      54.893   1.633  17.095  0.00  0.00    +0.000 C 
ENDBRANCH  10  18
ENDBRANCH   8  10
ENDBRANCH   7   8
ENDBRANCH   1   7
BRANCH   4  19
ATOM     19  C   UNL     1      48.886   6.272  16.761  0.00  0.00    +0.000 C 
BRANCH  19  20
ATOM     20  N   UNL     1      47.888   6.179  15.724  0.00  0.00    +0.000 N 
ATOM     21  C   UNL     1      48.199   6.425  14.408  0.00  0.00    +0.000 C 
ATOM     22  O   UNL     1      49.340   6.693  14.044  0.00  0.00    +0.000 OA
ATOM     23  H   UNL     1      46.919   6.243  16.017  0.00  0.00    +0.000 HD
BRANCH  21  24
ATOM     24  C   UNL     1      47.097   6.298  13.447  0.00  0.00    +0.000 A 
ATOM     25  C   UNL     1      46.591   7.428  12.815  0.00  0.00    +0.000 A 
ATOM     26  S   UNL     1      45.311   7.091  11.740  0.00  0.00    +0.000 S 
ATOM     27  C   UNL     1      45.365   5.431  12.102  0.00  0.00    +0.000 A 
ATOM     28  N   UNL     1      44.489   4.560  11.536  0.00  0.00    +0.000 NA
ATOM     29  C   UNL     1      44.638   3.331  11.911  0.00  0.00    +0.000 A 
ATOM     30  N   UNL     1      45.600   2.894  12.785  0.00  0.00    +0.000 N 
ATOM     31  C   UNL     1      46.527   3.734  13.356  0.00  0.00    +0.000 A 
ATOM     32  O   UNL     1      47.410   3.301  14.088  0.00  0.00    +0.000 OA
ATOM     33  C   UNL     1      46.371   5.131  12.996  0.00  0.00    +0.000 A 
ATOM     34  H   UNL     1      45.688   1.916  13.015  0.00  0.00    +0.000 HD
ENDBRANCH  21  24
ENDBRANCH  19  20
ENDBRANCH   4  19
TORSDOF 8
ENDMDL
MODEL 7
REMARK VINA RESULT:    -7.348      2.855      8.135
REMARK INTER + INTRA:         -11.367
REMARK INTER:                  -9.762
REMARK INTRA:                  -1.606
REMARK UNBOUND:                -0.582
REMARK  Name = 
REMARK  8 active torsions:
REMARK  status: ('A' for Active; 'I' for Inactive)
REMARK    1  A    between atoms: C_2  and  C_3
REMARK    2  A    between atoms: C_3  and  N_4
REMARK    3  A    between atoms: C_3  and  C_26
REMARK    4  A    between atoms: N_4  and  C_5
REMARK    5  A    between atoms: C_5  and  C_6
REMARK    6  A    between atoms: C_9  and  C_10
REMARK    7  A    between atoms: C_10  and  N_11
REMARK    8  A    between atoms: C_12  and  C_14
REMARK                            x       y       z     vdW  Elec       q    Type
REMARK                         _______ _______ _______ _____ _____    ______ ____
ROOT
ATOM      1  C   UNL     1      49.225   8.160  15.885  0.00  0.00    +0.000 A 
ATOM      2  C   UNL     1      49.746   7.208  14.998  0.00  0.00    +0.000 A 
ATOM      3  C   UNL     1      49.250   7.089  13.695  0.00  0.00    +0.000 A 
ATOM      4  C   UNL     1      48.226   7.932  13.245  0.00  0.00    +0.000 A 
ATOM      5  C   UNL     1      47.706   8.885  14.131  0.00  0.00    +0.000 A 
ATOM      6  C   UNL     1      48.206   9.008  15.433  0.00  0.00    +0.000 A 
ENDROOT
BRANCH   1   7
ATOM      7  C   UNL     1      49.688   8.188  17.324  0.00  0.00    +0.000 C 
BRANCH   7   8
ATOM      8  N   UNL     1      50.458   6.995  17.672  0.00  0.00    +0.000 NA
ATOM      9  H   UNL     1      51.311   7.287  18.153  0.00  0.00    +0.000 HD
BRANCH   8  10
ATOM     10  C   UNL     1      49.710   6.093  18.593  0.00  0.00    +0.000 C 
BRANCH  10  11
ATOM     11  C   UNL     1      49.244   4.841  17.850  0.00  0.00    +0.000 A 
ATOM     12  C   UNL     1      48.024   4.831  17.168  0.00  0.00    +0.000 A 
ATOM     13  C   UNL     1      47.609   3.663  16.540  0.00  0.00    +0.000 A 
ATOM     14  C   UNL     1      48.416   2.534  16.604  0.00  0.00    +0.000 A 
ATOM     15  C   UNL     1      49.619   2.626  17.283  0.00  0.00    +0.000 A 
ATOM     16  N   UNL     1      50.054   3.749  17.899  0.00  0.00    +0.000 NA
ENDBRANCH  10  11
BRANCH  10  18
ATOM     17  N   UNL     1      47.644   7.235  19.806  0.00  0.00    +0.000 NA
ATOM     18  C   UNL     1      48.536   6.726  19.261  0.00  0.00    +0.000 C 
ENDBRANCH  10  18
ENDBRANCH   8  10
ENDBRANCH   7   8
ENDBRANCH   1   7
BRANCH   4  19
ATOM     19  C   UNL     1      47.671   7.816  11.847  0.00  0.00    +0.000 C 
BRANCH  19  20
ATOM     20  N   UNL     1      46.939   6.588  11.656  0.00  0.00    +0.000 N 
ATOM     21  C   UNL     1      45.573   6.541  11.788  0.00  0.00    +0.000 C 
ATOM     22  O   UNL     1      44.904   7.540  12.032  0.00  0.00    +0.000 OA
ATOM     23  H   UNL     1      47.468   5.725  11.739  0.00  0.00    +0.000 HD
BRANCH  21  24
ATOM     24  C   UNL     1      44.944   5.231  11.570  0.00  0.00    +0.000 A 
ATOM     25  C   UNL     1      44.212   4.633  12.587  0.00  0.00    +0.000 A 
ATOM     26  S   UNL     1      43.564   3.115  12.158  0.00  0.00    +0.000 S 
ATOM     27  C   UNL     1      44.264   3.188  10.610  0.00  0.00    +0.000 A 
ATOM     28  N   UNL     1      44.123   2.166   9.727  0.00  0.00    +0.000 NA
ATOM     29  C   UNL     1      44.716   2.352   8.594  0.00  0.00    +0.000 A 
ATOM     30  N   UNL     1      45.420   3.480   8.258  0.00  0.00    +0.000 N 
ATOM     31  C   UNL     1      45.560   4.552   9.106  0.00  0.00    +0.000 A 
ATOM     32  O   UNL     1      46.145   5.570   8.753  0.00  0.00    +0.000 OA
ATOM     33  C   UNL     1      44.945   4.371  10.408  0.00  0.00    +0.000 A 
ATOM     34  H   UNL     1      45.834   3.581   7.344  0.00  0.00    +0.000 HD
ENDBRANCH  21  24
ENDBRANCH  19  20
ENDBRANCH   4  19
TORSDOF 8
ENDMDL
MODEL 8
REMARK VINA RESULT:    -6.990      3.400      8.711
REMARK INTER + INTRA:         -10.841
REMARK INTER:                  -9.725
REMARK INTRA:                  -1.116
REMARK UNBOUND:                -0.582
REMARK  Name = 
REMARK  8 active torsions:
REMARK  status: ('A' for Active; 'I' for Inactive)
REMARK    1  A    between atoms: C_2  and  C_3
REMARK    2  A    between atoms: C_3  and  N_4
REMARK    3  A    between atoms: C_3  and  C_26
REMARK    4  A    between atoms: N_4  and  C_5
REMARK    5  A    between atoms: C_5  and  C_6
REMARK    6  A    between atoms: C_9  and  C_10
REMARK    7  A    between atoms: C_10  and  N_11
REMARK    8  A    between atoms: C_12  and  C_14
REMARK                            x       y       z     vdW  Elec       q    Type
REMARK                         _______ _______ _______ _____ _____    ______ ____
ROOT
ATOM      1  C   UNL     1      50.002   7.027  15.596  0.00  0.00    +0.000 A 
ATOM      2  C   UNL     1      50.460   7.820  14.534  0.00  0.00    +0.000 A 
ATOM      3  C   UNL     1      49.686   7.998  13.382  0.00  0.00    +0.000 A 
ATOM      4  C   UNL     1      48.427   7.395  13.271  0.00  0.00    +0.000 A 
ATOM      5  C   UNL     1      47.968   6.603  14.332  0.00  0.00    +0.000 A 
ATOM      6  C   UNL     1      48.739   6.429  15.487  0.00  0.00    +0.000 A 
ENDROOT
BRANCH   1   7
ATOM      7  C   UNL     1      50.903   6.745  16.776  0.00  0.00    +0.000 C 
BRANCH   7   8
ATOM      8  N   UNL     1      51.415   5.375  16.756  0.00  0.00    +0.000 NA
ATOM      9  H   UNL     1      52.413   5.404  16.535  0.00  0.00    +0.000 HD
BRANCH   8  10
ATOM     10  C   UNL     1      51.267   4.702  18.076  0.00  0.00    +0.000 C 
BRANCH  10  11
ATOM     11  C   UNL     1      51.842   3.285  18.018  0.00  0.00    +0.000 A 
ATOM     12  C   UNL     1      53.147   3.029  18.448  0.00  0.00    +0.000 A 
ATOM     13  C   UNL     1      53.655   1.740  18.341  0.00  0.00    +0.000 A 
ATOM     14  C   UNL     1      52.853   0.737  17.810  0.00  0.00    +0.000 A 
ATOM     15  C   UNL     1      51.564   1.064  17.421  0.00  0.00    +0.000 A 
ATOM     16  N   UNL     1      51.040   2.307  17.519  0.00  0.00    +0.000 NA
ENDBRANCH  10  11
BRANCH  10  18
ATOM     17  N   UNL     1      48.772   4.623  18.979  0.00  0.00    +0.000 NA
ATOM     18  C   UNL     1      49.867   4.637  18.585  0.00  0.00    +0.000 C 
ENDBRANCH  10  18
ENDBRANCH   8  10
ENDBRANCH   7   8
ENDBRANCH   1   7
BRANCH   4  19
ATOM     19  C   UNL     1      47.580   7.567  12.035  0.00  0.00    +0.000 C 
BRANCH  19  20
ATOM     20  N   UNL     1      46.846   6.368  11.711  0.00  0.00    +0.000 N 
ATOM     21  C   UNL     1      45.484   6.298  11.870  0.00  0.00    +0.000 C 
ATOM     22  O   UNL     1      44.819   7.256  12.252  0.00  0.00    +0.000 OA
ATOM     23  H   UNL     1      47.379   5.505  11.673  0.00  0.00    +0.000 HD
BRANCH  21  24
ATOM     24  C   UNL     1      44.853   5.022  11.506  0.00  0.00    +0.000 A 
ATOM     25  C   UNL     1      44.064   4.348  12.430  0.00  0.00    +0.000 A 
ATOM     26  S   UNL     1      43.421   2.884  11.836  0.00  0.00    +0.000 S 
ATOM     27  C   UNL     1      44.198   3.082  10.337  0.00  0.00    +0.000 A 
ATOM     28  N   UNL     1      44.090   2.143   9.361  0.00  0.00    +0.000 NA
ATOM     29  C   UNL     1      44.741   2.420   8.279  0.00  0.00    +0.000 A 
ATOM     30  N   UNL     1      45.472   3.562   8.079  0.00  0.00    +0.000 N 
ATOM     31  C   UNL     1      45.581   4.553   9.025  0.00  0.00    +0.000 A 
ATOM     32  O   UNL     1      46.195   5.589   8.792  0.00  0.00    +0.000 OA
ATOM     33  C   UNL     1      44.901   4.267  10.274  0.00  0.00    +0.000 A 
ATOM     34  H   UNL     1      45.933   3.737   7.198  0.00  0.00    +0.000 HD
ENDBRANCH  21  24
ENDBRANCH  19  20
ENDBRANCH   4  19
TORSDOF 8
ENDMDL
MODEL 9
REMARK VINA RESULT:    -6.743      5.823      8.048
REMARK INTER + INTRA:         -10.478
REMARK INTER:                  -9.407
REMARK INTRA:                  -1.071
REMARK UNBOUND:                -0.582
REMARK  Name = 
REMARK  8 active torsions:
REMARK  status: ('A' for Active; 'I' for Inactive)
REMARK    1  A    between atoms: C_2  and  C_3
REMARK    2  A    between atoms: C_3  and  N_4
REMARK    3  A    between atoms: C_3  and  C_26
REMARK    4  A    between atoms: N_4  and  C_5
REMARK    5  A    between atoms: C_5  and  C_6
REMARK    6  A    between atoms: C_9  and  C_10
REMARK    7  A    between atoms: C_10  and  N_11
REMARK    8  A    between atoms: C_12  and  C_14
REMARK                            x       y       z     vdW  Elec       q    Type
REMARK                         _______ _______ _______ _____ _____    ______ ____
ROOT
ATOM      1  C   UNL     1      48.678   3.430  16.950  0.00  0.00    +0.000 A 
ATOM      2  C   UNL     1      49.247   2.161  16.778  0.00  0.00    +0.000 A 
ATOM      3  C   UNL     1      50.577   1.913  17.136  0.00  0.00    +0.000 A 
ATOM      4  C   UNL     1      51.366   2.930  17.688  0.00  0.00    +0.000 A 
ATOM      5  C   UNL     1      50.796   4.199  17.862  0.00  0.00    +0.000 A 
ATOM      6  C   UNL     1      49.464   4.445  17.508  0.00  0.00    +0.000 A 
ENDROOT
BRANCH   1   7
ATOM      7  C   UNL     1      47.281   3.710  16.442  0.00  0.00    +0.000 C 
BRANCH   7   8
ATOM      8  N   UNL     1      47.208   3.634  14.983  0.00  0.00    +0.000 NA
ATOM      9  H   UNL     1      46.497   2.945  14.729  0.00  0.00    +0.000 HD
BRANCH   8  10
ATOM     10  C   UNL     1      46.810   4.934  14.374  0.00  0.00    +0.000 C 
BRANCH  10  11
ATOM     11  C   UNL     1      46.116   4.702  13.031  0.00  0.00    +0.000 A 
ATOM     12  C   UNL     1      46.063   5.718  12.073  0.00  0.00    +0.000 A 
ATOM     13  C   UNL     1      45.387   5.490  10.880  0.00  0.00    +0.000 A 
ATOM     14  C   UNL     1      44.781   4.257  10.668  0.00  0.00    +0.000 A 
ATOM     15  C   UNL     1      44.891   3.294  11.658  0.00  0.00    +0.000 A 
ATOM     16  N   UNL     1      45.547   3.483  12.825  0.00  0.00    +0.000 NA
ENDBRANCH  10  11
BRANCH  10  18
ATOM     17  N   UNL     1      48.829   6.625  14.048  0.00  0.00    +0.000 NA
ATOM     18  C   UNL     1      47.932   5.897  14.180  0.00  0.00    +0.000 C 
ENDBRANCH  10  18
ENDBRANCH   8  10
ENDBRANCH   7   8
ENDBRANCH   1   7
BRANCH   4  19
ATOM     19  C   UNL     1      52.804   2.687  18.074  0.00  0.00    +0.000 C 
BRANCH  19  20
ATOM     20  N   UNL     1      53.192   1.312  17.876  0.00  0.00    +0.000 N 
ATOM     21  C   UNL     1      54.417   0.984  17.346  0.00  0.00    +0.000 C 
ATOM     22  O   UNL     1      55.254   1.834  17.056  0.00  0.00    +0.000 OA
ATOM     23  H   UNL     1      52.443   0.629  17.834  0.00  0.00    +0.000 HD
BRANCH  21  24
ATOM     24  C   UNL     1      54.694  -0.449  17.193  0.00  0.00    +0.000 A 
ATOM     25  C   UNL     1      54.833  -0.999  15.925  0.00  0.00    +0.000 A 
ATOM     26  S   UNL     1      55.144  -2.676  15.940  0.00  0.00    +0.000 S 
ATOM     27  C   UNL     1      55.073  -2.734  17.638  0.00  0.00    +0.000 A 
ATOM     28  N   UNL     1      55.223  -3.906  18.308  0.00  0.00    +0.000 NA
ATOM     29  C   UNL     1      55.136  -3.803  19.593  0.00  0.00    +0.000 A 
ATOM     30  N   UNL     1      54.933  -2.627  20.269  0.00  0.00    +0.000 N 
ATOM     31  C   UNL     1      54.809  -1.414  19.635  0.00  0.00    +0.000 A 
ATOM     32  O   UNL     1      54.688  -0.374  20.273  0.00  0.00    +0.000 OA
ATOM     33  C   UNL     1      54.859  -1.487  18.187  0.00  0.00    +0.000 A 
ATOM     34  H   UNL     1      54.906  -2.605  21.278  0.00  0.00    +0.000 HD
ENDBRANCH  21  24
ENDBRANCH  19  20
ENDBRANCH   4  19
TORSDOF 8
ENDMDL
