MODEL 1
REMARK VINA RESULT:    -8.221      0.000      0.000
REMARK INTER + INTRA:         -12.395
REMARK INTER:                 -11.585
REMARK INTRA:                  -0.810
REMARK UNBOUND:                -0.810
REMARK  Name = 
REMARK  7 active torsions:
REMARK  status: ('A' for Active; 'I' for Inactive)
REMARK    1  A    between atoms: C_2  and  C_3
REMARK    2  A    between atoms: N_7  and  C_8
REMARK    3  A    between atoms: C_8  and  C_9
REMARK    4  A    between atoms: C_9  and  C_10
REMARK    5  A    between atoms: C_9  and  C_12
REMARK    6  A    between atoms: C_16  and  O_17
REMARK    7  A    between atoms: O_17  and  C_18
REMARK                            x       y       z     vdW  Elec       q    Type
REMARK                         _______ _______ _______ _____ _____    ______ ____
ROOT
ATOM      1  C   UNL     1      43.673   4.775  12.364  0.00  0.00    +0.000 C 
ENDROOT
BRANCH   1   2
ATOM      2  C   UNL     1      45.128   5.071  12.714  0.00  0.00    +0.000 A 
ATOM      3  C   UNL     1      45.766   6.176  12.132  0.00  0.00    +0.000 A 
ATOM      4  C   UNL     1      47.042   6.565  12.552  0.00  0.00    +0.000 A 
ATOM      5  C   UNL     1      47.702   5.854  13.558  0.00  0.00    +0.000 A 
ATOM      6  C   UNL     1      47.096   4.736  14.119  0.00  0.00    +0.000 A 
ATOM      7  C   UNL     1      45.824   4.344  13.691  0.00  0.00    +0.000 A 
BRANCH   6   8
ATOM      8  O   UNL     1      47.606   3.980  15.139  0.00  0.00    +0.000 OA
BRANCH   8   9
ATOM      9  C   UNL     1      47.094   4.149  16.476  0.00  0.00    +0.000 C 
ATOM     10  C   UNL     1      47.911   5.009  17.463  0.00  0.00    +0.000 C 
ATOM     11  N   UNL     1      47.766   3.959  18.494  0.00  0.00    +0.000 NA
ATOM     12  C   UNL     1      47.435   2.986  17.436  0.00  0.00    +0.000 C 
ATOM     13  H   UNL     1      47.003   4.124  19.146  0.00  0.00    +0.000 HD
ENDBRANCH   8   9
ENDBRANCH   6   8
ENDBRANCH   1   2
BRANCH   1  14
ATOM     14  C   UNL     1      42.843   5.973  11.888  0.00  0.00    +0.000 C 
ATOM     15  F   UNL     1      41.554   5.577  11.687  0.00  0.00    +0.000 F 
ENDBRANCH   1  14
BRANCH   1  16
ATOM     16  C   UNL     1      43.591   3.621  11.335  0.00  0.00    +0.000 C 
BRANCH  16  21
ATOM     17  C   UNL     1      46.703   2.502   7.435  0.00  0.00    +0.000 A 
ATOM     18  C   UNL     1      46.067   1.640   8.321  0.00  0.00    +0.000 A 
ATOM     19  C   UNL     1      45.119   2.149   9.212  0.00  0.00    +0.000 A 
ATOM     20  C   UNL     1      44.838   3.510   9.210  0.00  0.00    +0.000 A 
ATOM     21  N   UNL     1      43.845   4.089   9.978  0.00  0.00    +0.000 N 
ATOM     22  N   UNL     1      45.468   4.356   8.369  0.00  0.00    +0.000 NA
ATOM     23  C   UNL     1      46.376   3.844   7.502  0.00  0.00    +0.000 A 
ATOM     24  H   UNL     1      43.992   5.096   9.891  0.00  0.00    +0.000 HD
BRANCH  17  26
ATOM     25  N   UNL     1      48.406   1.627   5.694  0.00  0.00    +0.000 NA
ATOM     26  C   UNL     1      47.645   2.024   6.473  0.00  0.00    +0.000 C 
ENDBRANCH  17  26
ENDBRANCH  16  21
ENDBRANCH   1  16
TORSDOF 7
ENDMDL
MODEL 2
REMARK VINA RESULT:    -8.123      1.004      1.258
REMARK INTER + INTRA:         -12.257
REMARK INTER:                 -11.281
REMARK INTRA:                  -0.976
REMARK UNBOUND:                -0.810
REMARK  Name = 
REMARK  7 active torsions:
REMARK  status: ('A' for Active; 'I' for Inactive)
REMARK    1  A    between atoms: C_2  and  C_3
REMARK    2  A    between atoms: N_7  and  C_8
REMARK    3  A    between atoms: C_8  and  C_9
REMARK    4  A    between atoms: C_9  and  C_10
REMARK    5  A    between atoms: C_9  and  C_12
REMARK    6  A    between atoms: C_16  and  O_17
REMARK    7  A    between atoms: O_17  and  C_18
REMARK                            x       y       z     vdW  Elec       q    Type
REMARK                         _______ _______ _______ _____ _____    ______ ____
ROOT
ATOM      1  C   UNL     1      43.851   4.314  12.295  0.00  0.00    +0.000 C 
ENDROOT
BRANCH   1   2
ATOM      2  C   UNL     1      45.240   4.916  12.488  0.00  0.00    +0.000 A 
ATOM      3  C   UNL     1      45.701   5.888  11.588  0.00  0.00    +0.000 A 
ATOM      4  C   UNL     1      46.898   6.571  11.828  0.00  0.00    +0.000 A 
ATOM      5  C   UNL     1      47.654   6.291  12.969  0.00  0.00    +0.000 A 
ATOM      6  C   UNL     1      47.227   5.306  13.851  0.00  0.00    +0.000 A 
ATOM      7  C   UNL     1      46.035   4.618  13.604  0.00  0.00    +0.000 A 
BRANCH   6   8
ATOM      8  O   UNL     1      47.842   4.965  15.025  0.00  0.00    +0.000 OA
BRANCH   8   9
ATOM      9  C   UNL     1      47.152   4.127  15.974  0.00  0.00    +0.000 C 
ATOM     10  C   UNL     1      47.155   4.553  17.457  0.00  0.00    +0.000 C 
ATOM     11  N   UNL     1      47.521   3.175  17.849  0.00  0.00    +0.000 NA
ATOM     12  C   UNL     1      47.981   2.920  16.471  0.00  0.00    +0.000 C 
ATOM     13  H   UNL     1      46.728   2.601  18.126  0.00  0.00    +0.000 HD
ENDBRANCH   8   9
ENDBRANCH   6   8
ENDBRANCH   1   2
BRANCH   1  14
ATOM     14  C   UNL     1      42.672   5.237  12.622  0.00  0.00    +0.000 C 
ATOM     15  F   UNL     1      42.366   5.983  11.524  0.00  0.00    +0.000 F 
ENDBRANCH   1  14
BRANCH   1  16
ATOM     16  C   UNL     1      43.708   3.743  10.863  0.00  0.00    +0.000 C 
BRANCH  16  21
ATOM     17  C   UNL     1      46.853   2.428   7.052  0.00  0.00    +0.000 A 
ATOM     18  C   UNL     1      46.507   3.696   7.502  0.00  0.00    +0.000 A 
ATOM     19  C   UNL     1      45.759   3.829   8.674  0.00  0.00    +0.000 A 
ATOM     20  C   UNL     1      45.360   2.691   9.365  0.00  0.00    +0.000 A 
ATOM     21  N   UNL     1      44.712   2.722  10.585  0.00  0.00    +0.000 N 
ATOM     22  N   UNL     1      45.673   1.455   8.924  0.00  0.00    +0.000 NA
ATOM     23  C   UNL     1      46.410   1.344   7.790  0.00  0.00    +0.000 A 
ATOM     24  H   UNL     1      44.406   1.762  10.751  0.00  0.00    +0.000 HD
BRANCH  17  26
ATOM     25  N   UNL     1      48.315   2.093   4.944  0.00  0.00    +0.000 NA
ATOM     26  C   UNL     1      47.656   2.240   5.885  0.00  0.00    +0.000 C 
ENDBRANCH  17  26
ENDBRANCH  16  21
ENDBRANCH   1  16
TORSDOF 7
ENDMDL
MODEL 3
REMARK VINA RESULT:    -7.539      2.357      3.347
REMARK INTER + INTRA:         -11.435
REMARK INTER:                 -10.594
REMARK INTRA:                  -0.841
REMARK UNBOUND:                -0.810
REMARK  Name = 
REMARK  7 active torsions:
REMARK  status: ('A' for Active; 'I' for Inactive)
REMARK    1  A    between atoms: C_2  and  C_3
REMARK    2  A    between atoms: N_7  and  C_8
REMARK    3  A    between atoms: C_8  and  C_9
REMARK    4  A    between atoms: C_9  and  C_10
REMARK    5  A    between atoms: C_9  and  C_12
REMARK    6  A    between atoms: C_16  and  O_17
REMARK    7  A    between atoms: O_17  and  C_18
REMARK                            x       y       z     vdW  Elec       q    Type
REMARK                         _______ _______ _______ _____ _____    ______ ____
ROOT
ATOM      1  C   UNL     1      43.568   4.863  12.099  0.00  0.00    +0.000 C 
ENDROOT
BRANCH   1   2
ATOM      2  C   UNL     1      44.978   5.200  12.577  0.00  0.00    +0.000 A 
ATOM      3  C   UNL     1      45.606   4.365  13.513  0.00  0.00    +0.000 A 
ATOM      4  C   UNL     1      46.950   4.555  13.848  0.00  0.00    +0.000 A 
ATOM      5  C   UNL     1      47.687   5.584  13.256  0.00  0.00    +0.000 A 
ATOM      6  C   UNL     1      47.067   6.441  12.354  0.00  0.00    +0.000 A 
ATOM      7  C   UNL     1      45.721   6.254  12.027  0.00  0.00    +0.000 A 
BRANCH   6   8
ATOM      8  O   UNL     1      47.678   7.455  11.669  0.00  0.00    +0.000 OA
BRANCH   8   9
ATOM      9  C   UNL     1      48.295   8.536  12.396  0.00  0.00    +0.000 C 
ATOM     10  C   UNL     1      47.558   9.096  13.631  0.00  0.00    +0.000 C 
ATOM     11  N   UNL     1      47.789  10.472  13.142  0.00  0.00    +0.000 NA
ATOM     12  C   UNL     1      48.036   9.935  11.791  0.00  0.00    +0.000 C 
ATOM     13  H   UNL     1      48.602  10.924  13.554  0.00  0.00    +0.000 HD
ENDBRANCH   8   9
ENDBRANCH   6   8
ENDBRANCH   1   2
BRANCH   1  14
ATOM     14  C   UNL     1      42.786   6.016  11.460  0.00  0.00    +0.000 C 
ATOM     15  F   UNL     1      41.467   5.902  11.786  0.00  0.00    +0.000 F 
ENDBRANCH   1  14
BRANCH   1  16
ATOM     16  C   UNL     1      43.600   3.642  11.148  0.00  0.00    +0.000 C 
BRANCH  16  21
ATOM     17  C   UNL     1      46.746   2.496   7.283  0.00  0.00    +0.000 A 
ATOM     18  C   UNL     1      46.176   1.650   8.227  0.00  0.00    +0.000 A 
ATOM     19  C   UNL     1      45.204   2.148   9.098  0.00  0.00    +0.000 A 
ATOM     20  C   UNL     1      44.833   3.485   9.018  0.00  0.00    +0.000 A 
ATOM     21  N   UNL     1      43.810   4.042   9.762  0.00  0.00    +0.000 N 
ATOM     22  N   UNL     1      45.397   4.318   8.120  0.00  0.00    +0.000 NA
ATOM     23  C   UNL     1      46.330   3.816   7.273  0.00  0.00    +0.000 A 
ATOM     24  H   UNL     1      43.889   5.050   9.613  0.00  0.00    +0.000 HD
BRANCH  17  26
ATOM     25  N   UNL     1      48.488   1.650   5.568  0.00  0.00    +0.000 NA
ATOM     26  C   UNL     1      47.709   2.024   6.339  0.00  0.00    +0.000 C 
ENDBRANCH  17  26
ENDBRANCH  16  21
ENDBRANCH   1  16
TORSDOF 7
ENDMDL
MODEL 4
REMARK VINA RESULT:    -7.146      2.593      7.946
REMARK INTER + INTRA:         -10.881
REMARK INTER:                 -10.438
REMARK INTRA:                  -0.443
REMARK UNBOUND:                -0.810
REMARK  Name = 
REMARK  7 active torsions:
REMARK  status: ('A' for Active; 'I' for Inactive)
REMARK    1  A    between atoms: C_2  and  C_3
REMARK    2  A    between atoms: N_7  and  C_8
REMARK    3  A    between atoms: C_8  and  C_9
REMARK    4  A    between atoms: C_9  and  C_10
REMARK    5  A    between atoms: C_9  and  C_12
REMARK    6  A    between atoms: C_16  and  O_17
REMARK    7  A    between atoms: O_17  and  C_18
REMARK                            x       y       z     vdW  Elec       q    Type
REMARK                         _______ _______ _______ _____ _____    ______ ____
ROOT
ATOM      1  C   UNL     1      45.625   6.280  10.965  0.00  0.00    +0.000 C 
ENDROOT
BRANCH   1   2
ATOM      2  C   UNL     1      45.317   4.935  10.313  0.00  0.00    +0.000 A 
ATOM      3  C   UNL     1      44.505   4.012  10.989  0.00  0.00    +0.000 A 
ATOM      4  C   UNL     1      44.075   2.843  10.354  0.00  0.00    +0.000 A 
ATOM      5  C   UNL     1      44.451   2.576   9.035  0.00  0.00    +0.000 A 
ATOM      6  C   UNL     1      45.284   3.465   8.366  0.00  0.00    +0.000 A 
ATOM      7  C   UNL     1      45.720   4.629   9.006  0.00  0.00    +0.000 A 
BRANCH   6   8
ATOM      8  O   UNL     1      45.690   3.351   7.064  0.00  0.00    +0.000 OA
BRANCH   8   9
ATOM      9  C   UNL     1      47.086   3.145   6.768  0.00  0.00    +0.000 C 
ATOM     10  C   UNL     1      47.479   2.803   5.316  0.00  0.00    +0.000 C 
ATOM     11  N   UNL     1      48.334   1.702   5.809  0.00  0.00    +0.000 NA
ATOM     12  C   UNL     1      47.596   1.720   7.087  0.00  0.00    +0.000 C 
ATOM     13  H   UNL     1      49.315   1.952   5.904  0.00  0.00    +0.000 HD
ENDBRANCH   8   9
ENDBRANCH   6   8
ENDBRANCH   1   2
BRANCH   1  14
ATOM     14  C   UNL     1      44.422   7.035  11.542  0.00  0.00    +0.000 C 
ATOM     15  F   UNL     1      44.825   8.263  11.974  0.00  0.00    +0.000 F 
ENDBRANCH   1  14
BRANCH   1  16
ATOM     16  C   UNL     1      46.725   6.115  12.043  0.00  0.00    +0.000 C 
BRANCH  16  21
ATOM     17  C   UNL     1      48.409   4.838  16.699  0.00  0.00    +0.000 A 
ATOM     18  C   UNL     1      48.701   5.967  15.944  0.00  0.00    +0.000 A 
ATOM     19  C   UNL     1      47.995   6.202  14.761  0.00  0.00    +0.000 A 
ATOM     20  C   UNL     1      47.023   5.297  14.351  0.00  0.00    +0.000 A 
ATOM     21  N   UNL     1      46.203   5.497  13.257  0.00  0.00    +0.000 N 
ATOM     22  N   UNL     1      46.750   4.188  15.067  0.00  0.00    +0.000 NA
ATOM     23  C   UNL     1      47.435   3.980  16.219  0.00  0.00    +0.000 A 
ATOM     24  H   UNL     1      45.725   4.605  13.114  0.00  0.00    +0.000 HD
BRANCH  17  26
ATOM     25  N   UNL     1      49.612   4.371  18.942  0.00  0.00    +0.000 NA
ATOM     26  C   UNL     1      49.069   4.576  17.939  0.00  0.00    +0.000 C 
ENDBRANCH  17  26
ENDBRANCH  16  21
ENDBRANCH   1  16
TORSDOF 7
ENDMDL
MODEL 5
REMARK VINA RESULT:    -6.908      2.260      2.832
REMARK INTER + INTRA:         -10.546
REMARK INTER:                 -10.277
REMARK INTRA:                  -0.269
REMARK UNBOUND:                -0.810
REMARK  Name = 
REMARK  7 active torsions:
REMARK  status: ('A' for Active; 'I' for Inactive)
REMARK    1  A    between atoms: C_2  and  C_3
REMARK    2  A    between atoms: N_7  and  C_8
REMARK    3  A    between atoms: C_8  and  C_9
REMARK    4  A    between atoms: C_9  and  C_10
REMARK    5  A    between atoms: C_9  and  C_12
REMARK    6  A    between atoms: C_16  and  O_17
REMARK    7  A    between atoms: O_17  and  C_18
REMARK                            x       y       z     vdW  Elec       q    Type
REMARK                         _______ _______ _______ _____ _____    ______ ____
ROOT
ATOM      1  C   UNL     1      44.638   4.790  11.962  0.00  0.00    +0.000 C 
ENDROOT
BRANCH   1   2
ATOM      2  C   UNL     1      45.224   6.195  11.847  0.00  0.00    +0.000 A 
ATOM      3  C   UNL     1      44.361   7.292  11.700  0.00  0.00    +0.000 A 
ATOM      4  C   UNL     1      44.855   8.598  11.753  0.00  0.00    +0.000 A 
ATOM      5  C   UNL     1      46.219   8.830  11.950  0.00  0.00    +0.000 A 
ATOM      6  C   UNL     1      47.089   7.753  12.062  0.00  0.00    +0.000 A 
ATOM      7  C   UNL     1      46.594   6.447  12.000  0.00  0.00    +0.000 A 
BRANCH   6   8
ATOM      8  O   UNL     1      48.434   7.835  12.304  0.00  0.00    +0.000 OA
BRANCH   8   9
ATOM      9  C   UNL     1      48.909   7.949  13.660  0.00  0.00    +0.000 C 
ATOM     10  C   UNL     1      48.588   6.802  14.642  0.00  0.00    +0.000 C 
ATOM     11  N   UNL     1      48.152   7.792  15.651  0.00  0.00    +0.000 NA
ATOM     12  C   UNL     1      47.998   8.795  14.580  0.00  0.00    +0.000 C 
ATOM     13  H   UNL     1      48.870   8.030  16.331  0.00  0.00    +0.000 HD
ENDBRANCH   8   9
ENDBRANCH   6   8
ENDBRANCH   1   2
BRANCH   1  14
ATOM     14  C   UNL     1      44.130   4.389  13.352  0.00  0.00    +0.000 C 
ATOM     15  F   UNL     1      42.808   4.705  13.457  0.00  0.00    +0.000 F 
ENDBRANCH   1  14
BRANCH   1  16
ATOM     16  C   UNL     1      43.527   4.583  10.903  0.00  0.00    +0.000 C 
BRANCH  16  21
ATOM     17  C   UNL     1      46.743   2.728   7.386  0.00  0.00    +0.000 A 
ATOM     18  C   UNL     1      45.880   2.040   8.232  0.00  0.00    +0.000 A 
ATOM     19  C   UNL     1      44.959   2.755   9.002  0.00  0.00    +0.000 A 
ATOM     20  C   UNL     1      44.930   4.142   8.923  0.00  0.00    +0.000 A 
ATOM     21  N   UNL     1      43.989   4.927   9.563  0.00  0.00    +0.000 N 
ATOM     22  N   UNL     1      45.778   4.818   8.122  0.00  0.00    +0.000 NA
ATOM     23  C   UNL     1      46.658   4.109   7.371  0.00  0.00    +0.000 A 
ATOM     24  H   UNL     1      44.323   5.886   9.456  0.00  0.00    +0.000 HD
BRANCH  17  26
ATOM     25  N   UNL     1      48.423   1.493   5.854  0.00  0.00    +0.000 NA
ATOM     26  C   UNL     1      47.670   2.041   6.544  0.00  0.00    +0.000 C 
ENDBRANCH  17  26
ENDBRANCH  16  21
ENDBRANCH   1  16
TORSDOF 7
ENDMDL
MODEL 6
REMARK VINA RESULT:    -6.835      3.422      7.447
REMARK INTER + INTRA:         -10.442
REMARK INTER:                  -9.746
REMARK INTRA:                  -0.696
REMARK UNBOUND:                -0.810
REMARK  Name = 
REMARK  7 active torsions:
REMARK  status: ('A' for Active; 'I' for Inactive)
REMARK    1  A    between atoms: C_2  and  C_3
REMARK    2  A    between atoms: N_7  and  C_8
REMARK    3  A    between atoms: C_8  and  C_9
REMARK    4  A    between atoms: C_9  and  C_10
REMARK    5  A    between atoms: C_9  and  C_12
REMARK    6  A    between atoms: C_16  and  O_17
REMARK    7  A    between atoms: O_17  and  C_18
REMARK                            x       y       z     vdW  Elec       q    Type
REMARK                         _______ _______ _______ _____ _____    ______ ____
ROOT
ATOM      1  C   UNL     1      44.462   6.059  11.207  0.00  0.00    +0.000 C 
ENDROOT
BRANCH   1   2
ATOM      2  C   UNL     1      44.693   4.770  10.424  0.00  0.00    +0.000 A 
ATOM      3  C   UNL     1      44.092   3.580  10.863  0.00  0.00    +0.000 A 
ATOM      4  C   UNL     1      44.154   2.422  10.083  0.00  0.00    +0.000 A 
ATOM      5  C   UNL     1      44.819   2.431   8.854  0.00  0.00    +0.000 A 
ATOM      6  C   UNL     1      45.448   3.594   8.424  0.00  0.00    +0.000 A 
ATOM      7  C   UNL     1      45.393   4.748   9.210  0.00  0.00    +0.000 A 
BRANCH   6   8
ATOM      8  O   UNL     1      46.091   3.756   7.227  0.00  0.00    +0.000 OA
BRANCH   8   9
ATOM      9  C   UNL     1      46.576   2.599   6.516  0.00  0.00    +0.000 C 
ATOM     10  C   UNL     1      47.911   1.973   6.970  0.00  0.00    +0.000 C 
ATOM     11  N   UNL     1      48.365   1.926   5.564  0.00  0.00    +0.000 NA
ATOM     12  C   UNL     1      47.344   2.932   5.216  0.00  0.00    +0.000 C 
ATOM     13  H   UNL     1      48.218   1.026   5.114  0.00  0.00    +0.000 HD
ENDBRANCH   8   9
ENDBRANCH   6   8
ENDBRANCH   1   2
BRANCH   1  14
ATOM     14  C   UNL     1      43.002   6.506  11.342  0.00  0.00    +0.000 C 
ATOM     15  F   UNL     1      42.898   7.819  10.992  0.00  0.00    +0.000 F 
ENDBRANCH   1  14
BRANCH   1  16
ATOM     16  C   UNL     1      45.128   5.968  12.601  0.00  0.00    +0.000 C 
BRANCH  16  21
ATOM     17  C   UNL     1      49.648   8.358  12.709  0.00  0.00    +0.000 A 
ATOM     18  C   UNL     1      49.119   7.532  11.724  0.00  0.00    +0.000 A 
ATOM     19  C   UNL     1      47.788   7.118  11.818  0.00  0.00    +0.000 A 
ATOM     20  C   UNL     1      47.018   7.525  12.901  0.00  0.00    +0.000 A 
ATOM     21  N   UNL     1      45.668   7.255  13.027  0.00  0.00    +0.000 N 
ATOM     22  N   UNL     1      47.530   8.308  13.872  0.00  0.00    +0.000 NA
ATOM     23  C   UNL     1      48.820   8.712  13.759  0.00  0.00    +0.000 A 
ATOM     24  H   UNL     1      45.429   7.527  13.982  0.00  0.00    +0.000 HD
BRANCH  17  26
ATOM     25  N   UNL     1      52.078   9.235  12.570  0.00  0.00    +0.000 NA
ATOM     26  C   UNL     1      50.988   8.847  12.634  0.00  0.00    +0.000 C 
ENDBRANCH  17  26
ENDBRANCH  16  21
ENDBRANCH   1  16
TORSDOF 7
ENDMDL
MODEL 7
REMARK VINA RESULT:    -6.649      2.826      7.978
REMARK INTER + INTRA:         -10.181
REMARK INTER:                  -9.716
REMARK INTRA:                  -0.464
REMARK UNBOUND:                -0.810
REMARK  Name = 
REMARK  7 active torsions:
REMARK  status: ('A' for Active; 'I' for Inactive)
REMARK    1  A    between atoms: C_2  and  C_3
REMARK    2  A    between atoms: N_7  and  C_8
REMARK    3  A    between atoms: C_8  and  C_9
REMARK    4  A    between atoms: C_9  and  C_10
REMARK    5  A    between atoms: C_9  and  C_12
REMARK    6  A    between atoms: C_16  and  O_17
REMARK    7  A    between atoms: O_17  and  C_18
REMARK                            x       y       z     vdW  Elec       q    Type
REMARK                         _______ _______ _______ _____ _____    ______ ____
ROOT
ATOM      1  C   UNL     1      46.967   4.625  13.633  0.00  0.00    +0.000 C 
ENDROOT
BRANCH   1   2
ATOM      2  C   UNL     1      45.628   4.348  12.957  0.00  0.00    +0.000 A 
ATOM      3  C   UNL     1      44.504   5.108  13.315  0.00  0.00    +0.000 A 
ATOM      4  C   UNL     1      43.307   4.988  12.604  0.00  0.00    +0.000 A 
ATOM      5  C   UNL     1      43.211   4.105  11.525  0.00  0.00    +0.000 A 
ATOM      6  C   UNL     1      44.305   3.320  11.182  0.00  0.00    +0.000 A 
ATOM      7  C   UNL     1      45.499   3.436  11.900  0.00  0.00    +0.000 A 
BRANCH   6   8
ATOM      8  O   UNL     1      44.364   2.453  10.125  0.00  0.00    +0.000 OA
BRANCH   8   9
ATOM      9  C   UNL     1      44.566   2.966   8.793  0.00  0.00    +0.000 C 
ATOM     10  C   UNL     1      45.863   2.578   8.053  0.00  0.00    +0.000 C 
ATOM     11  N   UNL     1      46.065   3.992   7.671  0.00  0.00    +0.000 NA
ATOM     12  C   UNL     1      45.142   4.400   8.747  0.00  0.00    +0.000 C 
ATOM     13  H   UNL     1      45.726   4.219   6.739  0.00  0.00    +0.000 HD
ENDBRANCH   8   9
ENDBRANCH   6   8
ENDBRANCH   1   2
BRANCH   1  14
ATOM     14  C   UNL     1      47.678   5.914  13.206  0.00  0.00    +0.000 C 
ATOM     15  F   UNL     1      47.115   6.379  12.055  0.00  0.00    +0.000 F 
ENDBRANCH   1  14
BRANCH   1  16
ATOM     16  C   UNL     1      46.810   4.581  15.173  0.00  0.00    +0.000 C 
BRANCH  16  21
ATOM     17  C   UNL     1      50.963   2.725  17.509  0.00  0.00    +0.000 A 
ATOM     18  C   UNL     1      50.354   3.965  17.663  0.00  0.00    +0.000 A 
ATOM     19  C   UNL     1      49.122   4.205  17.050  0.00  0.00    +0.000 A 
ATOM     20  C   UNL     1      48.532   3.208  16.284  0.00  0.00    +0.000 A 
ATOM     21  N   UNL     1      47.271   3.313  15.727  0.00  0.00    +0.000 N 
ATOM     22  N   UNL     1      49.127   2.010  16.111  0.00  0.00    +0.000 NA
ATOM     23  C   UNL     1      50.317   1.788  16.723  0.00  0.00    +0.000 A 
ATOM     24  H   UNL     1      47.189   2.513  15.097  0.00  0.00    +0.000 HD
BRANCH  17  26
ATOM     25  N   UNL     1      53.202   2.171  18.681  0.00  0.00    +0.000 NA
ATOM     26  C   UNL     1      52.200   2.414  18.153  0.00  0.00    +0.000 C 
ENDBRANCH  17  26
ENDBRANCH  16  21
ENDBRANCH   1  16
TORSDOF 7
ENDMDL
MODEL 8
REMARK VINA RESULT:    -6.573      3.208      5.329
REMARK INTER + INTRA:         -10.073
REMARK INTER:                  -9.243
REMARK INTRA:                  -0.831
REMARK UNBOUND:                -0.810
REMARK  Name = 
REMARK  7 active torsions:
REMARK  status: ('A' for Active; 'I' for Inactive)
REMARK    1  A    between atoms: C_2  and  C_3
REMARK    2  A    between atoms: N_7  and  C_8
REMARK    3  A    between atoms: C_8  and  C_9
REMARK    4  A    between atoms: C_9  and  C_10
REMARK    5  A    between atoms: C_9  and  C_12
REMARK    6  A    between atoms: C_16  and  O_17
REMARK    7  A    between atoms: O_17  and  C_18
REMARK                            x       y       z     vdW  Elec       q    Type
REMARK                         _______ _______ _______ _____ _____    ______ ____
ROOT
ATOM      1  C   UNL     1      45.619   5.733  12.255  0.00  0.00    +0.000 C 
ENDROOT
BRANCH   1   2
ATOM      2  C   UNL     1      46.008   7.201  12.405  0.00  0.00    +0.000 A 
ATOM      3  C   UNL     1      47.299   7.530  12.844  0.00  0.00    +0.000 A 
ATOM      4  C   UNL     1      47.737   8.858  12.839  0.00  0.00    +0.000 A 
ATOM      5  C   UNL     1      46.891   9.879  12.397  0.00  0.00    +0.000 A 
ATOM      6  C   UNL     1      45.598   9.570  11.992  0.00  0.00    +0.000 A 
ATOM      7  C   UNL     1      45.160   8.243  12.006  0.00  0.00    +0.000 A 
BRANCH   6   8
ATOM      8  O   UNL     1      44.685  10.460  11.494  0.00  0.00    +0.000 OA
BRANCH   8   9
ATOM      9  C   UNL     1      43.611   9.986  10.657  0.00  0.00    +0.000 C 
ATOM     10  C   UNL     1      43.381  10.687   9.302  0.00  0.00    +0.000 C 
ATOM     11  N   UNL     1      41.933  10.767   9.592  0.00  0.00    +0.000 NA
ATOM     12  C   UNL     1      42.223  10.561  11.023  0.00  0.00    +0.000 C 
ATOM     13  H   UNL     1      41.387  10.016   9.176  0.00  0.00    +0.000 HD
ENDBRANCH   8   9
ENDBRANCH   6   8
ENDBRANCH   1   2
BRANCH   1  14
ATOM     14  C   UNL     1      45.572   4.918  13.553  0.00  0.00    +0.000 C 
ATOM     15  F   UNL     1      44.834   3.791  13.350  0.00  0.00    +0.000 F 
ENDBRANCH   1  14
BRANCH   1  16
ATOM     16  C   UNL     1      44.277   5.608  11.492  0.00  0.00    +0.000 C 
BRANCH  16  21
ATOM     17  C   UNL     1      46.162   2.357   8.025  0.00  0.00    +0.000 A 
ATOM     18  C   UNL     1      45.395   2.085   9.152  0.00  0.00    +0.000 A 
ATOM     19  C   UNL     1      44.838   3.144   9.874  0.00  0.00    +0.000 A 
ATOM     20  C   UNL     1      45.071   4.451   9.464  0.00  0.00    +0.000 A 
ATOM     21  N   UNL     1      44.480   5.555  10.049  0.00  0.00    +0.000 N 
ATOM     22  N   UNL     1      45.833   4.724   8.385  0.00  0.00    +0.000 NA
ATOM     23  C   UNL     1      46.356   3.684   7.687  0.00  0.00    +0.000 A 
ATOM     24  H   UNL     1      44.967   6.361   9.653  0.00  0.00    +0.000 HD
BRANCH  17  26
ATOM     25  N   UNL     1      47.155   0.461   6.571  0.00  0.00    +0.000 NA
ATOM     26  C   UNL     1      46.715   1.309   7.226  0.00  0.00    +0.000 C 
ENDBRANCH  17  26
ENDBRANCH  16  21
ENDBRANCH   1  16
TORSDOF 7
ENDMDL
MODEL 9
REMARK VINA RESULT:    -6.301      3.300      4.309
REMARK INTER + INTRA:          -9.690
REMARK INTER:                  -8.887
REMARK INTRA:                  -0.803
REMARK UNBOUND:                -0.810
REMARK  Name = 
REMARK  7 active torsions:
REMARK  status: ('A' for Active; 'I' for Inactive)
REMARK    1  A    between atoms: C_2  and  C_3
REMARK    2  A    between atoms: N_7  and  C_8
REMARK    3  A    between atoms: C_8  and  C_9
REMARK    4  A    between atoms: C_9  and  C_10
REMARK    5  A    between atoms: C_9  and  C_12
REMARK    6  A    between atoms: C_16  and  O_17
REMARK    7  A    between atoms: O_17  and  C_18
REMARK                            x       y       z     vdW  Elec       q    Type
REMARK                         _______ _______ _______ _____ _____    ______ ____
ROOT
ATOM      1  C   UNL     1      45.831   5.958  12.062  0.00  0.00    +0.000 C 
ENDROOT
BRANCH   1   2
ATOM      2  C   UNL     1      46.235   7.428  11.999  0.00  0.00    +0.000 A 
ATOM      3  C   UNL     1      45.240   8.417  11.995  0.00  0.00    +0.000 A 
ATOM      4  C   UNL     1      45.580   9.770  12.099  0.00  0.00    +0.000 A 
ATOM      5  C   UNL     1      46.918  10.156  12.206  0.00  0.00    +0.000 A 
ATOM      6  C   UNL     1      47.916   9.189  12.176  0.00  0.00    +0.000 A 
ATOM      7  C   UNL     1      47.574   7.838  12.063  0.00  0.00    +0.000 A 
BRANCH   6   8
ATOM      8  O   UNL     1      49.257   9.422  12.318  0.00  0.00    +0.000 OA
BRANCH   8   9
ATOM      9  C   UNL     1      50.172   8.309  12.370  0.00  0.00    +0.000 C 
ATOM     10  C   UNL     1      51.465   8.469  13.196  0.00  0.00    +0.000 C 
ATOM     11  N   UNL     1      52.249   7.916  12.070  0.00  0.00    +0.000 NA
ATOM     12  C   UNL     1      51.130   8.222  11.159  0.00  0.00    +0.000 C 
ATOM     13  H   UNL     1      52.445   6.921  12.154  0.00  0.00    +0.000 HD
ENDBRANCH   8   9
ENDBRANCH   6   8
ENDBRANCH   1   2
BRANCH   1  14
ATOM     14  C   UNL     1      45.832   5.324  13.458  0.00  0.00    +0.000 C 
ATOM     15  F   UNL     1      47.119   5.132  13.865  0.00  0.00    +0.000 F 
ENDBRANCH   1  14
BRANCH   1  16
ATOM     16  C   UNL     1      44.458   5.749  11.377  0.00  0.00    +0.000 C 
BRANCH  16  21
ATOM     17  C   UNL     1      46.199   2.337   7.990  0.00  0.00    +0.000 A 
ATOM     18  C   UNL     1      45.491   2.118   9.165  0.00  0.00    +0.000 A 
ATOM     19  C   UNL     1      44.960   3.209   9.859  0.00  0.00    +0.000 A 
ATOM     20  C   UNL     1      45.162   4.495   9.374  0.00  0.00    +0.000 A 
ATOM     21  N   UNL     1      44.591   5.623   9.930  0.00  0.00    +0.000 N 
ATOM     22  N   UNL     1      45.868   4.717   8.246  0.00  0.00    +0.000 NA
ATOM     23  C   UNL     1      46.365   3.647   7.577  0.00  0.00    +0.000 A 
ATOM     24  H   UNL     1      45.051   6.411   9.471  0.00  0.00    +0.000 HD
BRANCH  17  26
ATOM     25  N   UNL     1      47.137   0.369   6.596  0.00  0.00    +0.000 NA
ATOM     26  C   UNL     1      46.721   1.254   7.218  0.00  0.00    +0.000 C 
ENDBRANCH  17  26
ENDBRANCH  16  21
ENDBRANCH   1  16
TORSDOF 7
ENDMDL
