MODEL 1
REMARK VINA RESULT:    -8.054      0.000      0.000
REMARK INTER + INTRA:         -11.611
REMARK INTER:                 -10.879
REMARK INTRA:                  -0.731
REMARK UNBOUND:                -0.731
REMARK  Name = 
REMARK  7 active torsions:
REMARK  status: ('A' for Active; 'I' for Inactive)
REMARK    1  A    between atoms: C_1  and  C_2
REMARK    2  A    between atoms: N_5  and  C_6
REMARK    3  A    between atoms: C_8  and  C_9
REMARK    4  A    between atoms: C_9  and  C_10
REMARK    5  A    between atoms: C_10  and  N_11
REMARK    6  A    between atoms: C_15  and  C_16
REMARK    7  A    between atoms: C_23  and  C_24
REMARK                            x       y       z     vdW  Elec       q    Type
REMARK                         _______ _______ _______ _____ _____    ______ ____
ROOT
ATOM      1  C   UNL     1      47.026   5.213  14.360  0.00  0.00    +0.000 A 
ATOM      2  C   UNL     1      45.729   4.800  13.947  0.00  0.00    +0.000 A 
ATOM      3  C   UNL     1      45.125   5.210  12.736  0.00  0.00    +0.000 A 
ATOM      4  C   UNL     1      45.860   6.041  11.890  0.00  0.00    +0.000 A 
ATOM      5  C   UNL     1      47.124   6.480  12.259  0.00  0.00    +0.000 A 
ATOM      6  C   UNL     1      47.696   6.100  13.484  0.00  0.00    +0.000 A 
ENDROOT
BRANCH   1  11
ATOM      7  C   UNL     1      50.863   3.076  17.724  0.00  0.00    +0.000 C 
ATOM      8  C   UNL     1      49.445   3.557  17.422  0.00  0.00    +0.000 C 
ATOM      9  C   UNL     1      49.471   5.039  17.045  0.00  0.00    +0.000 C 
ATOM     10  C   UNL     1      48.101   5.554  16.612  0.00  0.00    +0.000 C 
ATOM     11  N   UNL     1      47.563   4.703  15.541  0.00  0.00    +0.000 N 
ATOM     12  C   UNL     1      47.430   3.286  15.909  0.00  0.00    +0.000 C 
ATOM     13  C   UNL     1      48.804   2.731  16.295  0.00  0.00    +0.000 C 
ENDBRANCH   1  11
BRANCH   6  14
ATOM     14  C   UNL     1      48.958   6.721  13.777  0.00  0.00    +0.000 C 
ATOM     15  N   UNL     1      49.972   7.254  13.973  0.00  0.00    +0.000 NA
ENDBRANCH   6  14
BRANCH   3  16
ATOM     16  C   UNL     1      43.718   4.739  12.391  0.00  0.00    +0.000 C 
BRANCH  16  17
ATOM     17  C   UNL     1      43.508   4.388  10.906  0.00  0.00    +0.000 C 
BRANCH  17  18
ATOM     18  N   UNL     1      43.908   3.016  10.580  0.00  0.00    +0.000 N 
ATOM     19  C   UNL     1      44.797   2.970   9.480  0.00  0.00    +0.000 A 
ATOM     20  C   UNL     1      45.249   1.730   9.039  0.00  0.00    +0.000 A 
ATOM     21  C   UNL     1      46.121   1.660   7.947  0.00  0.00    +0.000 A 
ATOM     22  C   UNL     1      46.533   2.830   7.310  0.00  0.00    +0.000 A 
ATOM     23  C   UNL     1      46.052   4.021   7.823  0.00  0.00    +0.000 A 
ATOM     24  N   UNL     1      45.207   4.111   8.884  0.00  0.00    +0.000 NA
ATOM     25  H   UNL     1      43.111   2.420  10.368  0.00  0.00    +0.000 HD
BRANCH  22  26
ATOM     26  C   UNL     1      47.439   2.743   6.139  0.00  0.00    +0.000 C 
ATOM     27  N   UNL     1      48.762   2.448   6.332  0.00  0.00    +0.000 N 
ATOM     28  O   UNL     1      47.023   2.938   5.003  0.00  0.00    +0.000 OA
ATOM     29  H   UNL     1      49.209   2.272   7.217  0.00  0.00    +0.000 HD
ATOM     30  H   UNL     1      49.338   2.408   5.504  0.00  0.00    +0.000 HD
ENDBRANCH  22  26
ENDBRANCH  17  18
ENDBRANCH  16  17
ENDBRANCH   3  16
TORSDOF 6
ENDMDL
MODEL 2
REMARK VINA RESULT:    -7.675      2.080      4.045
REMARK INTER + INTRA:         -11.098
REMARK INTER:                 -10.172
REMARK INTRA:                  -0.927
REMARK UNBOUND:                -0.731
REMARK  Name = 
REMARK  7 active torsions:
REMARK  status: ('A' for Active; 'I' for Inactive)
REMARK    1  A    between atoms: C_1  and  C_2
REMARK    2  A    between atoms: N_5  and  C_6
REMARK    3  A    between atoms: C_8  and  C_9
REMARK    4  A    between atoms: C_9  and  C_10
REMARK    5  A    between atoms: C_10  and  N_11
REMARK    6  A    between atoms: C_15  and  C_16
REMARK    7  A    between atoms: C_23  and  C_24
REMARK                            x       y       z     vdW  Elec       q    Type
REMARK                         _______ _______ _______ _____ _____    ______ ____
ROOT
ATOM      1  C   UNL     1      46.757   7.180  12.587  0.00  0.00    +0.000 A 
ATOM      2  C   UNL     1      45.495   6.877  12.004  0.00  0.00    +0.000 A 
ATOM      3  C   UNL     1      44.661   5.822  12.442  0.00  0.00    +0.000 A 
ATOM      4  C   UNL     1      45.092   5.059  13.527  0.00  0.00    +0.000 A 
ATOM      5  C   UNL     1      46.323   5.308  14.118  0.00  0.00    +0.000 A 
ATOM      6  C   UNL     1      47.161   6.333  13.647  0.00  0.00    +0.000 A 
ENDROOT
BRANCH   1  11
ATOM      7  C   UNL     1      50.382  11.354  12.778  0.00  0.00    +0.000 C 
ATOM      8  C   UNL     1      49.313  10.522  12.074  0.00  0.00    +0.000 C 
ATOM      9  C   UNL     1      49.789   9.075  11.936  0.00  0.00    +0.000 C 
ATOM     10  C   UNL     1      48.717   8.162  11.349  0.00  0.00    +0.000 C 
ATOM     11  N   UNL     1      47.477   8.281  12.129  0.00  0.00    +0.000 N 
ATOM     12  C   UNL     1      46.937   9.647  12.194  0.00  0.00    +0.000 C 
ATOM     13  C   UNL     1      47.976  10.573  12.832  0.00  0.00    +0.000 C 
ENDBRANCH   1  11
BRANCH   6  14
ATOM     14  C   UNL     1      48.447   6.398  14.284  0.00  0.00    +0.000 C 
ATOM     15  N   UNL     1      49.508   6.462  14.755  0.00  0.00    +0.000 NA
ENDBRANCH   6  14
BRANCH   3  16
ATOM     16  C   UNL     1      43.338   5.556  11.736  0.00  0.00    +0.000 C 
BRANCH  16  17
ATOM     17  C   UNL     1      43.478   5.011  10.302  0.00  0.00    +0.000 C 
BRANCH  17  18
ATOM     18  N   UNL     1      43.789   3.580  10.262  0.00  0.00    +0.000 N 
ATOM     19  C   UNL     1      44.772   3.279   9.289  0.00  0.00    +0.000 A 
ATOM     20  C   UNL     1      45.158   1.952   9.120  0.00  0.00    +0.000 A 
ATOM     21  C   UNL     1      46.120   1.630   8.157  0.00  0.00    +0.000 A 
ATOM     22  C   UNL     1      46.689   2.637   7.377  0.00  0.00    +0.000 A 
ATOM     23  C   UNL     1      46.264   3.929   7.623  0.00  0.00    +0.000 A 
ATOM     24  N   UNL     1      45.332   4.264   8.555  0.00  0.00    +0.000 NA
ATOM     25  H   UNL     1      42.969   3.010  10.070  0.00  0.00    +0.000 HD
BRANCH  22  26
ATOM     26  C   UNL     1      47.692   2.281   6.344  0.00  0.00    +0.000 C 
ATOM     27  N   UNL     1      47.723   2.981   5.168  0.00  0.00    +0.000 N 
ATOM     28  O   UNL     1      48.487   1.367   6.525  0.00  0.00    +0.000 OA
ATOM     29  H   UNL     1      47.119   3.746   4.915  0.00  0.00    +0.000 HD
ATOM     30  H   UNL     1      48.420   2.696   4.494  0.00  0.00    +0.000 HD
ENDBRANCH  22  26
ENDBRANCH  17  18
ENDBRANCH  16  17
ENDBRANCH   3  16
TORSDOF 6
ENDMDL
MODEL 3
REMARK VINA RESULT:    -7.492      2.198      3.046
REMARK INTER + INTRA:         -10.851
REMARK INTER:                  -9.912
REMARK INTRA:                  -0.939
REMARK UNBOUND:                -0.731
REMARK  Name = 
REMARK  7 active torsions:
REMARK  status: ('A' for Active; 'I' for Inactive)
REMARK    1  A    between atoms: C_1  and  C_2
REMARK    2  A    between atoms: N_5  and  C_6
REMARK    3  A    between atoms: C_8  and  C_9
REMARK    4  A    between atoms: C_9  and  C_10
REMARK    5  A    between atoms: C_10  and  N_11
REMARK    6  A    between atoms: C_15  and  C_16
REMARK    7  A    between atoms: C_23  and  C_24
REMARK                            x       y       z     vdW  Elec       q    Type
REMARK                         _______ _______ _______ _____ _____    ______ ____
ROOT
ATOM      1  C   UNL     1      47.022   7.360  12.856  0.00  0.00    +0.000 A 
ATOM      2  C   UNL     1      46.189   6.206  12.846  0.00  0.00    +0.000 A 
ATOM      3  C   UNL     1      44.887   6.184  12.296  0.00  0.00    +0.000 A 
ATOM      4  C   UNL     1      44.409   7.354  11.706  0.00  0.00    +0.000 A 
ATOM      5  C   UNL     1      45.180   8.508  11.706  0.00  0.00    +0.000 A 
ATOM      6  C   UNL     1      46.456   8.529  12.292  0.00  0.00    +0.000 A 
ENDROOT
BRANCH   1  11
ATOM      7  C   UNL     1      51.834   9.120  14.941  0.00  0.00    +0.000 C 
ATOM      8  C   UNL     1      50.899   8.024  14.434  0.00  0.00    +0.000 C 
ATOM      9  C   UNL     1      49.640   7.974  15.301  0.00  0.00    +0.000 C 
ATOM     10  C   UNL     1      48.609   6.981  14.774  0.00  0.00    +0.000 C 
ATOM     11  N   UNL     1      48.317   7.265  13.362  0.00  0.00    +0.000 N 
ATOM     12  C   UNL     1      49.495   7.219  12.484  0.00  0.00    +0.000 C 
ATOM     13  C   UNL     1      50.524   8.248  12.960  0.00  0.00    +0.000 C 
ENDBRANCH   1  11
BRANCH   6  14
ATOM     14  C   UNL     1      47.087   9.820  12.314  0.00  0.00    +0.000 C 
ATOM     15  N   UNL     1      47.641  10.841  12.322  0.00  0.00    +0.000 NA
ENDBRANCH   6  14
BRANCH   3  16
ATOM     16  C   UNL     1      44.057   4.908  12.357  0.00  0.00    +0.000 C 
BRANCH  16  17
ATOM     17  C   UNL     1      43.441   4.481  11.012  0.00  0.00    +0.000 C 
BRANCH  17  18
ATOM     18  N   UNL     1      43.767   3.101  10.645  0.00  0.00    +0.000 N 
ATOM     19  C   UNL     1      44.674   3.041   9.560  0.00  0.00    +0.000 A 
ATOM     20  C   UNL     1      45.062   1.792   9.084  0.00  0.00    +0.000 A 
ATOM     21  C   UNL     1      45.950   1.709   8.006  0.00  0.00    +0.000 A 
ATOM     22  C   UNL     1      46.442   2.873   7.418  0.00  0.00    +0.000 A 
ATOM     23  C   UNL     1      46.021   4.072   7.964  0.00  0.00    +0.000 A 
ATOM     24  N   UNL     1      45.162   4.175   9.013  0.00  0.00    +0.000 NA
ATOM     25  H   UNL     1      42.942   2.560  10.398  0.00  0.00    +0.000 HD
BRANCH  22  26
ATOM     26  C   UNL     1      47.365   2.774   6.261  0.00  0.00    +0.000 C 
ATOM     27  N   UNL     1      48.693   2.523   6.480  0.00  0.00    +0.000 N 
ATOM     28  O   UNL     1      46.958   2.919   5.115  0.00  0.00    +0.000 OA
ATOM     29  H   UNL     1      49.133   2.388   7.375  0.00  0.00    +0.000 HD
ATOM     30  H   UNL     1      49.281   2.472   5.660  0.00  0.00    +0.000 HD
ENDBRANCH  22  26
ENDBRANCH  17  18
ENDBRANCH  16  17
ENDBRANCH   3  16
TORSDOF 6
ENDMDL
MODEL 4
REMARK VINA RESULT:    -7.057      3.343      8.600
REMARK INTER + INTRA:         -10.263
REMARK INTER:                 -10.255
REMARK INTRA:                  -0.009
REMARK UNBOUND:                -0.731
REMARK  Name = 
REMARK  7 active torsions:
REMARK  status: ('A' for Active; 'I' for Inactive)
REMARK    1  A    between atoms: C_1  and  C_2
REMARK    2  A    between atoms: N_5  and  C_6
REMARK    3  A    between atoms: C_8  and  C_9
REMARK    4  A    between atoms: C_9  and  C_10
REMARK    5  A    between atoms: C_10  and  N_11
REMARK    6  A    between atoms: C_15  and  C_16
REMARK    7  A    between atoms: C_23  and  C_24
REMARK                            x       y       z     vdW  Elec       q    Type
REMARK                         _______ _______ _______ _____ _____    ______ ____
ROOT
ATOM      1  C   UNL     1      45.268   4.484  10.698  0.00  0.00    +0.000 A 
ATOM      2  C   UNL     1      46.036   5.656  10.944  0.00  0.00    +0.000 A 
ATOM      3  C   UNL     1      46.081   6.315  12.194  0.00  0.00    +0.000 A 
ATOM      4  C   UNL     1      45.352   5.764  13.248  0.00  0.00    +0.000 A 
ATOM      5  C   UNL     1      44.576   4.631  13.050  0.00  0.00    +0.000 A 
ATOM      6  C   UNL     1      44.507   4.008  11.793  0.00  0.00    +0.000 A 
ENDROOT
BRANCH   1  11
ATOM      7  C   UNL     1      47.558   1.719   6.489  0.00  0.00    +0.000 C 
ATOM      8  C   UNL     1      46.395   2.454   7.152  0.00  0.00    +0.000 C 
ATOM      9  C   UNL     1      45.989   1.730   8.437  0.00  0.00    +0.000 C 
ATOM     10  C   UNL     1      44.911   2.482   9.213  0.00  0.00    +0.000 C 
ATOM     11  N   UNL     1      45.340   3.867   9.450  0.00  0.00    +0.000 N 
ATOM     12  C   UNL     1      45.639   4.622   8.224  0.00  0.00    +0.000 C 
ATOM     13  C   UNL     1      46.759   3.916   7.455  0.00  0.00    +0.000 C 
ENDBRANCH   1  11
BRANCH   6  14
ATOM     14  C   UNL     1      43.579   2.914  11.714  0.00  0.00    +0.000 C 
ATOM     15  N   UNL     1      42.847   2.011  11.692  0.00  0.00    +0.000 NA
ENDBRANCH   6  14
BRANCH   3  16
ATOM     16  C   UNL     1      46.911   7.582  12.355  0.00  0.00    +0.000 C 
BRANCH  16  17
ATOM     17  C   UNL     1      48.363   7.341  12.807  0.00  0.00    +0.000 C 
BRANCH  17  18
ATOM     18  N   UNL     1      48.704   8.052  14.043  0.00  0.00    +0.000 N 
ATOM     19  C   UNL     1      48.622   7.211  15.177  0.00  0.00    +0.000 A 
ATOM     20  C   UNL     1      48.899   7.752  16.430  0.00  0.00    +0.000 A 
ATOM     21  C   UNL     1      48.815   6.942  17.566  0.00  0.00    +0.000 A 
ATOM     22  C   UNL     1      48.459   5.599  17.440  0.00  0.00    +0.000 A 
ATOM     23  C   UNL     1      48.220   5.137  16.159  0.00  0.00    +0.000 A 
ATOM     24  N   UNL     1      48.299   5.907  15.041  0.00  0.00    +0.000 NA
ATOM     25  H   UNL     1      48.106   8.859  14.203  0.00  0.00    +0.000 HD
BRANCH  22  26
ATOM     26  C   UNL     1      48.350   4.755  18.654  0.00  0.00    +0.000 C 
ATOM     27  N   UNL     1      47.873   3.476  18.544  0.00  0.00    +0.000 N 
ATOM     28  O   UNL     1      48.675   5.186  19.754  0.00  0.00    +0.000 OA
ATOM     29  H   UNL     1      47.578   3.022  17.695  0.00  0.00    +0.000 HD
ATOM     30  H   UNL     1      47.812   2.945  19.401  0.00  0.00    +0.000 HD
ENDBRANCH  22  26
ENDBRANCH  17  18
ENDBRANCH  16  17
ENDBRANCH   3  16
TORSDOF 6
ENDMDL
MODEL 5
REMARK VINA RESULT:    -6.912      2.154      2.863
REMARK INTER + INTRA:         -10.067
REMARK INTER:                  -9.162
REMARK INTRA:                  -0.905
REMARK UNBOUND:                -0.731
REMARK  Name = 
REMARK  7 active torsions:
REMARK  status: ('A' for Active; 'I' for Inactive)
REMARK    1  A    between atoms: C_1  and  C_2
REMARK    2  A    between atoms: N_5  and  C_6
REMARK    3  A    between atoms: C_8  and  C_9
REMARK    4  A    between atoms: C_9  and  C_10
REMARK    5  A    between atoms: C_10  and  N_11
REMARK    6  A    between atoms: C_15  and  C_16
REMARK    7  A    between atoms: C_23  and  C_24
REMARK                            x       y       z     vdW  Elec       q    Type
REMARK                         _______ _______ _______ _____ _____    ______ ____
ROOT
ATOM      1  C   UNL     1      48.099   7.628  13.861  0.00  0.00    +0.000 A 
ATOM      2  C   UNL     1      46.757   7.195  13.672  0.00  0.00    +0.000 A 
ATOM      3  C   UNL     1      46.212   6.853  12.413  0.00  0.00    +0.000 A 
ATOM      4  C   UNL     1      47.052   6.917  11.301  0.00  0.00    +0.000 A 
ATOM      5  C   UNL     1      48.365   7.349  11.435  0.00  0.00    +0.000 A 
ATOM      6  C   UNL     1      48.882   7.726  12.685  0.00  0.00    +0.000 A 
ENDROOT
BRANCH   1  11
ATOM      7  C   UNL     1      47.867   8.153  19.362  0.00  0.00    +0.000 C 
ATOM      8  C   UNL     1      48.604   8.223  18.027  0.00  0.00    +0.000 C 
ATOM      9  C   UNL     1      48.619   6.841  17.370  0.00  0.00    +0.000 C 
ATOM     10  C   UNL     1      49.234   6.866  15.975  0.00  0.00    +0.000 C 
ATOM     11  N   UNL     1      48.563   7.881  15.150  0.00  0.00    +0.000 N 
ATOM     12  C   UNL     1      48.620   9.240  15.706  0.00  0.00    +0.000 C 
ATOM     13  C   UNL     1      47.958   9.253  17.086  0.00  0.00    +0.000 C 
ENDBRANCH   1  11
BRANCH   6  14
ATOM     14  C   UNL     1      50.217   8.255  12.649  0.00  0.00    +0.000 C 
ATOM     15  N   UNL     1      51.279   8.726  12.639  0.00  0.00    +0.000 NA
ENDBRANCH   6  14
BRANCH   3  16
ATOM     16  C   UNL     1      44.754   6.427  12.306  0.00  0.00    +0.000 C 
BRANCH  16  17
ATOM     17  C   UNL     1      44.337   5.920  10.913  0.00  0.00    +0.000 C 
BRANCH  17  18
ATOM     18  N   UNL     1      44.248   4.459  10.838  0.00  0.00    +0.000 N 
ATOM     19  C   UNL     1      44.957   3.941   9.729  0.00  0.00    +0.000 A 
ATOM     20  C   UNL     1      44.946   2.565   9.514  0.00  0.00    +0.000 A 
ATOM     21  C   UNL     1      45.632   2.032   8.418  0.00  0.00    +0.000 A 
ATOM     22  C   UNL     1      46.324   2.877   7.551  0.00  0.00    +0.000 A 
ATOM     23  C   UNL     1      46.299   4.227   7.847  0.00  0.00    +0.000 A 
ATOM     24  N   UNL     1      45.641   4.766   8.908  0.00  0.00    +0.000 NA
ATOM     25  H   UNL     1      43.286   4.132  10.780  0.00  0.00    +0.000 HD
BRANCH  22  26
ATOM     26  C   UNL     1      47.028   2.303   6.379  0.00  0.00    +0.000 C 
ATOM     27  N   UNL     1      47.233   3.079   5.270  0.00  0.00    +0.000 N 
ATOM     28  O   UNL     1      47.424   1.143   6.387  0.00  0.00    +0.000 OA
ATOM     29  H   UNL     1      46.951   4.039   5.156  0.00  0.00    +0.000 HD
ATOM     30  H   UNL     1      47.711   2.640   4.497  0.00  0.00    +0.000 HD
ENDBRANCH  22  26
ENDBRANCH  17  18
ENDBRANCH  16  17
ENDBRANCH   3  16
TORSDOF 6
ENDMDL
MODEL 6
REMARK VINA RESULT:    -6.629      3.568      5.366
REMARK INTER + INTRA:          -9.685
REMARK INTER:                  -8.560
REMARK INTRA:                  -1.125
REMARK UNBOUND:                -0.731
REMARK  Name = 
REMARK  7 active torsions:
REMARK  status: ('A' for Active; 'I' for Inactive)
REMARK    1  A    between atoms: C_1  and  C_2
REMARK    2  A    between atoms: N_5  and  C_6
REMARK    3  A    between atoms: C_8  and  C_9
REMARK    4  A    between atoms: C_9  and  C_10
REMARK    5  A    between atoms: C_10  and  N_11
REMARK    6  A    between atoms: C_15  and  C_16
REMARK    7  A    between atoms: C_23  and  C_24
REMARK                            x       y       z     vdW  Elec       q    Type
REMARK                         _______ _______ _______ _____ _____    ______ ____
ROOT
ATOM      1  C   UNL     1      48.803   6.952  17.079  0.00  0.00    +0.000 A 
ATOM      2  C   UNL     1      49.058   7.223  15.706  0.00  0.00    +0.000 A 
ATOM      3  C   UNL     1      48.874   8.492  15.111  0.00  0.00    +0.000 A 
ATOM      4  C   UNL     1      48.446   9.540  15.927  0.00  0.00    +0.000 A 
ATOM      5  C   UNL     1      48.170   9.318  17.269  0.00  0.00    +0.000 A 
ATOM      6  C   UNL     1      48.317   8.043  17.840  0.00  0.00    +0.000 A 
ENDROOT
BRANCH   1  11
ATOM      7  C   UNL     1      50.576   1.713  17.066  0.00  0.00    +0.000 C 
ATOM      8  C   UNL     1      49.935   2.922  17.742  0.00  0.00    +0.000 C 
ATOM      9  C   UNL     1      50.927   4.086  17.772  0.00  0.00    +0.000 C 
ATOM     10  C   UNL     1      50.308   5.365  18.327  0.00  0.00    +0.000 C 
ATOM     11  N   UNL     1      49.077   5.685  17.590  0.00  0.00    +0.000 N 
ATOM     12  C   UNL     1      48.061   4.624  17.629  0.00  0.00    +0.000 C 
ATOM     13  C   UNL     1      48.642   3.342  17.026  0.00  0.00    +0.000 C 
ENDBRANCH   1  11
BRANCH   6  14
ATOM     14  C   UNL     1      47.888   7.944  19.207  0.00  0.00    +0.000 C 
ATOM     15  N   UNL     1      47.512   7.824  20.301  0.00  0.00    +0.000 NA
ENDBRANCH   6  14
BRANCH   3  16
ATOM     16  C   UNL     1      49.147   8.680  13.624  0.00  0.00    +0.000 C 
BRANCH  16  17
ATOM     17  C   UNL     1      49.155   7.376  12.805  0.00  0.00    +0.000 C 
BRANCH  17  18
ATOM     18  N   UNL     1      48.161   7.370  11.728  0.00  0.00    +0.000 N 
ATOM     19  C   UNL     1      47.060   6.534  12.028  0.00  0.00    +0.000 A 
ATOM     20  C   UNL     1      46.041   6.411  11.087  0.00  0.00    +0.000 A 
ATOM     21  C   UNL     1      44.948   5.582  11.358  0.00  0.00    +0.000 A 
ATOM     22  C   UNL     1      44.881   4.888  12.566  0.00  0.00    +0.000 A 
ATOM     23  C   UNL     1      45.924   5.082  13.452  0.00  0.00    +0.000 A 
ATOM     24  N   UNL     1      46.995   5.885  13.210  0.00  0.00    +0.000 NA
ATOM     25  H   UNL     1      48.555   7.069  10.840  0.00  0.00    +0.000 HD
BRANCH  22  26
ATOM     26  C   UNL     1      43.728   3.995  12.833  0.00  0.00    +0.000 C 
ATOM     27  N   UNL     1      43.840   2.656  12.570  0.00  0.00    +0.000 N 
ATOM     28  O   UNL     1      42.676   4.438  13.278  0.00  0.00    +0.000 OA
ATOM     29  H   UNL     1      44.653   2.187  12.205  0.00  0.00    +0.000 HD
ATOM     30  H   UNL     1      43.024   2.092  12.762  0.00  0.00    +0.000 HD
ENDBRANCH  22  26
ENDBRANCH  17  18
ENDBRANCH  16  17
ENDBRANCH   3  16
TORSDOF 6
ENDMDL
MODEL 7
REMARK VINA RESULT:    -6.527      3.366      6.229
REMARK INTER + INTRA:          -9.548
REMARK INTER:                  -8.835
REMARK INTRA:                  -0.712
REMARK UNBOUND:                -0.731
REMARK  Name = 
REMARK  7 active torsions:
REMARK  status: ('A' for Active; 'I' for Inactive)
REMARK    1  A    between atoms: C_1  and  C_2
REMARK    2  A    between atoms: N_5  and  C_6
REMARK    3  A    between atoms: C_8  and  C_9
REMARK    4  A    between atoms: C_9  and  C_10
REMARK    5  A    between atoms: C_10  and  N_11
REMARK    6  A    between atoms: C_15  and  C_16
REMARK    7  A    between atoms: C_23  and  C_24
REMARK                            x       y       z     vdW  Elec       q    Type
REMARK                         _______ _______ _______ _____ _____    ______ ____
ROOT
ATOM      1  C   UNL     1      51.734   3.599  18.055  0.00  0.00    +0.000 A 
ATOM      2  C   UNL     1      50.570   4.376  17.802  0.00  0.00    +0.000 A 
ATOM      3  C   UNL     1      49.387   3.853  17.232  0.00  0.00    +0.000 A 
ATOM      4  C   UNL     1      49.355   2.492  16.930  0.00  0.00    +0.000 A 
ATOM      5  C   UNL     1      50.473   1.697  17.145  0.00  0.00    +0.000 A 
ATOM      6  C   UNL     1      51.657   2.237  17.674  0.00  0.00    +0.000 A 
ENDROOT
BRANCH   1  11
ATOM      7  C   UNL     1      54.680   7.589  20.504  0.00  0.00    +0.000 C 
ATOM      8  C   UNL     1      54.513   6.173  19.956  0.00  0.00    +0.000 C 
ATOM      9  C   UNL     1      53.387   5.458  20.705  0.00  0.00    +0.000 C 
ATOM     10  C   UNL     1      53.086   4.079  20.124  0.00  0.00    +0.000 C 
ATOM     11  N   UNL     1      52.830   4.190  18.681  0.00  0.00    +0.000 N 
ATOM     12  C   UNL     1      53.938   4.781  17.918  0.00  0.00    +0.000 C 
ATOM     13  C   UNL     1      54.223   6.190  18.447  0.00  0.00    +0.000 C 
ENDBRANCH   1  11
BRANCH   6  14
ATOM     14  C   UNL     1      52.761   1.320  17.736  0.00  0.00    +0.000 C 
ATOM     15  N   UNL     1      53.681   0.613  17.808  0.00  0.00    +0.000 NA
ENDBRANCH   6  14
BRANCH   3  16
ATOM     16  C   UNL     1      48.199   4.770  16.971  0.00  0.00    +0.000 C 
BRANCH  16  17
ATOM     17  C   UNL     1      47.317   4.351  15.781  0.00  0.00    +0.000 C 
BRANCH  17  18
ATOM     18  N   UNL     1      47.090   5.439  14.825  0.00  0.00    +0.000 N 
ATOM     19  C   UNL     1      46.386   5.000  13.679  0.00  0.00    +0.000 A 
ATOM     20  C   UNL     1      46.114   5.920  12.670  0.00  0.00    +0.000 A 
ATOM     21  C   UNL     1      45.427   5.505  11.524  0.00  0.00    +0.000 A 
ATOM     22  C   UNL     1      45.017   4.178  11.400  0.00  0.00    +0.000 A 
ATOM     23  C   UNL     1      45.310   3.335  12.456  0.00  0.00    +0.000 A 
ATOM     24  N   UNL     1      45.973   3.718  13.579  0.00  0.00    +0.000 NA
ATOM     25  H   UNL     1      47.958   5.871  14.517  0.00  0.00    +0.000 HD
BRANCH  22  26
ATOM     26  C   UNL     1      44.310   3.745  10.171  0.00  0.00    +0.000 C 
ATOM     27  N   UNL     1      44.198   4.612   9.117  0.00  0.00    +0.000 N 
ATOM     28  O   UNL     1      43.819   2.625  10.087  0.00  0.00    +0.000 OA
ATOM     29  H   UNL     1      44.561   5.551   9.079  0.00  0.00    +0.000 HD
ATOM     30  H   UNL     1      43.701   4.272   8.307  0.00  0.00    +0.000 HD
ENDBRANCH  22  26
ENDBRANCH  17  18
ENDBRANCH  16  17
ENDBRANCH   3  16
TORSDOF 6
ENDMDL
MODEL 8
REMARK VINA RESULT:    -6.386      4.230      7.862
REMARK INTER + INTRA:          -9.357
REMARK INTER:                  -8.070
REMARK INTRA:                  -1.287
REMARK UNBOUND:                -0.731
REMARK  Name = 
REMARK  7 active torsions:
REMARK  status: ('A' for Active; 'I' for Inactive)
REMARK    1  A    between atoms: C_1  and  C_2
REMARK    2  A    between atoms: N_5  and  C_6
REMARK    3  A    between atoms: C_8  and  C_9
REMARK    4  A    between atoms: C_9  and  C_10
REMARK    5  A    between atoms: C_10  and  N_11
REMARK    6  A    between atoms: C_15  and  C_16
REMARK    7  A    between atoms: C_23  and  C_24
REMARK                            x       y       z     vdW  Elec       q    Type
REMARK                         _______ _______ _______ _____ _____    ______ ____
ROOT
ATOM      1  C   UNL     1      48.251   7.826  13.899  0.00  0.00    +0.000 A 
ATOM      2  C   UNL     1      47.912   8.237  15.218  0.00  0.00    +0.000 A 
ATOM      3  C   UNL     1      48.718   9.093  16.004  0.00  0.00    +0.000 A 
ATOM      4  C   UNL     1      49.895   9.582  15.437  0.00  0.00    +0.000 A 
ATOM      5  C   UNL     1      50.274   9.195  14.158  0.00  0.00    +0.000 A 
ATOM      6  C   UNL     1      49.485   8.312  13.403  0.00  0.00    +0.000 A 
ENDROOT
BRANCH   1  11
ATOM      7  C   UNL     1      43.554   5.116  12.809  0.00  0.00    +0.000 C 
ATOM      8  C   UNL     1      44.980   5.542  12.469  0.00  0.00    +0.000 C 
ATOM      9  C   UNL     1      45.052   7.065  12.351  0.00  0.00    +0.000 C 
ATOM     10  C   UNL     1      46.476   7.565  12.132  0.00  0.00    +0.000 C 
ATOM     11  N   UNL     1      47.360   7.033  13.178  0.00  0.00    +0.000 N 
ATOM     12  C   UNL     1      47.391   5.565  13.249  0.00  0.00    +0.000 C 
ATOM     13  C   UNL     1      45.979   5.040  13.524  0.00  0.00    +0.000 C 
ENDBRANCH   1  11
BRANCH   6  14
ATOM     14  C   UNL     1      50.060   7.917  12.147  0.00  0.00    +0.000 C 
ATOM     15  N   UNL     1      50.569   7.591  11.154  0.00  0.00    +0.000 NA
ENDBRANCH   6  14
BRANCH   3  16
ATOM     16  C   UNL     1      48.286   9.456  17.418  0.00  0.00    +0.000 C 
BRANCH  16  17
ATOM     17  C   UNL     1      48.607   8.387  18.479  0.00  0.00    +0.000 C 
BRANCH  17  18
ATOM     18  N   UNL     1      47.632   7.293  18.502  0.00  0.00    +0.000 N 
ATOM     19  C   UNL     1      48.215   6.055  18.143  0.00  0.00    +0.000 A 
ATOM     20  C   UNL     1      47.406   4.924  18.100  0.00  0.00    +0.000 A 
ATOM     21  C   UNL     1      47.959   3.691  17.738  0.00  0.00    +0.000 A 
ATOM     22  C   UNL     1      49.315   3.602  17.425  0.00  0.00    +0.000 A 
ATOM     23  C   UNL     1      50.052   4.769  17.511  0.00  0.00    +0.000 A 
ATOM     24  N   UNL     1      49.534   5.976  17.864  0.00  0.00    +0.000 NA
ATOM     25  H   UNL     1      46.844   7.464  17.883  0.00  0.00    +0.000 HD
BRANCH  22  26
ATOM     26  C   UNL     1      49.887   2.295  17.020  0.00  0.00    +0.000 C 
ATOM     27  N   UNL     1      50.862   1.720  17.789  0.00  0.00    +0.000 N 
ATOM     28  O   UNL     1      49.503   1.726  16.004  0.00  0.00    +0.000 OA
ATOM     29  H   UNL     1      51.250   2.098  18.638  0.00  0.00    +0.000 HD
ATOM     30  H   UNL     1      51.224   0.834  17.466  0.00  0.00    +0.000 HD
ENDBRANCH  22  26
ENDBRANCH  17  18
ENDBRANCH  16  17
ENDBRANCH   3  16
TORSDOF 6
ENDMDL
MODEL 9
REMARK VINA RESULT:    -6.323      4.044      8.142
REMARK INTER + INTRA:          -9.272
REMARK INTER:                  -8.492
REMARK INTRA:                  -0.780
REMARK UNBOUND:                -0.731
REMARK  Name = 
REMARK  7 active torsions:
REMARK  status: ('A' for Active; 'I' for Inactive)
REMARK    1  A    between atoms: C_1  and  C_2
REMARK    2  A    between atoms: N_5  and  C_6
REMARK    3  A    between atoms: C_8  and  C_9
REMARK    4  A    between atoms: C_9  and  C_10
REMARK    5  A    between atoms: C_10  and  N_11
REMARK    6  A    between atoms: C_15  and  C_16
REMARK    7  A    between atoms: C_23  and  C_24
REMARK                            x       y       z     vdW  Elec       q    Type
REMARK                         _______ _______ _______ _____ _____    ______ ____
ROOT
ATOM      1  C   UNL     1      45.681   7.136  12.483  0.00  0.00    +0.000 A 
ATOM      2  C   UNL     1      46.790   6.707  13.264  0.00  0.00    +0.000 A 
ATOM      3  C   UNL     1      47.744   7.589  13.822  0.00  0.00    +0.000 A 
ATOM      4  C   UNL     1      47.564   8.957  13.618  0.00  0.00    +0.000 A 
ATOM      5  C   UNL     1      46.505   9.421  12.850  0.00  0.00    +0.000 A 
ATOM      6  C   UNL     1      45.587   8.532  12.266  0.00  0.00    +0.000 A 
ENDROOT
BRANCH   1  11
ATOM      7  C   UNL     1      43.394   2.148  11.781  0.00  0.00    +0.000 C 
ATOM      8  C   UNL     1      43.450   3.656  11.547  0.00  0.00    +0.000 C 
ATOM      9  C   UNL     1      43.330   4.393  12.882  0.00  0.00    +0.000 C 
ATOM     10  C   UNL     1      43.501   5.901  12.732  0.00  0.00    +0.000 C 
ATOM     11  N   UNL     1      44.758   6.195  12.030  0.00  0.00    +0.000 N 
ATOM     12  C   UNL     1      44.859   5.583  10.697  0.00  0.00    +0.000 C 
ATOM     13  C   UNL     1      44.746   4.062  10.828  0.00  0.00    +0.000 C 
ENDBRANCH   1  11
BRANCH   6  14
ATOM     14  C   UNL     1      44.613   9.150  11.409  0.00  0.00    +0.000 C 
ATOM     15  N   UNL     1      43.828   9.691  10.745  0.00  0.00    +0.000 NA
ENDBRANCH   6  14
BRANCH   3  16
ATOM     16  C   UNL     1      48.916   7.034  14.622  0.00  0.00    +0.000 C 
BRANCH  16  17
ATOM     17  C   UNL     1      48.626   6.826  16.120  0.00  0.00    +0.000 C 
BRANCH  17  18
ATOM     18  N   UNL     1      48.090   5.496  16.420  0.00  0.00    +0.000 N 
ATOM     19  C   UNL     1      49.104   4.594  16.820  0.00  0.00    +0.000 A 
ATOM     20  C   UNL     1      48.748   3.281  17.119  0.00  0.00    +0.000 A 
ATOM     21  C   UNL     1      49.736   2.370  17.507  0.00  0.00    +0.000 A 
ATOM     22  C   UNL     1      51.066   2.779  17.595  0.00  0.00    +0.000 A 
ATOM     23  C   UNL     1      51.330   4.104  17.300  0.00  0.00    +0.000 A 
ATOM     24  N   UNL     1      50.385   5.007  16.924  0.00  0.00    +0.000 NA
ATOM     25  H   UNL     1      47.598   5.089  15.628  0.00  0.00    +0.000 HD
BRANCH  22  26
ATOM     26  C   UNL     1      52.107   1.798  17.986  0.00  0.00    +0.000 C 
ATOM     27  N   UNL     1      52.042   0.519  17.502  0.00  0.00    +0.000 N 
ATOM     28  O   UNL     1      53.021   2.114  18.739  0.00  0.00    +0.000 OA
ATOM     29  H   UNL     1      51.338   0.153  16.882  0.00  0.00    +0.000 HD
ATOM     30  H   UNL     1      52.770  -0.112  17.804  0.00  0.00    +0.000 HD
ENDBRANCH  22  26
ENDBRANCH  17  18
ENDBRANCH  16  17
ENDBRANCH   3  16
TORSDOF 6
ENDMDL
