MODEL 1
REMARK VINA RESULT:    -7.770      0.000      0.000
REMARK INTER + INTRA:         -10.014
REMARK INTER:                  -9.587
REMARK INTRA:                  -0.427
REMARK UNBOUND:                -0.427
REMARK  Name = 
REMARK  4 active torsions:
REMARK  status: ('A' for Active; 'I' for Inactive)
REMARK    1  A    between atoms: C_2  and  C_4
REMARK    2  A    between atoms: C_7  and  N_8
REMARK    3  A    between atoms: N_8  and  C_9
REMARK    4  A    between atoms: C_9  and  C_10
REMARK                            x       y       z     vdW  Elec       q    Type
REMARK                         _______ _______ _______ _____ _____    ______ ____
ROOT
ATOM      1  C   UNL     1      46.335   2.278   7.804  0.00  0.00    +0.000 A 
ATOM      2  C   UNL     1      45.437   1.704   8.708  0.00  0.00    +0.000 A 
ATOM      3  C   UNL     1      44.558   2.516   9.435  0.00  0.00    +0.000 A 
ATOM      4  C   UNL     1      44.572   3.907   9.287  0.00  0.00    +0.000 A 
ATOM      5  C   UNL     1      45.439   4.461   8.337  0.00  0.00    +0.000 A 
ATOM      6  C   UNL     1      46.334   3.661   7.620  0.00  0.00    +0.000 A 
ENDROOT
BRANCH   1   8
ATOM      7  N   UNL     1      48.429   2.105   6.570  0.00  0.00    +0.000 N 
ATOM      8  C   UNL     1      47.320   1.464   7.046  0.00  0.00    +0.000 C 
ATOM      9  O   UNL     1      47.169   0.259   6.878  0.00  0.00    +0.000 OA
ATOM     10  H   UNL     1      49.138   1.515   6.154  0.00  0.00    +0.000 HD
ATOM     11  H   UNL     1      48.713   3.012   6.910  0.00  0.00    +0.000 HD
ENDBRANCH   1   8
BRANCH   4  12
ATOM     12  N   UNL     1      43.731   4.777   9.979  0.00  0.00    +0.000 N 
ATOM     13  H   UNL     1      42.842   4.925   9.500  0.00  0.00    +0.000 HD
BRANCH  12  14
ATOM     14  C   UNL     1      43.509   4.564  11.416  0.00  0.00    +0.000 C 
BRANCH  14  15
ATOM     15  C   UNL     1      44.759   4.854  12.237  0.00  0.00    +0.000 A 
ATOM     16  N   UNL     1      45.350   3.824  12.886  0.00  0.00    +0.000 NA
ATOM     17  C   UNL     1      46.466   4.116  13.581  0.00  0.00    +0.000 A 
ATOM     18  C   UNL     1      47.024   5.372  13.632  0.00  0.00    +0.000 A 
ATOM     19  C   UNL     1      46.367   6.342  12.915  0.00  0.00    +0.000 A 
ATOM     20  N   UNL     1      45.246   6.114  12.207  0.00  0.00    +0.000 NA
ENDBRANCH  14  15
ENDBRANCH  12  14
ENDBRANCH   4  12
TORSDOF 4
ENDMDL
MODEL 2
REMARK VINA RESULT:    -6.957      2.786      6.079
REMARK INTER + INTRA:          -9.012
REMARK INTER:                  -8.728
REMARK INTRA:                  -0.284
REMARK UNBOUND:                -0.427
REMARK  Name = 
REMARK  4 active torsions:
REMARK  status: ('A' for Active; 'I' for Inactive)
REMARK    1  A    between atoms: C_2  and  C_4
REMARK    2  A    between atoms: C_7  and  N_8
REMARK    3  A    between atoms: N_8  and  C_9
REMARK    4  A    between atoms: C_9  and  C_10
REMARK                            x       y       z     vdW  Elec       q    Type
REMARK                         _______ _______ _______ _____ _____    ______ ____
ROOT
ATOM      1  C   UNL     1      46.602   4.689  13.662  0.00  0.00    +0.000 A 
ATOM      2  C   UNL     1      46.762   5.926  13.032  0.00  0.00    +0.000 A 
ATOM      3  C   UNL     1      46.179   6.156  11.780  0.00  0.00    +0.000 A 
ATOM      4  C   UNL     1      45.446   5.156  11.131  0.00  0.00    +0.000 A 
ATOM      5  C   UNL     1      45.249   3.942  11.802  0.00  0.00    +0.000 A 
ATOM      6  C   UNL     1      45.843   3.696  13.043  0.00  0.00    +0.000 A 
ENDROOT
BRANCH   1   8
ATOM      7  N   UNL     1      47.507   5.433  15.800  0.00  0.00    +0.000 N 
ATOM      8  C   UNL     1      47.242   4.381  14.967  0.00  0.00    +0.000 C 
ATOM      9  O   UNL     1      47.496   3.231  15.307  0.00  0.00    +0.000 OA
ATOM     10  H   UNL     1      47.840   5.193  16.725  0.00  0.00    +0.000 HD
ATOM     11  H   UNL     1      47.080   6.339  15.673  0.00  0.00    +0.000 HD
ENDBRANCH   1   8
BRANCH   4  12
ATOM     12  N   UNL     1      44.842   5.311   9.885  0.00  0.00    +0.000 N 
ATOM     13  H   UNL     1      45.415   5.856   9.238  0.00  0.00    +0.000 HD
BRANCH  12  14
ATOM     14  C   UNL     1      44.288   4.130   9.208  0.00  0.00    +0.000 C 
BRANCH  14  15
ATOM     15  C   UNL     1      45.344   3.388   8.398  0.00  0.00    +0.000 A 
ATOM     16  N   UNL     1      46.096   4.100   7.525  0.00  0.00    +0.000 NA
ATOM     17  C   UNL     1      47.033   3.413   6.845  0.00  0.00    +0.000 A 
ATOM     18  C   UNL     1      47.267   2.069   7.018  0.00  0.00    +0.000 A 
ATOM     19  C   UNL     1      46.473   1.444   7.948  0.00  0.00    +0.000 A 
ATOM     20  N   UNL     1      45.516   2.073   8.654  0.00  0.00    +0.000 NA
ENDBRANCH  14  15
ENDBRANCH  12  14
ENDBRANCH   4  12
TORSDOF 4
ENDMDL
MODEL 3
REMARK VINA RESULT:    -6.745      3.105      6.206
REMARK INTER + INTRA:          -8.749
REMARK INTER:                  -8.520
REMARK INTRA:                  -0.229
REMARK UNBOUND:                -0.427
REMARK  Name = 
REMARK  4 active torsions:
REMARK  status: ('A' for Active; 'I' for Inactive)
REMARK    1  A    between atoms: C_2  and  C_4
REMARK    2  A    between atoms: C_7  and  N_8
REMARK    3  A    between atoms: N_8  and  C_9
REMARK    4  A    between atoms: C_9  and  C_10
REMARK                            x       y       z     vdW  Elec       q    Type
REMARK                         _______ _______ _______ _____ _____    ______ ____
ROOT
ATOM      1  C   UNL     1      45.589   6.617  12.428  0.00  0.00    +0.000 A 
ATOM      2  C   UNL     1      45.564   5.507  13.277  0.00  0.00    +0.000 A 
ATOM      3  C   UNL     1      45.335   4.228  12.753  0.00  0.00    +0.000 A 
ATOM      4  C   UNL     1      45.110   4.039  11.386  0.00  0.00    +0.000 A 
ATOM      5  C   UNL     1      45.194   5.154  10.543  0.00  0.00    +0.000 A 
ATOM      6  C   UNL     1      45.402   6.437  11.057  0.00  0.00    +0.000 A 
ENDROOT
BRANCH   1   8
ATOM      7  N   UNL     1      46.763   8.192  13.870  0.00  0.00    +0.000 N 
ATOM      8  C   UNL     1      45.779   7.998  12.942  0.00  0.00    +0.000 C 
ATOM      9  O   UNL     1      45.107   8.938  12.532  0.00  0.00    +0.000 OA
ATOM     10  H   UNL     1      46.950   9.153  14.124  0.00  0.00    +0.000 HD
ATOM     11  H   UNL     1      47.494   7.513  14.027  0.00  0.00    +0.000 HD
ENDBRANCH   1   8
BRANCH   4  12
ATOM     12  N   UNL     1      44.871   2.799  10.795  0.00  0.00    +0.000 N 
ATOM     13  H   UNL     1      44.267   2.205  11.365  0.00  0.00    +0.000 HD
BRANCH  12  14
ATOM     14  C   UNL     1      44.459   2.746   9.386  0.00  0.00    +0.000 C 
BRANCH  14  15
ATOM     15  C   UNL     1      45.613   2.365   8.467  0.00  0.00    +0.000 A 
ATOM     16  N   UNL     1      45.976   1.062   8.405  0.00  0.00    +0.000 NA
ATOM     17  C   UNL     1      46.983   0.761   7.564  0.00  0.00    +0.000 A 
ATOM     18  C   UNL     1      47.616   1.690   6.772  0.00  0.00    +0.000 A 
ATOM     19  C   UNL     1      47.155   2.979   6.884  0.00  0.00    +0.000 A 
ATOM     20  N   UNL     1      46.157   3.343   7.710  0.00  0.00    +0.000 NA
ENDBRANCH  14  15
ENDBRANCH  12  14
ENDBRANCH   4  12
TORSDOF 4
ENDMDL
MODEL 4
REMARK VINA RESULT:    -5.819      3.211      6.483
REMARK INTER + INTRA:          -7.608
REMARK INTER:                  -7.282
REMARK INTRA:                  -0.325
REMARK UNBOUND:                -0.427
REMARK  Name = 
REMARK  4 active torsions:
REMARK  status: ('A' for Active; 'I' for Inactive)
REMARK    1  A    between atoms: C_2  and  C_4
REMARK    2  A    between atoms: C_7  and  N_8
REMARK    3  A    between atoms: N_8  and  C_9
REMARK    4  A    between atoms: C_9  and  C_10
REMARK                            x       y       z     vdW  Elec       q    Type
REMARK                         _______ _______ _______ _____ _____    ______ ____
ROOT
ATOM      1  C   UNL     1      47.815   6.350  14.083  0.00  0.00    +0.000 A 
ATOM      2  C   UNL     1      46.991   5.245  13.851  0.00  0.00    +0.000 A 
ATOM      3  C   UNL     1      46.226   5.174  12.680  0.00  0.00    +0.000 A 
ATOM      4  C   UNL     1      46.256   6.206  11.735  0.00  0.00    +0.000 A 
ATOM      5  C   UNL     1      47.129   7.279  11.957  0.00  0.00    +0.000 A 
ATOM      6  C   UNL     1      47.882   7.368  13.131  0.00  0.00    +0.000 A 
ENDROOT
BRANCH   1   8
ATOM      7  N   UNL     1      48.404   7.622  16.076  0.00  0.00    +0.000 N 
ATOM      8  C   UNL     1      48.607   6.494  15.331  0.00  0.00    +0.000 C 
ATOM      9  O   UNL     1      49.389   5.627  15.704  0.00  0.00    +0.000 OA
ATOM     10  H   UNL     1      48.869   7.650  16.974  0.00  0.00    +0.000 HD
ATOM     11  H   UNL     1      47.596   8.213  15.946  0.00  0.00    +0.000 HD
ENDBRANCH   1   8
BRANCH   4  12
ATOM     12  N   UNL     1      45.520   6.206  10.552  0.00  0.00    +0.000 N 
ATOM     13  H   UNL     1      46.098   6.394   9.732  0.00  0.00    +0.000 HD
BRANCH  12  14
ATOM     14  C   UNL     1      44.597   5.094  10.284  0.00  0.00    +0.000 C 
BRANCH  14  15
ATOM     15  C   UNL     1      45.176   4.099   9.287  0.00  0.00    +0.000 A 
ATOM     16  N   UNL     1      45.883   4.583   8.239  0.00  0.00    +0.000 NA
ATOM     17  C   UNL     1      46.399   3.671   7.393  0.00  0.00    +0.000 A 
ATOM     18  C   UNL     1      46.263   2.314   7.562  0.00  0.00    +0.000 A 
ATOM     19  C   UNL     1      45.555   1.922   8.672  0.00  0.00    +0.000 A 
ATOM     20  N   UNL     1      45.011   2.784   9.550  0.00  0.00    +0.000 NA
ENDBRANCH  14  15
ENDBRANCH  12  14
ENDBRANCH   4  12
TORSDOF 4
ENDMDL
MODEL 5
REMARK VINA RESULT:    -5.599      3.832      5.755
REMARK INTER + INTRA:          -7.335
REMARK INTER:                  -7.056
REMARK INTRA:                  -0.279
REMARK UNBOUND:                -0.427
REMARK  Name = 
REMARK  4 active torsions:
REMARK  status: ('A' for Active; 'I' for Inactive)
REMARK    1  A    between atoms: C_2  and  C_4
REMARK    2  A    between atoms: C_7  and  N_8
REMARK    3  A    between atoms: N_8  and  C_9
REMARK    4  A    between atoms: C_9  and  C_10
REMARK                            x       y       z     vdW  Elec       q    Type
REMARK                         _______ _______ _______ _____ _____    ______ ____
ROOT
ATOM      1  C   UNL     1      45.401   4.851  11.560  0.00  0.00    +0.000 A 
ATOM      2  C   UNL     1      45.925   6.096  11.919  0.00  0.00    +0.000 A 
ATOM      3  C   UNL     1      46.615   6.244  13.129  0.00  0.00    +0.000 A 
ATOM      4  C   UNL     1      46.778   5.164  14.003  0.00  0.00    +0.000 A 
ATOM      5  C   UNL     1      46.296   3.912  13.602  0.00  0.00    +0.000 A 
ATOM      6  C   UNL     1      45.589   3.757  12.407  0.00  0.00    +0.000 A 
ENDROOT
BRANCH   1   8
ATOM      7  N   UNL     1      45.215   5.017   9.136  0.00  0.00    +0.000 N 
ATOM      8  C   UNL     1      44.620   4.654  10.312  0.00  0.00    +0.000 C 
ATOM      9  O   UNL     1      43.499   4.158  10.323  0.00  0.00    +0.000 OA
ATOM     10  H   UNL     1      44.713   4.774   8.292  0.00  0.00    +0.000 HD
ATOM     11  H   UNL     1      46.210   5.173   9.063  0.00  0.00    +0.000 HD
ENDBRANCH   1   8
BRANCH   4  12
ATOM     12  N   UNL     1      47.448   5.238  15.223  0.00  0.00    +0.000 N 
ATOM     13  H   UNL     1      47.285   6.124  15.705  0.00  0.00    +0.000 HD
BRANCH  12  14
ATOM     14  C   UNL     1      47.343   4.116  16.165  0.00  0.00    +0.000 C 
BRANCH  14  15
ATOM     15  C   UNL     1      48.705   3.682  16.692  0.00  0.00    +0.000 A 
ATOM     16  N   UNL     1      49.041   2.375  16.592  0.00  0.00    +0.000 NA
ATOM     17  C   UNL     1      50.262   2.034  17.047  0.00  0.00    +0.000 A 
ATOM     18  C   UNL     1      51.160   2.938  17.564  0.00  0.00    +0.000 A 
ATOM     19  C   UNL     1      50.738   4.244  17.593  0.00  0.00    +0.000 A 
ATOM     20  N   UNL     1      49.529   4.645  17.160  0.00  0.00    +0.000 NA
ENDBRANCH  14  15
ENDBRANCH  12  14
ENDBRANCH   4  12
TORSDOF 4
ENDMDL
MODEL 6
REMARK VINA RESULT:    -5.576      3.280      6.690
REMARK INTER + INTRA:          -7.308
REMARK INTER:                  -7.055
REMARK INTRA:                  -0.253
REMARK UNBOUND:                -0.427
REMARK  Name = 
REMARK  4 active torsions:
REMARK  status: ('A' for Active; 'I' for Inactive)
REMARK    1  A    between atoms: C_2  and  C_4
REMARK    2  A    between atoms: C_7  and  N_8
REMARK    3  A    between atoms: N_8  and  C_9
REMARK    4  A    between atoms: C_9  and  C_10
REMARK                            x       y       z     vdW  Elec       q    Type
REMARK                         _______ _______ _______ _____ _____    ______ ____
ROOT
ATOM      1  C   UNL     1      47.672   5.249  15.232  0.00  0.00    +0.000 A 
ATOM      2  C   UNL     1      48.219   6.398  14.656  0.00  0.00    +0.000 A 
ATOM      3  C   UNL     1      47.852   6.774  13.358  0.00  0.00    +0.000 A 
ATOM      4  C   UNL     1      46.953   6.006  12.611  0.00  0.00    +0.000 A 
ATOM      5  C   UNL     1      46.372   4.888  13.225  0.00  0.00    +0.000 A 
ATOM      6  C   UNL     1      46.746   4.494  14.512  0.00  0.00    +0.000 A 
ENDROOT
BRANCH   1   8
ATOM      7  N   UNL     1      47.231   5.089  17.624  0.00  0.00    +0.000 N 
ATOM      8  C   UNL     1      48.066   4.783  16.587  0.00  0.00    +0.000 C 
ATOM      9  O   UNL     1      49.081   4.120  16.772  0.00  0.00    +0.000 OA
ATOM     10  H   UNL     1      47.459   4.670  18.516  0.00  0.00    +0.000 HD
ATOM     11  H   UNL     1      46.279   5.391  17.475  0.00  0.00    +0.000 HD
ENDBRANCH   1   8
BRANCH   4  12
ATOM     12  N   UNL     1      46.546   6.315  11.314  0.00  0.00    +0.000 N 
ATOM     13  H   UNL     1      47.242   6.054  10.614  0.00  0.00    +0.000 HD
BRANCH  12  14
ATOM     14  C   UNL     1      45.202   5.919  10.874  0.00  0.00    +0.000 C 
BRANCH  14  15
ATOM     15  C   UNL     1      45.241   4.739   9.910  0.00  0.00    +0.000 A 
ATOM     16  N   UNL     1      44.613   3.596  10.274  0.00  0.00    +0.000 NA
ATOM     17  C   UNL     1      44.649   2.585   9.386  0.00  0.00    +0.000 A 
ATOM     18  C   UNL     1      45.254   2.675   8.155  0.00  0.00    +0.000 A 
ATOM     19  C   UNL     1      45.836   3.885   7.867  0.00  0.00    +0.000 A 
ATOM     20  N   UNL     1      45.839   4.930   8.714  0.00  0.00    +0.000 NA
ENDBRANCH  14  15
ENDBRANCH  12  14
ENDBRANCH   4  12
TORSDOF 4
ENDMDL
MODEL 7
REMARK VINA RESULT:    -5.451      3.183      4.928
REMARK INTER + INTRA:          -7.153
REMARK INTER:                  -6.830
REMARK INTRA:                  -0.323
REMARK UNBOUND:                -0.427
REMARK  Name = 
REMARK  4 active torsions:
REMARK  status: ('A' for Active; 'I' for Inactive)
REMARK    1  A    between atoms: C_2  and  C_4
REMARK    2  A    between atoms: C_7  and  N_8
REMARK    3  A    between atoms: N_8  and  C_9
REMARK    4  A    between atoms: C_9  and  C_10
REMARK                            x       y       z     vdW  Elec       q    Type
REMARK                         _______ _______ _______ _____ _____    ______ ____
ROOT
ATOM      1  C   UNL     1      44.903   4.705  11.045  0.00  0.00    +0.000 A 
ATOM      2  C   UNL     1      44.876   4.397  12.407  0.00  0.00    +0.000 A 
ATOM      3  C   UNL     1      45.572   5.199  13.321  0.00  0.00    +0.000 A 
ATOM      4  C   UNL     1      46.316   6.303  12.892  0.00  0.00    +0.000 A 
ATOM      5  C   UNL     1      46.286   6.629  11.529  0.00  0.00    +0.000 A 
ATOM      6  C   UNL     1      45.611   5.824  10.607  0.00  0.00    +0.000 A 
ENDROOT
BRANCH   1   8
ATOM      7  N   UNL     1      44.146   4.343   8.756  0.00  0.00    +0.000 N 
ATOM      8  C   UNL     1      44.223   3.857  10.032  0.00  0.00    +0.000 C 
ATOM      9  O   UNL     1      43.773   2.752  10.312  0.00  0.00    +0.000 OA
ATOM     10  H   UNL     1      43.779   3.707   8.061  0.00  0.00    +0.000 HD
ATOM     11  H   UNL     1      44.725   5.106   8.437  0.00  0.00    +0.000 HD
ENDBRANCH   1   8
BRANCH   4  12
ATOM     12  N   UNL     1      47.035   7.142  13.741  0.00  0.00    +0.000 N 
ATOM     13  H   UNL     1      46.505   7.402  14.574  0.00  0.00    +0.000 HD
BRANCH  12  14
ATOM     14  C   UNL     1      48.412   6.780  14.103  0.00  0.00    +0.000 C 
BRANCH  14  15
ATOM     15  C   UNL     1      48.522   6.326  15.553  0.00  0.00    +0.000 A 
ATOM     16  N   UNL     1      48.219   5.039  15.844  0.00  0.00    +0.000 NA
ATOM     17  C   UNL     1      48.350   4.669  17.132  0.00  0.00    +0.000 A 
ATOM     18  C   UNL     1      48.793   5.512  18.124  0.00  0.00    +0.000 A 
ATOM     19  C   UNL     1      49.105   6.788  17.723  0.00  0.00    +0.000 A 
ATOM     20  N   UNL     1      48.988   7.219  16.454  0.00  0.00    +0.000 NA
ENDBRANCH  14  15
ENDBRANCH  12  14
ENDBRANCH   4  12
TORSDOF 4
ENDMDL
MODEL 8
REMARK VINA RESULT:    -5.325      3.629      6.433
REMARK INTER + INTRA:          -6.997
REMARK INTER:                  -6.668
REMARK INTRA:                  -0.329
REMARK UNBOUND:                -0.427
REMARK  Name = 
REMARK  4 active torsions:
REMARK  status: ('A' for Active; 'I' for Inactive)
REMARK    1  A    between atoms: C_2  and  C_4
REMARK    2  A    between atoms: C_7  and  N_8
REMARK    3  A    between atoms: N_8  and  C_9
REMARK    4  A    between atoms: C_9  and  C_10
REMARK                            x       y       z     vdW  Elec       q    Type
REMARK                         _______ _______ _______ _____ _____    ______ ____
ROOT
ATOM      1  C   UNL     1      48.824   7.190  13.331  0.00  0.00    +0.000 A 
ATOM      2  C   UNL     1      48.327   7.465  12.054  0.00  0.00    +0.000 A 
ATOM      3  C   UNL     1      47.160   6.835  11.605  0.00  0.00    +0.000 A 
ATOM      4  C   UNL     1      46.482   5.912  12.410  0.00  0.00    +0.000 A 
ATOM      5  C   UNL     1      46.963   5.691  13.707  0.00  0.00    +0.000 A 
ATOM      6  C   UNL     1      48.138   6.299  14.158  0.00  0.00    +0.000 A 
ENDROOT
BRANCH   1   8
ATOM      7  N   UNL     1      51.076   8.026  12.922  0.00  0.00    +0.000 N 
ATOM      8  C   UNL     1      50.084   7.795  13.834  0.00  0.00    +0.000 C 
ATOM      9  O   UNL     1      50.226   8.108  15.010  0.00  0.00    +0.000 OA
ATOM     10  H   UNL     1      51.880   8.537  13.261  0.00  0.00    +0.000 HD
ATOM     11  H   UNL     1      50.901   8.030  11.928  0.00  0.00    +0.000 HD
ENDBRANCH   1   8
BRANCH   4  12
ATOM     12  N   UNL     1      45.320   5.245  12.029  0.00  0.00    +0.000 N 
ATOM     13  H   UNL     1      44.589   5.296  12.740  0.00  0.00    +0.000 HD
BRANCH  12  14
ATOM     14  C   UNL     1      44.756   5.496  10.696  0.00  0.00    +0.000 C 
BRANCH  14  15
ATOM     15  C   UNL     1      45.163   4.425   9.692  0.00  0.00    +0.000 A 
ATOM     16  N   UNL     1      44.867   3.136   9.978  0.00  0.00    +0.000 NA
ATOM     17  C   UNL     1      45.220   2.222   9.055  0.00  0.00    +0.000 A 
ATOM     18  C   UNL     1      45.825   2.539   7.862  0.00  0.00    +0.000 A 
ATOM     19  C   UNL     1      46.055   3.877   7.651  0.00  0.00    +0.000 A 
ATOM     20  N   UNL     1      45.731   4.837   8.536  0.00  0.00    +0.000 NA
ENDBRANCH  14  15
ENDBRANCH  12  14
ENDBRANCH   4  12
TORSDOF 4
ENDMDL
MODEL 9
REMARK VINA RESULT:    -5.211      4.908      8.133
REMARK INTER + INTRA:          -6.857
REMARK INTER:                  -6.652
REMARK INTRA:                  -0.205
REMARK UNBOUND:                -0.427
REMARK  Name = 
REMARK  4 active torsions:
REMARK  status: ('A' for Active; 'I' for Inactive)
REMARK    1  A    between atoms: C_2  and  C_4
REMARK    2  A    between atoms: C_7  and  N_8
REMARK    3  A    between atoms: N_8  and  C_9
REMARK    4  A    between atoms: C_9  and  C_10
REMARK                            x       y       z     vdW  Elec       q    Type
REMARK                         _______ _______ _______ _____ _____    ______ ____
ROOT
ATOM      1  C   UNL     1      49.796   4.248  17.632  0.00  0.00    +0.000 A 
ATOM      2  C   UNL     1      49.412   5.468  17.069  0.00  0.00    +0.000 A 
ATOM      3  C   UNL     1      48.302   5.529  16.217  0.00  0.00    +0.000 A 
ATOM      4  C   UNL     1      47.571   4.378  15.901  0.00  0.00    +0.000 A 
ATOM      5  C   UNL     1      47.937   3.175  16.519  0.00  0.00    +0.000 A 
ATOM      6  C   UNL     1      49.055   3.100  17.354  0.00  0.00    +0.000 A 
ENDROOT
BRANCH   1   8
ATOM      7  N   UNL     1      51.717   2.967  18.413  0.00  0.00    +0.000 N 
ATOM      8  C   UNL     1      50.995   4.124  18.501  0.00  0.00    +0.000 C 
ATOM      9  O   UNL     1      51.349   5.031  19.247  0.00  0.00    +0.000 OA
ATOM     10  H   UNL     1      52.587   2.947  18.928  0.00  0.00    +0.000 HD
ATOM     11  H   UNL     1      51.614   2.328  17.638  0.00  0.00    +0.000 HD
ENDBRANCH   1   8
BRANCH   4  12
ATOM     12  N   UNL     1      46.461   4.362  15.060  0.00  0.00    +0.000 N 
ATOM     13  H   UNL     1      45.828   5.144  15.233  0.00  0.00    +0.000 HD
BRANCH  12  14
ATOM     14  C   UNL     1      46.661   4.175  13.616  0.00  0.00    +0.000 C 
BRANCH  14  15
ATOM     15  C   UNL     1      45.349   4.234  12.845  0.00  0.00    +0.000 A 
ATOM     16  N   UNL     1      45.015   5.398  12.240  0.00  0.00    +0.000 NA
ATOM     17  C   UNL     1      43.861   5.404  11.548  0.00  0.00    +0.000 A 
ATOM     18  C   UNL     1      43.049   4.302  11.413  0.00  0.00    +0.000 A 
ATOM     19  C   UNL     1      43.490   3.161  12.037  0.00  0.00    +0.000 A 
ATOM     20  N   UNL     1      44.630   3.094  12.748  0.00  0.00    +0.000 NA
ENDBRANCH  14  15
ENDBRANCH  12  14
ENDBRANCH   4  12
TORSDOF 4
ENDMDL
