MODEL 1
REMARK VINA RESULT:    -8.222      0.000      0.000
REMARK INTER + INTRA:         -11.683
REMARK INTER:                 -10.866
REMARK INTRA:                  -0.817
REMARK UNBOUND:                -0.817
REMARK  Name = 
REMARK  6 active torsions:
REMARK  status: ('A' for Active; 'I' for Inactive)
REMARK    1  A    between atoms: N_1  and  C_2
REMARK    2  A    between atoms: C_2  and  C_3
REMARK    3  A    between atoms: C_3  and  C_4
REMARK    4  A    between atoms: C_7  and  C_8
REMARK    5  A    between atoms: C_8  and  N_9
REMARK    6  A    between atoms: C_15  and  C_16
REMARK                            x       y       z     vdW  Elec       q    Type
REMARK                         _______ _______ _______ _____ _____    ______ ____
ROOT
ATOM      1  N   UNL     1      43.868   5.806  11.607  0.00  0.00    +0.000 N 
ATOM      2  C   UNL     1      43.706   7.098  11.154  0.00  0.00    +0.000 A 
ATOM      3  C   UNL     1      44.839   7.804  11.487  0.00  0.00    +0.000 A 
ATOM      4  C   UNL     1      45.643   6.970  12.307  0.00  0.00    +0.000 A 
ATOM      5  C   UNL     1      46.892   7.134  12.916  0.00  0.00    +0.000 A 
ATOM      6  N   UNL     1      47.380   6.193  13.756  0.00  0.00    +0.000 NA
ATOM      7  C   UNL     1      46.624   5.079  13.993  0.00  0.00    +0.000 A 
ATOM      8  C   UNL     1      45.412   4.790  13.370  0.00  0.00    +0.000 A 
ATOM      9  C   UNL     1      44.942   5.771  12.487  0.00  0.00    +0.000 A 
ENDROOT
BRANCH   7  10
ATOM     10  C   UNL     1      47.186   4.148  15.023  0.00  0.00    +0.000 C 
ATOM     11  N   UNL     1      47.198   4.639  16.301  0.00  0.00    +0.000 N 
ATOM     12  O   UNL     1      47.594   3.021  14.754  0.00  0.00    +0.000 OA
ATOM     13  H   UNL     1      46.799   5.556  16.476  0.00  0.00    +0.000 HD
ATOM     14  H   UNL     1      47.502   4.054  17.066  0.00  0.00    +0.000 HD
ENDBRANCH   7  10
BRANCH   1  15
ATOM     15  C   UNL     1      43.389   4.648  10.846  0.00  0.00    +0.000 C 
BRANCH  15  19
ATOM     16  C   UNL     1      45.966   2.510   8.208  0.00  0.00    +0.000 A 
ATOM     17  C   UNL     1      45.918   3.897   8.111  0.00  0.00    +0.000 A 
ATOM     18  C   UNL     1      45.132   4.616   9.014  0.00  0.00    +0.000 A 
ATOM     19  C   UNL     1      44.395   3.941   9.986  0.00  0.00    +0.000 A 
ATOM     20  C   UNL     1      44.521   2.555  10.020  0.00  0.00    +0.000 A 
ATOM     21  N   UNL     1      45.277   1.833   9.158  0.00  0.00    +0.000 NA
BRANCH  16  22
ATOM     22  C   UNL     1      46.782   1.692   7.235  0.00  0.00    +0.000 C 
BRANCH  22  23
ATOM     23  C   UNL     1      47.881   2.520   6.559  0.00  0.00    +0.000 C 
BRANCH  23  24
ATOM     24  N   UNL     1      48.590   1.732   5.546  0.00  0.00    +0.000 NA
ATOM     25  H   UNL     1      49.061   0.948   5.998  0.00  0.00    +0.000 HD
ATOM     26  H   UNL     1      49.332   2.301   5.137  0.00  0.00    +0.000 HD
ENDBRANCH  23  24
ENDBRANCH  22  23
ENDBRANCH  16  22
ENDBRANCH  15  19
ENDBRANCH   1  15
TORSDOF 6
ENDMDL
MODEL 2
REMARK VINA RESULT:    -7.215      2.438      6.875
REMARK INTER + INTRA:         -10.353
REMARK INTER:                 -10.383
REMARK INTRA:                   0.030
REMARK UNBOUND:                -0.817
REMARK  Name = 
REMARK  6 active torsions:
REMARK  status: ('A' for Active; 'I' for Inactive)
REMARK    1  A    between atoms: N_1  and  C_2
REMARK    2  A    between atoms: C_2  and  C_3
REMARK    3  A    between atoms: C_3  and  C_4
REMARK    4  A    between atoms: C_7  and  C_8
REMARK    5  A    between atoms: C_8  and  N_9
REMARK    6  A    between atoms: C_15  and  C_16
REMARK                            x       y       z     vdW  Elec       q    Type
REMARK                         _______ _______ _______ _____ _____    ______ ____
ROOT
ATOM      1  N   UNL     1      44.809   4.816  10.156  0.00  0.00    +0.000 N 
ATOM      2  C   UNL     1      43.771   4.248  10.864  0.00  0.00    +0.000 A 
ATOM      3  C   UNL     1      43.770   2.898  10.597  0.00  0.00    +0.000 A 
ATOM      4  C   UNL     1      44.726   2.659   9.575  0.00  0.00    +0.000 A 
ATOM      5  C   UNL     1      45.170   1.503   8.924  0.00  0.00    +0.000 A 
ATOM      6  N   UNL     1      46.031   1.584   7.883  0.00  0.00    +0.000 NA
ATOM      7  C   UNL     1      46.456   2.822   7.487  0.00  0.00    +0.000 A 
ATOM      8  C   UNL     1      46.135   4.018   8.125  0.00  0.00    +0.000 A 
ATOM      9  C   UNL     1      45.261   3.902   9.213  0.00  0.00    +0.000 A 
ENDROOT
BRANCH   7  10
ATOM     10  C   UNL     1      47.312   2.825   6.257  0.00  0.00    +0.000 C 
ATOM     11  N   UNL     1      48.643   2.588   6.479  0.00  0.00    +0.000 N 
ATOM     12  O   UNL     1      46.862   3.011   5.130  0.00  0.00    +0.000 OA
ATOM     13  H   UNL     1      48.952   2.388   7.425  0.00  0.00    +0.000 HD
ATOM     14  H   UNL     1      49.280   2.512   5.700  0.00  0.00    +0.000 HD
ENDBRANCH   7  10
BRANCH   1  15
ATOM     15  C   UNL     1      45.625   5.901  10.708  0.00  0.00    +0.000 C 
BRANCH  15  19
ATOM     16  C   UNL     1      47.234   5.161  14.585  0.00  0.00    +0.000 A 
ATOM     17  C   UNL     1      47.589   6.338  13.932  0.00  0.00    +0.000 A 
ATOM     18  C   UNL     1      47.016   6.626  12.691  0.00  0.00    +0.000 A 
ATOM     19  C   UNL     1      46.113   5.733  12.116  0.00  0.00    +0.000 A 
ATOM     20  C   UNL     1      45.802   4.593  12.854  0.00  0.00    +0.000 A 
ATOM     21  N   UNL     1      46.341   4.289  14.059  0.00  0.00    +0.000 NA
BRANCH  16  22
ATOM     22  C   UNL     1      47.849   4.798  15.916  0.00  0.00    +0.000 C 
BRANCH  22  23
ATOM     23  C   UNL     1      47.627   3.324  16.276  0.00  0.00    +0.000 C 
BRANCH  23  24
ATOM     24  N   UNL     1      46.635   3.185  17.346  0.00  0.00    +0.000 NA
ATOM     25  H   UNL     1      46.463   2.193  17.519  0.00  0.00    +0.000 HD
ATOM     26  H   UNL     1      45.743   3.568  17.030  0.00  0.00    +0.000 HD
ENDBRANCH  23  24
ENDBRANCH  22  23
ENDBRANCH  16  22
ENDBRANCH  15  19
ENDBRANCH   1  15
TORSDOF 6
ENDMDL
MODEL 3
REMARK VINA RESULT:    -6.783      2.345      6.602
REMARK INTER + INTRA:          -9.781
REMARK INTER:                  -8.916
REMARK INTRA:                  -0.866
REMARK UNBOUND:                -0.817
REMARK  Name = 
REMARK  6 active torsions:
REMARK  status: ('A' for Active; 'I' for Inactive)
REMARK    1  A    between atoms: N_1  and  C_2
REMARK    2  A    between atoms: C_2  and  C_3
REMARK    3  A    between atoms: C_3  and  C_4
REMARK    4  A    between atoms: C_7  and  C_8
REMARK    5  A    between atoms: C_8  and  N_9
REMARK    6  A    between atoms: C_15  and  C_16
REMARK                            x       y       z     vdW  Elec       q    Type
REMARK                         _______ _______ _______ _____ _____    ______ ____
ROOT
ATOM      1  N   UNL     1      45.437   5.842  12.197  0.00  0.00    +0.000 N 
ATOM      2  C   UNL     1      44.356   6.274  12.935  0.00  0.00    +0.000 A 
ATOM      3  C   UNL     1      43.366   5.325  12.824  0.00  0.00    +0.000 A 
ATOM      4  C   UNL     1      43.789   4.369  11.862  0.00  0.00    +0.000 A 
ATOM      5  C   UNL     1      43.222   3.194  11.360  0.00  0.00    +0.000 A 
ATOM      6  N   UNL     1      43.809   2.524  10.340  0.00  0.00    +0.000 NA
ATOM      7  C   UNL     1      44.969   3.026   9.818  0.00  0.00    +0.000 A 
ATOM      8  C   UNL     1      45.649   4.139  10.306  0.00  0.00    +0.000 A 
ATOM      9  C   UNL     1      45.032   4.798  11.377  0.00  0.00    +0.000 A 
ENDROOT
BRANCH   7  10
ATOM     10  C   UNL     1      45.486   2.289   8.620  0.00  0.00    +0.000 C 
ATOM     11  N   UNL     1      45.755   3.074   7.531  0.00  0.00    +0.000 N 
ATOM     12  O   UNL     1      45.671   1.075   8.611  0.00  0.00    +0.000 OA
ATOM     13  H   UNL     1      45.635   4.078   7.611  0.00  0.00    +0.000 HD
ATOM     14  H   UNL     1      46.165   2.667   6.702  0.00  0.00    +0.000 HD
ENDBRANCH   7  10
BRANCH   1  15
ATOM     15  C   UNL     1      46.817   6.050  12.644  0.00  0.00    +0.000 C 
BRANCH  15  19
ATOM     16  C   UNL     1      48.109   4.271  16.296  0.00  0.00    +0.000 A 
ATOM     17  C   UNL     1      48.442   5.600  16.049  0.00  0.00    +0.000 A 
ATOM     18  C   UNL     1      47.968   6.216  14.889  0.00  0.00    +0.000 A 
ATOM     19  C   UNL     1      47.184   5.496  13.989  0.00  0.00    +0.000 A 
ATOM     20  C   UNL     1      46.884   4.180  14.330  0.00  0.00    +0.000 A 
ATOM     21  N   UNL     1      47.330   3.558  15.448  0.00  0.00    +0.000 NA
BRANCH  16  22
ATOM     22  C   UNL     1      48.623   3.558  17.524  0.00  0.00    +0.000 C 
BRANCH  22  23
ATOM     23  C   UNL     1      49.873   2.722  17.230  0.00  0.00    +0.000 C 
BRANCH  23  24
ATOM     24  N   UNL     1      49.624   1.756  16.156  0.00  0.00    +0.000 NA
ATOM     25  H   UNL     1      49.661   0.810  16.538  0.00  0.00    +0.000 HD
ATOM     26  H   UNL     1      50.383   1.808  15.475  0.00  0.00    +0.000 HD
ENDBRANCH  23  24
ENDBRANCH  22  23
ENDBRANCH  16  22
ENDBRANCH  15  19
ENDBRANCH   1  15
TORSDOF 6
ENDMDL
MODEL 4
REMARK VINA RESULT:    -6.665      3.289      7.339
REMARK INTER + INTRA:          -9.625
REMARK INTER:                  -8.984
REMARK INTRA:                  -0.642
REMARK UNBOUND:                -0.817
REMARK  Name = 
REMARK  6 active torsions:
REMARK  status: ('A' for Active; 'I' for Inactive)
REMARK    1  A    between atoms: N_1  and  C_2
REMARK    2  A    between atoms: C_2  and  C_3
REMARK    3  A    between atoms: C_3  and  C_4
REMARK    4  A    between atoms: C_7  and  C_8
REMARK    5  A    between atoms: C_8  and  N_9
REMARK    6  A    between atoms: C_15  and  C_16
REMARK                            x       y       z     vdW  Elec       q    Type
REMARK                         _______ _______ _______ _____ _____    ______ ____
ROOT
ATOM      1  N   UNL     1      47.188   4.871  14.339  0.00  0.00    +0.000 N 
ATOM      2  C   UNL     1      47.867   6.060  14.181  0.00  0.00    +0.000 A 
ATOM      3  C   UNL     1      47.239   6.773  13.187  0.00  0.00    +0.000 A 
ATOM      4  C   UNL     1      46.251   5.932  12.609  0.00  0.00    +0.000 A 
ATOM      5  C   UNL     1      45.307   6.114  11.594  0.00  0.00    +0.000 A 
ATOM      6  N   UNL     1      44.551   5.079  11.160  0.00  0.00    +0.000 NA
ATOM      7  C   UNL     1      44.734   3.854  11.740  0.00  0.00    +0.000 A 
ATOM      8  C   UNL     1      45.587   3.597  12.810  0.00  0.00    +0.000 A 
ATOM      9  C   UNL     1      46.339   4.692  13.254  0.00  0.00    +0.000 A 
ENDROOT
BRANCH   7  10
ATOM     10  C   UNL     1      43.941   2.744  11.120  0.00  0.00    +0.000 C 
ATOM     11  N   UNL     1      44.434   2.276   9.931  0.00  0.00    +0.000 N 
ATOM     12  O   UNL     1      42.933   2.272  11.639  0.00  0.00    +0.000 OA
ATOM     13  H   UNL     1      45.301   2.666   9.574  0.00  0.00    +0.000 HD
ATOM     14  H   UNL     1      43.997   1.488   9.476  0.00  0.00    +0.000 HD
ENDBRANCH   7  10
BRANCH   1  15
ATOM     15  C   UNL     1      46.980   4.262  15.656  0.00  0.00    +0.000 C 
BRANCH  15  19
ATOM     16  C   UNL     1      50.628   2.898  17.389  0.00  0.00    +0.000 A 
ATOM     17  C   UNL     1      50.207   4.196  17.661  0.00  0.00    +0.000 A 
ATOM     18  C   UNL     1      48.981   4.634  17.157  0.00  0.00    +0.000 A 
ATOM     19  C   UNL     1      48.202   3.778  16.378  0.00  0.00    +0.000 A 
ATOM     20  C   UNL     1      48.695   2.491  16.177  0.00  0.00    +0.000 A 
ATOM     21  N   UNL     1      49.880   2.040  16.655  0.00  0.00    +0.000 NA
BRANCH  16  22
ATOM     22  C   UNL     1      51.960   2.393  17.892  0.00  0.00    +0.000 C 
BRANCH  22  23
ATOM     23  C   UNL     1      52.266   0.973  17.402  0.00  0.00    +0.000 C 
BRANCH  23  24
ATOM     24  N   UNL     1      51.667  -0.032  18.286  0.00  0.00    +0.000 NA
ATOM     25  H   UNL     1      51.062  -0.645  17.737  0.00  0.00    +0.000 HD
ATOM     26  H   UNL     1      51.054   0.432  18.957  0.00  0.00    +0.000 HD
ENDBRANCH  23  24
ENDBRANCH  22  23
ENDBRANCH  16  22
ENDBRANCH  15  19
ENDBRANCH   1  15
TORSDOF 6
ENDMDL
MODEL 5
REMARK VINA RESULT:    -6.585      2.664      6.661
REMARK INTER + INTRA:          -9.520
REMARK INTER:                  -8.581
REMARK INTRA:                  -0.939
REMARK UNBOUND:                -0.817
REMARK  Name = 
REMARK  6 active torsions:
REMARK  status: ('A' for Active; 'I' for Inactive)
REMARK    1  A    between atoms: N_1  and  C_2
REMARK    2  A    between atoms: C_2  and  C_3
REMARK    3  A    between atoms: C_3  and  C_4
REMARK    4  A    between atoms: C_7  and  C_8
REMARK    5  A    between atoms: C_8  and  N_9
REMARK    6  A    between atoms: C_15  and  C_16
REMARK                            x       y       z     vdW  Elec       q    Type
REMARK                         _______ _______ _______ _____ _____    ______ ____
ROOT
ATOM      1  N   UNL     1      46.517   7.181  11.662  0.00  0.00    +0.000 N 
ATOM      2  C   UNL     1      45.863   8.292  12.151  0.00  0.00    +0.000 A 
ATOM      3  C   UNL     1      44.518   8.008  12.178  0.00  0.00    +0.000 A 
ATOM      4  C   UNL     1      44.327   6.755  11.538  0.00  0.00    +0.000 A 
ATOM      5  C   UNL     1      43.202   5.962  11.291  0.00  0.00    +0.000 A 
ATOM      6  N   UNL     1      43.298   4.840  10.541  0.00  0.00    +0.000 NA
ATOM      7  C   UNL     1      44.522   4.502  10.034  0.00  0.00    +0.000 A 
ATOM      8  C   UNL     1      45.710   5.182  10.295  0.00  0.00    +0.000 A 
ATOM      9  C   UNL     1      45.584   6.325  11.094  0.00  0.00    +0.000 A 
ENDROOT
BRANCH   7  10
ATOM     10  C   UNL     1      44.515   3.314   9.121  0.00  0.00    +0.000 C 
ATOM     11  N   UNL     1      44.432   2.101   9.752  0.00  0.00    +0.000 N 
ATOM     12  O   UNL     1      44.564   3.410   7.898  0.00  0.00    +0.000 OA
ATOM     13  H   UNL     1      44.339   2.082  10.763  0.00  0.00    +0.000 HD
ATOM     14  H   UNL     1      44.359   1.252   9.210  0.00  0.00    +0.000 HD
ENDBRANCH   7  10
BRANCH   1  15
ATOM     15  C   UNL     1      47.818   6.752  12.185  0.00  0.00    +0.000 C 
BRANCH  15  19
ATOM     16  C   UNL     1      48.158   5.209  16.144  0.00  0.00    +0.000 A 
ATOM     17  C   UNL     1      48.777   6.419  15.847  0.00  0.00    +0.000 A 
ATOM     18  C   UNL     1      48.617   6.971  14.574  0.00  0.00    +0.000 A 
ATOM     19  C   UNL     1      47.857   6.301  13.615  0.00  0.00    +0.000 A 
ATOM     20  C   UNL     1      47.258   5.108  14.010  0.00  0.00    +0.000 A 
ATOM     21  N   UNL     1      47.396   4.551  15.238  0.00  0.00    +0.000 NA
BRANCH  16  22
ATOM     22  C   UNL     1      48.327   4.564  17.499  0.00  0.00    +0.000 C 
BRANCH  22  23
ATOM     23  C   UNL     1      47.980   3.071  17.480  0.00  0.00    +0.000 C 
BRANCH  23  24
ATOM     24  N   UNL     1      46.545   2.858  17.695  0.00  0.00    +0.000 NA
ATOM     25  H   UNL     1      46.077   2.775  16.792  0.00  0.00    +0.000 HD
ATOM     26  H   UNL     1      46.145   3.686  18.138  0.00  0.00    +0.000 HD
ENDBRANCH  23  24
ENDBRANCH  22  23
ENDBRANCH  16  22
ENDBRANCH  15  19
ENDBRANCH   1  15
TORSDOF 6
ENDMDL
MODEL 6
REMARK VINA RESULT:    -6.003      2.457      6.650
REMARK INTER + INTRA:          -8.750
REMARK INTER:                  -7.982
REMARK INTRA:                  -0.769
REMARK UNBOUND:                -0.817
REMARK  Name = 
REMARK  6 active torsions:
REMARK  status: ('A' for Active; 'I' for Inactive)
REMARK    1  A    between atoms: N_1  and  C_2
REMARK    2  A    between atoms: C_2  and  C_3
REMARK    3  A    between atoms: C_3  and  C_4
REMARK    4  A    between atoms: C_7  and  C_8
REMARK    5  A    between atoms: C_8  and  N_9
REMARK    6  A    between atoms: C_15  and  C_16
REMARK                            x       y       z     vdW  Elec       q    Type
REMARK                         _______ _______ _______ _____ _____    ______ ____
ROOT
ATOM      1  N   UNL     1      44.004   5.833  10.955  0.00  0.00    +0.000 N 
ATOM      2  C   UNL     1      42.979   5.386  11.761  0.00  0.00    +0.000 A 
ATOM      3  C   UNL     1      42.986   4.011  11.726  0.00  0.00    +0.000 A 
ATOM      4  C   UNL     1      43.932   3.608  10.746  0.00  0.00    +0.000 A 
ATOM      5  C   UNL     1      44.378   2.362  10.294  0.00  0.00    +0.000 A 
ATOM      6  N   UNL     1      45.226   2.272   9.243  0.00  0.00    +0.000 NA
ATOM      7  C   UNL     1      45.636   3.428   8.639  0.00  0.00    +0.000 A 
ATOM      8  C   UNL     1      45.313   4.712   9.070  0.00  0.00    +0.000 A 
ATOM      9  C   UNL     1      44.453   4.776  10.174  0.00  0.00    +0.000 A 
ENDROOT
BRANCH   7  10
ATOM     10  C   UNL     1      46.478   3.230   7.416  0.00  0.00    +0.000 C 
ATOM     11  N   UNL     1      47.124   2.024   7.348  0.00  0.00    +0.000 N 
ATOM     12  O   UNL     1      46.576   4.072   6.528  0.00  0.00    +0.000 OA
ATOM     13  H   UNL     1      46.966   1.343   8.084  0.00  0.00    +0.000 HD
ATOM     14  H   UNL     1      47.663   1.784   6.529  0.00  0.00    +0.000 HD
ENDBRANCH   7  10
BRANCH   1  15
ATOM     15  C   UNL     1      44.817   7.001  11.306  0.00  0.00    +0.000 C 
BRANCH  15  19
ATOM     16  C   UNL     1      48.007   6.579  14.102  0.00  0.00    +0.000 A 
ATOM     17  C   UNL     1      47.059   5.565  14.018  0.00  0.00    +0.000 A 
ATOM     18  C   UNL     1      46.047   5.656  13.059  0.00  0.00    +0.000 A 
ATOM     19  C   UNL     1      45.989   6.763  12.212  0.00  0.00    +0.000 A 
ATOM     20  C   UNL     1      46.993   7.716  12.355  0.00  0.00    +0.000 A 
ATOM     21  N   UNL     1      47.985   7.652  13.275  0.00  0.00    +0.000 NA
BRANCH  16  22
ATOM     22  C   UNL     1      49.102   6.533  15.141  0.00  0.00    +0.000 C 
BRANCH  22  23
ATOM     23  C   UNL     1      49.313   7.889  15.824  0.00  0.00    +0.000 C 
BRANCH  23  24
ATOM     24  N   UNL     1      50.402   8.638  15.190  0.00  0.00    +0.000 NA
ATOM     25  H   UNL     1      51.235   8.584  15.777  0.00  0.00    +0.000 HD
ATOM     26  H   UNL     1      50.153   9.627  15.154  0.00  0.00    +0.000 HD
ENDBRANCH  23  24
ENDBRANCH  22  23
ENDBRANCH  16  22
ENDBRANCH  15  19
ENDBRANCH   1  15
TORSDOF 6
ENDMDL
MODEL 7
REMARK VINA RESULT:    -5.978      3.411      5.449
REMARK INTER + INTRA:          -8.717
REMARK INTER:                  -7.936
REMARK INTRA:                  -0.781
REMARK UNBOUND:                -0.817
REMARK  Name = 
REMARK  6 active torsions:
REMARK  status: ('A' for Active; 'I' for Inactive)
REMARK    1  A    between atoms: N_1  and  C_2
REMARK    2  A    between atoms: C_2  and  C_3
REMARK    3  A    between atoms: C_3  and  C_4
REMARK    4  A    between atoms: C_7  and  C_8
REMARK    5  A    between atoms: C_8  and  N_9
REMARK    6  A    between atoms: C_15  and  C_16
REMARK                            x       y       z     vdW  Elec       q    Type
REMARK                         _______ _______ _______ _____ _____    ______ ____
ROOT
ATOM      1  N   UNL     1      48.464   7.173  14.667  0.00  0.00    +0.000 N 
ATOM      2  C   UNL     1      48.826   8.479  14.919  0.00  0.00    +0.000 A 
ATOM      3  C   UNL     1      49.338   8.533  16.195  0.00  0.00    +0.000 A 
ATOM      4  C   UNL     1      49.134   7.263  16.797  0.00  0.00    +0.000 A 
ATOM      5  C   UNL     1      49.459   6.729  18.048  0.00  0.00    +0.000 A 
ATOM      6  N   UNL     1      49.031   5.495  18.404  0.00  0.00    +0.000 NA
ATOM      7  C   UNL     1      48.277   4.786  17.510  0.00  0.00    +0.000 A 
ATOM      8  C   UNL     1      47.976   5.201  16.215  0.00  0.00    +0.000 A 
ATOM      9  C   UNL     1      48.451   6.471  15.865  0.00  0.00    +0.000 A 
ENDROOT
BRANCH   7  10
ATOM     10  C   UNL     1      47.751   3.484  18.029  0.00  0.00    +0.000 C 
ATOM     11  N   UNL     1      48.376   3.015  19.154  0.00  0.00    +0.000 N 
ATOM     12  O   UNL     1      46.819   2.882  17.503  0.00  0.00    +0.000 OA
ATOM     13  H   UNL     1      49.105   3.579  19.579  0.00  0.00    +0.000 HD
ATOM     14  H   UNL     1      48.044   2.175  19.606  0.00  0.00    +0.000 HD
ENDBRANCH   7  10
BRANCH   1  15
ATOM     15  C   UNL     1      48.653   6.553  13.352  0.00  0.00    +0.000 C 
BRANCH  15  19
ATOM     16  C   UNL     1      44.954   5.340  11.615  0.00  0.00    +0.000 A 
ATOM     17  C   UNL     1      45.559   6.502  11.146  0.00  0.00    +0.000 A 
ATOM     18  C   UNL     1      46.804   6.875  11.657  0.00  0.00    +0.000 A 
ATOM     19  C   UNL     1      47.418   6.093  12.636  0.00  0.00    +0.000 A 
ATOM     20  C   UNL     1      46.748   4.937  13.027  0.00  0.00    +0.000 A 
ATOM     21  N   UNL     1      45.541   4.552  12.548  0.00  0.00    +0.000 NA
BRANCH  16  22
ATOM     22  C   UNL     1      43.596   4.914  11.110  0.00  0.00    +0.000 C 
BRANCH  22  23
ATOM     23  C   UNL     1      42.453   5.545  11.913  0.00  0.00    +0.000 C 
BRANCH  23  24
ATOM     24  N   UNL     1      42.664   5.379  13.354  0.00  0.00    +0.000 NA
ATOM     25  H   UNL     1      42.293   6.193  13.845  0.00  0.00    +0.000 HD
ATOM     26  H   UNL     1      43.666   5.373  13.549  0.00  0.00    +0.000 HD
ENDBRANCH  23  24
ENDBRANCH  22  23
ENDBRANCH  16  22
ENDBRANCH  15  19
ENDBRANCH   1  15
TORSDOF 6
ENDMDL
MODEL 8
REMARK VINA RESULT:    -5.725      3.776      7.752
REMARK INTER + INTRA:          -8.384
REMARK INTER:                  -7.596
REMARK INTRA:                  -0.788
REMARK UNBOUND:                -0.817
REMARK  Name = 
REMARK  6 active torsions:
REMARK  status: ('A' for Active; 'I' for Inactive)
REMARK    1  A    between atoms: N_1  and  C_2
REMARK    2  A    between atoms: C_2  and  C_3
REMARK    3  A    between atoms: C_3  and  C_4
REMARK    4  A    between atoms: C_7  and  C_8
REMARK    5  A    between atoms: C_8  and  N_9
REMARK    6  A    between atoms: C_15  and  C_16
REMARK                            x       y       z     vdW  Elec       q    Type
REMARK                         _______ _______ _______ _____ _____    ______ ____
ROOT
ATOM      1  N   UNL     1      48.616   6.290  15.174  0.00  0.00    +0.000 N 
ATOM      2  C   UNL     1      49.337   7.346  14.658  0.00  0.00    +0.000 A 
ATOM      3  C   UNL     1      48.605   7.890  13.628  0.00  0.00    +0.000 A 
ATOM      4  C   UNL     1      47.486   7.046  13.400  0.00  0.00    +0.000 A 
ATOM      5  C   UNL     1      46.406   7.100  12.513  0.00  0.00    +0.000 A 
ATOM      6  N   UNL     1      45.525   6.076  12.435  0.00  0.00    +0.000 NA
ATOM      7  C   UNL     1      45.718   4.991  13.244  0.00  0.00    +0.000 A 
ATOM      8  C   UNL     1      46.712   4.885  14.213  0.00  0.00    +0.000 A 
ATOM      9  C   UNL     1      47.595   5.969  14.289  0.00  0.00    +0.000 A 
ENDROOT
BRANCH   7  10
ATOM     10  C   UNL     1      44.766   3.858  13.009  0.00  0.00    +0.000 C 
ATOM     11  N   UNL     1      45.314   2.761  12.396  0.00  0.00    +0.000 N 
ATOM     12  O   UNL     1      43.587   3.893  13.349  0.00  0.00    +0.000 OA
ATOM     13  H   UNL     1      46.307   2.765  12.185  0.00  0.00    +0.000 HD
ATOM     14  H   UNL     1      44.759   1.930  12.256  0.00  0.00    +0.000 HD
ENDBRANCH   7  10
BRANCH   1  15
ATOM     15  C   UNL     1      48.581   5.999  16.610  0.00  0.00    +0.000 C 
BRANCH  15  19
ATOM     16  C   UNL     1      51.708   3.348  17.779  0.00  0.00    +0.000 A 
ATOM     17  C   UNL     1      51.911   4.718  17.920  0.00  0.00    +0.000 A 
ATOM     18  C   UNL     1      50.870   5.595  17.606  0.00  0.00    +0.000 A 
ATOM     19  C   UNL     1      49.653   5.095  17.143  0.00  0.00    +0.000 A 
ATOM     20  C   UNL     1      49.536   3.711  17.055  0.00  0.00    +0.000 A 
ATOM     21  N   UNL     1      50.528   2.837  17.354  0.00  0.00    +0.000 NA
BRANCH  16  22
ATOM     22  C   UNL     1      52.815   2.366  18.082  0.00  0.00    +0.000 C 
BRANCH  22  23
ATOM     23  C   UNL     1      52.584   1.006  17.413  0.00  0.00    +0.000 C 
BRANCH  23  24
ATOM     24  N   UNL     1      51.654   0.183  18.193  0.00  0.00    +0.000 NA
ATOM     25  H   UNL     1      52.019  -0.768  18.258  0.00  0.00    +0.000 HD
ATOM     26  H   UNL     1      50.770   0.106  17.689  0.00  0.00    +0.000 HD
ENDBRANCH  23  24
ENDBRANCH  22  23
ENDBRANCH  16  22
ENDBRANCH  15  19
ENDBRANCH   1  15
TORSDOF 6
ENDMDL
MODEL 9
REMARK VINA RESULT:    -5.302      2.530      3.693
REMARK INTER + INTRA:          -7.823
REMARK INTER:                  -7.054
REMARK INTRA:                  -0.769
REMARK UNBOUND:                -0.817
REMARK  Name = 
REMARK  6 active torsions:
REMARK  status: ('A' for Active; 'I' for Inactive)
REMARK    1  A    between atoms: N_1  and  C_2
REMARK    2  A    between atoms: C_2  and  C_3
REMARK    3  A    between atoms: C_3  and  C_4
REMARK    4  A    between atoms: C_7  and  C_8
REMARK    5  A    between atoms: C_8  and  N_9
REMARK    6  A    between atoms: C_15  and  C_16
REMARK                            x       y       z     vdW  Elec       q    Type
REMARK                         _______ _______ _______ _____ _____    ______ ____
ROOT
ATOM      1  N   UNL     1      45.681   8.001  12.954  0.00  0.00    +0.000 N 
ATOM      2  C   UNL     1      45.017   9.035  12.330  0.00  0.00    +0.000 A 
ATOM      3  C   UNL     1      45.961   9.847  11.745  0.00  0.00    +0.000 A 
ATOM      4  C   UNL     1      47.241   9.391  12.159  0.00  0.00    +0.000 A 
ATOM      5  C   UNL     1      48.547   9.801  11.874  0.00  0.00    +0.000 A 
ATOM      6  N   UNL     1      49.601   9.243  12.513  0.00  0.00    +0.000 NA
ATOM      7  C   UNL     1      49.356   8.269  13.441  0.00  0.00    +0.000 A 
ATOM      8  C   UNL     1      48.101   7.739  13.728  0.00  0.00    +0.000 A 
ATOM      9  C   UNL     1      47.031   8.318  13.035  0.00  0.00    +0.000 A 
ENDROOT
BRANCH   7  10
ATOM     10  C   UNL     1      50.567   7.791  14.181  0.00  0.00    +0.000 C 
ATOM     11  N   UNL     1      51.762   8.044  13.560  0.00  0.00    +0.000 N 
ATOM     12  O   UNL     1      50.506   7.228  15.271  0.00  0.00    +0.000 OA
ATOM     13  H   UNL     1      51.758   8.560  12.686  0.00  0.00    +0.000 HD
ATOM     14  H   UNL     1      52.630   7.811  14.019  0.00  0.00    +0.000 HD
ENDBRANCH   7  10
BRANCH   1  15
ATOM     15  C   UNL     1      45.156   6.632  12.964  0.00  0.00    +0.000 C 
BRANCH  15  19
ATOM     16  C   UNL     1      44.742   4.520   9.285  0.00  0.00    +0.000 A 
ATOM     17  C   UNL     1      43.665   4.538  10.166  0.00  0.00    +0.000 A 
ATOM     18  C   UNL     1      43.761   5.283  11.343  0.00  0.00    +0.000 A 
ATOM     19  C   UNL     1      44.932   5.983  11.630  0.00  0.00    +0.000 A 
ATOM     20  C   UNL     1      45.948   5.924  10.680  0.00  0.00    +0.000 A 
ATOM     21  N   UNL     1      45.882   5.210   9.530  0.00  0.00    +0.000 NA
BRANCH  16  22
ATOM     22  C   UNL     1      44.691   3.706   8.014  0.00  0.00    +0.000 C 
BRANCH  22  23
ATOM     23  C   UNL     1      45.766   2.614   7.979  0.00  0.00    +0.000 C 
BRANCH  23  24
ATOM     24  N   UNL     1      45.654   1.723   9.137  0.00  0.00    +0.000 NA
ATOM     25  H   UNL     1      46.588   1.476   9.464  0.00  0.00    +0.000 HD
ATOM     26  H   UNL     1      45.222   0.845   8.845  0.00  0.00    +0.000 HD
ENDBRANCH  23  24
ENDBRANCH  22  23
ENDBRANCH  16  22
ENDBRANCH  15  19
ENDBRANCH   1  15
TORSDOF 6
ENDMDL
