MODEL 1
REMARK VINA RESULT:    -9.103      0.000      0.000
REMARK INTER + INTRA:         -11.749
REMARK INTER:                 -11.232
REMARK INTRA:                  -0.517
REMARK UNBOUND:                -0.517
REMARK  Name = 
REMARK  6 active torsions:
REMARK  status: ('A' for Active; 'I' for Inactive)
REMARK    1  A    between atoms: C_1  and  C_2
REMARK    2  A    between atoms: C_9  and  C_10
REMARK    3  A    between atoms: C_10  and  N_11
REMARK    4  A    between atoms: N_11  and  C_12
REMARK    5  A    between atoms: C_15  and  C_16
REMARK    6  A    between atoms: C_25  and  C_26
REMARK                            x       y       z     vdW  Elec       q    Type
REMARK                         _______ _______ _______ _____ _____    ______ ____
ROOT
ATOM      1  C   UNL     1      43.884   4.991  11.389  0.00  0.00    +0.000 C 
ATOM      2  C   UNL     1      43.244   6.351  11.197  0.00  0.00    +0.000 C 
ATOM      3  C   UNL     1      42.543   5.345  12.043  0.00  0.00    +0.000 C 
ENDROOT
BRANCH   1  12
ATOM      4  C   UNL     1      49.412   7.175  11.652  0.00  0.00    +0.000 C 
ATOM      5  C   UNL     1      49.216   8.148  12.812  0.00  0.00    +0.000 C 
ATOM      6  C   UNL     1      48.554   7.520  14.061  0.00  0.00    +0.000 C 
ATOM      7  N   UNL     1      47.114   7.347  13.881  0.00  0.00    +0.000 N 
ATOM      8  C   UNL     1      46.661   6.103  13.499  0.00  0.00    +0.000 A 
ATOM      9  N   UNL     1      47.344   4.993  13.814  0.00  0.00    +0.000 NA
ATOM     10  C   UNL     1      46.827   3.813  13.421  0.00  0.00    +0.000 A 
ATOM     11  C   UNL     1      45.677   3.697  12.681  0.00  0.00    +0.000 A 
ATOM     12  C   UNL     1      45.058   4.883  12.352  0.00  0.00    +0.000 A 
ATOM     13  N   UNL     1      45.523   6.060  12.809  0.00  0.00    +0.000 NA
ATOM     14  C   UNL     1      46.414   8.528  13.353  0.00  0.00    +0.000 C 
ATOM     15  C   UNL     1      47.128   9.105  12.113  0.00  0.00    +0.000 C 
ATOM     16  C   UNL     1      46.518  10.447  11.719  0.00  0.00    +0.000 C 
ATOM     17  O   UNL     1      48.525   9.335  12.376  0.00  0.00    +0.000 OA
ENDBRANCH   1  12
BRANCH   1  18
ATOM     18  N   UNL     1      43.764   3.849  10.456  0.00  0.00    +0.000 N 
ATOM     19  H   UNL     1      43.329   3.028  10.881  0.00  0.00    +0.000 HD
BRANCH  18  20
ATOM     20  C   UNL     1      44.738   3.507   9.506  0.00  0.00    +0.000 A 
ATOM     21  C   UNL     1      45.085   2.159   9.339  0.00  0.00    +0.000 A 
ATOM     22  C   UNL     1      45.974   1.777   8.334  0.00  0.00    +0.000 A 
ATOM     23  C   UNL     1      46.483   2.768   7.509  0.00  0.00    +0.000 A 
ATOM     24  N   UNL     1      46.157   4.087   7.616  0.00  0.00    +0.000 NA
ATOM     25  C   UNL     1      45.286   4.408   8.599  0.00  0.00    +0.000 A 
BRANCH  23  26
ATOM     26  C   UNL     1      47.446   2.425   6.413  0.00  0.00    +0.000 C 
ATOM     27  N   UNL     1      47.347   3.239   5.319  0.00  0.00    +0.000 N 
ATOM     28  O   UNL     1      48.250   1.508   6.481  0.00  0.00    +0.000 OA
ATOM     29  H   UNL     1      46.656   3.984   5.317  0.00  0.00    +0.000 HD
ATOM     30  H   UNL     1      47.946   3.100   4.519  0.00  0.00    +0.000 HD
ENDBRANCH  23  26
ENDBRANCH  18  20
ENDBRANCH   1  18
TORSDOF 4
ENDMDL
MODEL 2
REMARK VINA RESULT:    -7.245      3.717      6.121
REMARK INTER + INTRA:          -9.456
REMARK INTER:                  -8.957
REMARK INTRA:                  -0.499
REMARK UNBOUND:                -0.517
REMARK  Name = 
REMARK  6 active torsions:
REMARK  status: ('A' for Active; 'I' for Inactive)
REMARK    1  A    between atoms: C_1  and  C_2
REMARK    2  A    between atoms: C_9  and  C_10
REMARK    3  A    between atoms: C_10  and  N_11
REMARK    4  A    between atoms: N_11  and  C_12
REMARK    5  A    between atoms: C_15  and  C_16
REMARK    6  A    between atoms: C_25  and  C_26
REMARK                            x       y       z     vdW  Elec       q    Type
REMARK                         _______ _______ _______ _____ _____    ______ ____
ROOT
ATOM      1  C   UNL     1      47.914   7.417  13.535  0.00  0.00    +0.000 C 
ATOM      2  C   UNL     1      48.909   6.687  12.655  0.00  0.00    +0.000 C 
ATOM      3  C   UNL     1      48.579   8.105  12.338  0.00  0.00    +0.000 C 
ENDROOT
BRANCH   1  12
ATOM      4  C   UNL     1      47.003   5.826  19.196  0.00  0.00    +0.000 C 
ATOM      5  C   UNL     1      48.386   5.251  19.494  0.00  0.00    +0.000 C 
ATOM      6  C   UNL     1      49.558   6.186  19.115  0.00  0.00    +0.000 C 
ATOM      7  N   UNL     1      49.802   6.191  17.674  0.00  0.00    +0.000 N 
ATOM      8  C   UNL     1      49.257   7.218  16.935  0.00  0.00    +0.000 A 
ATOM      9  N   UNL     1      49.024   8.417  17.488  0.00  0.00    +0.000 NA
ATOM     10  C   UNL     1      48.507   9.376  16.696  0.00  0.00    +0.000 A 
ATOM     11  C   UNL     1      48.167   9.173  15.382  0.00  0.00    +0.000 A 
ATOM     12  C   UNL     1      48.388   7.903  14.898  0.00  0.00    +0.000 A 
ATOM     13  N   UNL     1      48.979   6.963  15.659  0.00  0.00    +0.000 NA
ATOM     14  C   UNL     1      49.867   4.857  17.057  0.00  0.00    +0.000 C 
ATOM     15  C   UNL     1      48.674   3.976  17.480  0.00  0.00    +0.000 C 
ATOM     16  C   UNL     1      48.876   2.538  17.011  0.00  0.00    +0.000 C 
ATOM     17  O   UNL     1      48.533   3.940  18.912  0.00  0.00    +0.000 OA
ENDBRANCH   1  12
BRANCH   1  18
ATOM     18  N   UNL     1      46.443   7.356  13.397  0.00  0.00    +0.000 N 
ATOM     19  H   UNL     1      45.947   7.785  14.181  0.00  0.00    +0.000 HD
BRANCH  18  20
ATOM     20  C   UNL     1      45.749   6.260  12.863  0.00  0.00    +0.000 A 
ATOM     21  C   UNL     1      45.337   6.298  11.524  0.00  0.00    +0.000 A 
ATOM     22  C   UNL     1      44.736   5.185  10.936  0.00  0.00    +0.000 A 
ATOM     23  C   UNL     1      44.576   4.050  11.715  0.00  0.00    +0.000 A 
ATOM     24  N   UNL     1      44.981   3.955  13.013  0.00  0.00    +0.000 NA
ATOM     25  C   UNL     1      45.567   5.056  13.536  0.00  0.00    +0.000 A 
BRANCH  23  26
ATOM     26  C   UNL     1      43.933   2.821  11.146  0.00  0.00    +0.000 C 
ATOM     27  N   UNL     1      44.542   2.355  10.014  0.00  0.00    +0.000 N 
ATOM     28  O   UNL     1      42.957   2.278  11.640  0.00  0.00    +0.000 OA
ATOM     29  H   UNL     1      45.349   2.851   9.646  0.00  0.00    +0.000 HD
ATOM     30  H   UNL     1      44.193   1.533   9.544  0.00  0.00    +0.000 HD
ENDBRANCH  23  26
ENDBRANCH  18  20
ENDBRANCH   1  18
TORSDOF 4
ENDMDL
