MODEL 1
REMARK VINA RESULT:    -7.943      0.000      0.000
REMARK INTER + INTRA:         -12.235
REMARK INTER:                 -11.194
REMARK INTRA:                  -1.041
REMARK UNBOUND:                -1.041
REMARK  Name = 
REMARK  9 active torsions:
REMARK  status: ('A' for Active; 'I' for Inactive)
REMARK    1  A    between atoms: C_1  and  C_2
REMARK    2  A    between atoms: C_2  and  C_3
REMARK    3  A    between atoms: C_5  and  S_6
REMARK    4  A    between atoms: S_6  and  C_7
REMARK    5  A    between atoms: C_11  and  C_12
REMARK    6  A    between atoms: C_12  and  C_13
REMARK    7  A    between atoms: C_13  and  N_14
REMARK    8  A    between atoms: N_14  and  C_15
REMARK    9  A    between atoms: C_18  and  C_19
REMARK                            x       y       z     vdW  Elec       q    Type
REMARK                         _______ _______ _______ _____ _____    ______ ____
ROOT
ATOM      1  C   UNL     1      43.235   4.992  12.481  0.00  0.00    +0.000 C 
ENDROOT
BRANCH   1   6
ATOM      2  C   UNL     1      46.711   6.362  13.319  0.00  0.00    +0.000 A 
ATOM      3  C   UNL     1      46.675   7.531  12.570  0.00  0.00    +0.000 A 
ATOM      4  C   UNL     1      45.525   7.803  11.850  0.00  0.00    +0.000 A 
ATOM      5  N   UNL     1      44.434   7.002  11.831  0.00  0.00    +0.000 NA
ATOM      6  C   UNL     1      44.472   5.864  12.558  0.00  0.00    +0.000 A 
ATOM      7  C   UNL     1      45.602   5.517  13.304  0.00  0.00    +0.000 A 
BRANCH   2   8
ATOM      8  S   UNL     1      48.191   5.862  14.182  0.00  0.00    +0.000 S 
BRANCH   8  13
ATOM      9  C   UNL     1      47.014   2.820  17.780  0.00  0.00    +0.000 C 
ATOM     10  C   UNL     1      48.136   3.295  16.857  0.00  0.00    +0.000 C 
ATOM     11  C   UNL     1      49.433   2.535  17.122  0.00  0.00    +0.000 C 
ATOM     12  C   UNL     1      48.308   4.842  16.792  0.00  0.00    +0.000 C 
ATOM     13  C   UNL     1      47.436   4.849  15.509  0.00  0.00    +0.000 C 
ATOM     14  C   UNL     1      47.743   3.344  15.353  0.00  0.00    +0.000 C 
ENDBRANCH   8  13
ENDBRANCH   2   8
ENDBRANCH   1   6
BRANCH   1  15
ATOM     15  C   UNL     1      43.175   4.081  11.257  0.00  0.00    +0.000 C 
BRANCH  15  16
ATOM     16  N   UNL     1      43.658   4.728  10.031  0.00  0.00    +0.000 N 
ATOM     17  H   UNL     1      44.044   5.656  10.198  0.00  0.00    +0.000 HD
BRANCH  16  18
ATOM     18  C   UNL     1      44.524   3.931   9.252  0.00  0.00    +0.000 A 
ATOM     19  C   UNL     1      45.464   4.484   8.377  0.00  0.00    +0.000 A 
ATOM     20  C   UNL     1      46.355   3.676   7.671  0.00  0.00    +0.000 A 
ATOM     21  C   UNL     1      46.301   2.312   7.886  0.00  0.00    +0.000 A 
ATOM     22  N   UNL     1      45.430   1.712   8.743  0.00  0.00    +0.000 NA
ATOM     23  C   UNL     1      44.583   2.542   9.409  0.00  0.00    +0.000 A 
BRANCH  21  24
ATOM     24  C   UNL     1      47.275   1.428   7.173  0.00  0.00    +0.000 C 
ATOM     25  N   UNL     1      48.316   2.069   6.565  0.00  0.00    +0.000 N 
ATOM     26  O   UNL     1      47.150   0.208   7.121  0.00  0.00    +0.000 OA
ATOM     27  H   UNL     1      48.368   3.081   6.598  0.00  0.00    +0.000 HD
ATOM     28  H   UNL     1      48.987   1.538   6.031  0.00  0.00    +0.000 HD
ENDBRANCH  21  24
ENDBRANCH  16  18
ENDBRANCH  15  16
ENDBRANCH   1  15
TORSDOF 7
ENDMDL
MODEL 2
REMARK VINA RESULT:    -7.857      2.274      3.926
REMARK INTER + INTRA:         -12.114
REMARK INTER:                 -11.238
REMARK INTRA:                  -0.876
REMARK UNBOUND:                -1.041
REMARK  Name = 
REMARK  9 active torsions:
REMARK  status: ('A' for Active; 'I' for Inactive)
REMARK    1  A    between atoms: C_1  and  C_2
REMARK    2  A    between atoms: C_2  and  C_3
REMARK    3  A    between atoms: C_5  and  S_6
REMARK    4  A    between atoms: S_6  and  C_7
REMARK    5  A    between atoms: C_11  and  C_12
REMARK    6  A    between atoms: C_12  and  C_13
REMARK    7  A    between atoms: C_13  and  N_14
REMARK    8  A    between atoms: N_14  and  C_15
REMARK    9  A    between atoms: C_18  and  C_19
REMARK                            x       y       z     vdW  Elec       q    Type
REMARK                         _______ _______ _______ _____ _____    ______ ____
ROOT
ATOM      1  C   UNL     1      43.312   4.736  12.571  0.00  0.00    +0.000 C 
ENDROOT
BRANCH   1   6
ATOM      2  C   UNL     1      46.672   6.450  13.230  0.00  0.00    +0.000 A 
ATOM      3  C   UNL     1      47.399   5.351  13.669  0.00  0.00    +0.000 A 
ATOM      4  C   UNL     1      46.756   4.127  13.715  0.00  0.00    +0.000 A 
ATOM      5  N   UNL     1      45.465   3.934  13.358  0.00  0.00    +0.000 NA
ATOM      6  C   UNL     1      44.758   5.003  12.934  0.00  0.00    +0.000 A 
ATOM      7  C   UNL     1      45.336   6.275  12.869  0.00  0.00    +0.000 A 
BRANCH   2   8
ATOM      8  S   UNL     1      47.372   8.091  13.251  0.00  0.00    +0.000 S 
BRANCH   8  13
ATOM      9  C   UNL     1      51.566   8.059  10.801  0.00  0.00    +0.000 C 
ATOM     10  C   UNL     1      50.753   8.767  11.886  0.00  0.00    +0.000 C 
ATOM     11  C   UNL     1      51.514   9.958  12.463  0.00  0.00    +0.000 C 
ATOM     12  C   UNL     1      50.149   7.817  12.963  0.00  0.00    +0.000 C 
ATOM     13  C   UNL     1      48.820   7.814  12.162  0.00  0.00    +0.000 C 
ATOM     14  C   UNL     1      49.294   9.108  11.467  0.00  0.00    +0.000 C 
ENDBRANCH   8  13
ENDBRANCH   2   8
ENDBRANCH   1   6
BRANCH   1  15
ATOM     15  C   UNL     1      43.112   4.045  11.224  0.00  0.00    +0.000 C 
BRANCH  15  16
ATOM     16  N   UNL     1      43.754   4.754  10.111  0.00  0.00    +0.000 N 
ATOM     17  H   UNL     1      44.218   5.613  10.403  0.00  0.00    +0.000 HD
BRANCH  16  18
ATOM     18  C   UNL     1      44.593   3.949   9.312  0.00  0.00    +0.000 A 
ATOM     19  C   UNL     1      45.531   4.492   8.428  0.00  0.00    +0.000 A 
ATOM     20  C   UNL     1      46.397   3.673   7.702  0.00  0.00    +0.000 A 
ATOM     21  C   UNL     1      46.319   2.309   7.904  0.00  0.00    +0.000 A 
ATOM     22  N   UNL     1      45.448   1.717   8.767  0.00  0.00    +0.000 NA
ATOM     23  C   UNL     1      44.626   2.557   9.454  0.00  0.00    +0.000 A 
BRANCH  21  24
ATOM     24  C   UNL     1      47.265   1.414   7.168  0.00  0.00    +0.000 C 
ATOM     25  N   UNL     1      48.259   2.047   6.480  0.00  0.00    +0.000 N 
ATOM     26  O   UNL     1      47.156   0.191   7.166  0.00  0.00    +0.000 OA
ATOM     27  H   UNL     1      48.298   3.059   6.476  0.00  0.00    +0.000 HD
ATOM     28  H   UNL     1      48.908   1.506   5.928  0.00  0.00    +0.000 HD
ENDBRANCH  21  24
ENDBRANCH  16  18
ENDBRANCH  15  16
ENDBRANCH   1  15
TORSDOF 7
ENDMDL
MODEL 3
REMARK VINA RESULT:    -7.607      2.338      3.713
REMARK INTER + INTRA:         -11.761
REMARK INTER:                 -10.706
REMARK INTRA:                  -1.055
REMARK UNBOUND:                -1.041
REMARK  Name = 
REMARK  9 active torsions:
REMARK  status: ('A' for Active; 'I' for Inactive)
REMARK    1  A    between atoms: C_1  and  C_2
REMARK    2  A    between atoms: C_2  and  C_3
REMARK    3  A    between atoms: C_5  and  S_6
REMARK    4  A    between atoms: S_6  and  C_7
REMARK    5  A    between atoms: C_11  and  C_12
REMARK    6  A    between atoms: C_12  and  C_13
REMARK    7  A    between atoms: C_13  and  N_14
REMARK    8  A    between atoms: N_14  and  C_15
REMARK    9  A    between atoms: C_18  and  C_19
REMARK                            x       y       z     vdW  Elec       q    Type
REMARK                         _______ _______ _______ _____ _____    ______ ____
ROOT
ATOM      1  C   UNL     1      43.715   3.549  12.761  0.00  0.00    +0.000 C 
ENDROOT
BRANCH   1   6
ATOM      2  C   UNL     1      46.482   6.165  13.170  0.00  0.00    +0.000 A 
ATOM      3  C   UNL     1      45.810   7.277  12.679  0.00  0.00    +0.000 A 
ATOM      4  C   UNL     1      44.504   7.108  12.255  0.00  0.00    +0.000 A 
ATOM      5  N   UNL     1      43.840   5.929  12.291  0.00  0.00    +0.000 NA
ATOM      6  C   UNL     1      44.496   4.848  12.767  0.00  0.00    +0.000 A 
ATOM      7  C   UNL     1      45.820   4.937  13.205  0.00  0.00    +0.000 A 
BRANCH   2   8
ATOM      8  S   UNL     1      48.205   6.252  13.626  0.00  0.00    +0.000 S 
BRANCH   8  13
ATOM      9  C   UNL     1      50.089  10.054  11.265  0.00  0.00    +0.000 C 
ATOM     10  C   UNL     1      50.292   8.586  11.639  0.00  0.00    +0.000 C 
ATOM     11  C   UNL     1      51.605   8.045  11.080  0.00  0.00    +0.000 C 
ATOM     12  C   UNL     1      49.060   7.674  11.364  0.00  0.00    +0.000 C 
ATOM     13  C   UNL     1      48.642   7.852  12.847  0.00  0.00    +0.000 C 
ATOM     14  C   UNL     1      50.092   8.283  13.152  0.00  0.00    +0.000 C 
ENDBRANCH   8  13
ENDBRANCH   2   8
ENDBRANCH   1   6
BRANCH   1  15
ATOM     15  C   UNL     1      43.553   2.912  11.382  0.00  0.00    +0.000 C 
BRANCH  15  16
ATOM     16  N   UNL     1      43.713   3.870  10.281  0.00  0.00    +0.000 N 
ATOM     17  H   UNL     1      43.867   4.824  10.605  0.00  0.00    +0.000 HD
BRANCH  16  18
ATOM     18  C   UNL     1      44.658   3.486   9.306  0.00  0.00    +0.000 A 
ATOM     19  C   UNL     1      45.348   4.419   8.526  0.00  0.00    +0.000 A 
ATOM     20  C   UNL     1      46.328   4.015   7.618  0.00  0.00    +0.000 A 
ATOM     21  C   UNL     1      46.617   2.667   7.535  0.00  0.00    +0.000 A 
ATOM     22  N   UNL     1      46.002   1.710   8.283  0.00  0.00    +0.000 NA
ATOM     23  C   UNL     1      45.056   2.153   9.155  0.00  0.00    +0.000 A 
BRANCH  21  24
ATOM     24  C   UNL     1      47.694   2.214   6.599  0.00  0.00    +0.000 C 
ATOM     25  N   UNL     1      47.882   2.996   5.497  0.00  0.00    +0.000 N 
ATOM     26  O   UNL     1      48.360   1.202   6.794  0.00  0.00    +0.000 OA
ATOM     27  H   UNL     1      47.290   3.805   5.351  0.00  0.00    +0.000 HD
ATOM     28  H   UNL     1      48.564   2.727   4.803  0.00  0.00    +0.000 HD
ENDBRANCH  21  24
ENDBRANCH  16  18
ENDBRANCH  15  16
ENDBRANCH   1  15
TORSDOF 7
ENDMDL
MODEL 4
REMARK VINA RESULT:    -7.558      1.888      2.230
REMARK INTER + INTRA:         -11.692
REMARK INTER:                 -10.738
REMARK INTRA:                  -0.954
REMARK UNBOUND:                -1.041
REMARK  Name = 
REMARK  9 active torsions:
REMARK  status: ('A' for Active; 'I' for Inactive)
REMARK    1  A    between atoms: C_1  and  C_2
REMARK    2  A    between atoms: C_2  and  C_3
REMARK    3  A    between atoms: C_5  and  S_6
REMARK    4  A    between atoms: S_6  and  C_7
REMARK    5  A    between atoms: C_11  and  C_12
REMARK    6  A    between atoms: C_12  and  C_13
REMARK    7  A    between atoms: C_13  and  N_14
REMARK    8  A    between atoms: N_14  and  C_15
REMARK    9  A    between atoms: C_18  and  C_19
REMARK                            x       y       z     vdW  Elec       q    Type
REMARK                         _______ _______ _______ _____ _____    ______ ____
ROOT
ATOM      1  C   UNL     1      44.397   4.381  12.368  0.00  0.00    +0.000 C 
ENDROOT
BRANCH   1   6
ATOM      2  C   UNL     1      47.261   6.913  12.597  0.00  0.00    +0.000 A 
ATOM      3  C   UNL     1      46.554   8.074  12.312  0.00  0.00    +0.000 A 
ATOM      4  C   UNL     1      45.196   7.962  12.072  0.00  0.00    +0.000 A 
ATOM      5  N   UNL     1      44.514   6.793  12.100  0.00  0.00    +0.000 NA
ATOM      6  C   UNL     1      45.203   5.664  12.375  0.00  0.00    +0.000 A 
ATOM      7  C   UNL     1      46.579   5.696  12.619  0.00  0.00    +0.000 A 
BRANCH   2   8
ATOM      8  S   UNL     1      49.034   6.936  12.800  0.00  0.00    +0.000 S 
BRANCH   8  13
ATOM      9  C   UNL     1      49.765   8.014  17.478  0.00  0.00    +0.000 C 
ATOM     10  C   UNL     1      50.002   6.978  16.379  0.00  0.00    +0.000 C 
ATOM     11  C   UNL     1      50.764   5.767  16.911  0.00  0.00    +0.000 C 
ATOM     12  C   UNL     1      50.579   7.562  15.055  0.00  0.00    +0.000 C 
ATOM     13  C   UNL     1      49.133   7.625  14.495  0.00  0.00    +0.000 C 
ATOM     14  C   UNL     1      48.724   6.601  15.575  0.00  0.00    +0.000 C 
ENDBRANCH   8  13
ENDBRANCH   2   8
ENDBRANCH   1   6
BRANCH   1  15
ATOM     15  C   UNL     1      43.321   4.313  11.285  0.00  0.00    +0.000 C 
BRANCH  15  16
ATOM     16  N   UNL     1      43.783   4.802   9.981  0.00  0.00    +0.000 N 
ATOM     17  H   UNL     1      44.221   5.721  10.035  0.00  0.00    +0.000 HD
BRANCH  16  18
ATOM     18  C   UNL     1      44.574   3.883   9.260  0.00  0.00    +0.000 A 
ATOM     19  C   UNL     1      45.535   4.293   8.329  0.00  0.00    +0.000 A 
ATOM     20  C   UNL     1      46.352   3.365   7.682  0.00  0.00    +0.000 A 
ATOM     21  C   UNL     1      46.205   2.032   8.010  0.00  0.00    +0.000 A 
ATOM     22  N   UNL     1      45.310   1.569   8.926  0.00  0.00    +0.000 NA
ATOM     23  C   UNL     1      44.537   2.512   9.532  0.00  0.00    +0.000 A 
BRANCH  21  24
ATOM     24  C   UNL     1      47.099   1.024   7.361  0.00  0.00    +0.000 C 
ATOM     25  N   UNL     1      46.807  -0.282   7.630  0.00  0.00    +0.000 N 
ATOM     26  O   UNL     1      48.043   1.339   6.642  0.00  0.00    +0.000 OA
ATOM     27  H   UNL     1      46.042  -0.504   8.255  0.00  0.00    +0.000 HD
ATOM     28  H   UNL     1      47.395  -1.013   7.257  0.00  0.00    +0.000 HD
ENDBRANCH  21  24
ENDBRANCH  16  18
ENDBRANCH  15  16
ENDBRANCH   1  15
TORSDOF 7
ENDMDL
MODEL 5
REMARK VINA RESULT:    -7.481      2.483      4.011
REMARK INTER + INTRA:         -11.584
REMARK INTER:                 -10.704
REMARK INTRA:                  -0.880
REMARK UNBOUND:                -1.041
REMARK  Name = 
REMARK  9 active torsions:
REMARK  status: ('A' for Active; 'I' for Inactive)
REMARK    1  A    between atoms: C_1  and  C_2
REMARK    2  A    between atoms: C_2  and  C_3
REMARK    3  A    between atoms: C_5  and  S_6
REMARK    4  A    between atoms: S_6  and  C_7
REMARK    5  A    between atoms: C_11  and  C_12
REMARK    6  A    between atoms: C_12  and  C_13
REMARK    7  A    between atoms: C_13  and  N_14
REMARK    8  A    between atoms: N_14  and  C_15
REMARK    9  A    between atoms: C_18  and  C_19
REMARK                            x       y       z     vdW  Elec       q    Type
REMARK                         _______ _______ _______ _____ _____    ______ ____
ROOT
ATOM      1  C   UNL     1      44.942   4.387  12.176  0.00  0.00    +0.000 C 
ENDROOT
BRANCH   1   6
ATOM      2  C   UNL     1      47.388   7.077  13.379  0.00  0.00    +0.000 A 
ATOM      3  C   UNL     1      46.623   8.206  13.114  0.00  0.00    +0.000 A 
ATOM      4  C   UNL     1      45.364   8.021  12.572  0.00  0.00    +0.000 A 
ATOM      5  N   UNL     1      44.831   6.811  12.285  0.00  0.00    +0.000 NA
ATOM      6  C   UNL     1      45.577   5.714  12.540  0.00  0.00    +0.000 A 
ATOM      7  C   UNL     1      46.862   5.820  13.079  0.00  0.00    +0.000 A 
BRANCH   2   8
ATOM      8  S   UNL     1      49.069   7.214  13.963  0.00  0.00    +0.000 S 
BRANCH   8  13
ATOM      9  C   UNL     1      51.300   9.992  10.663  0.00  0.00    +0.000 C 
ATOM     10  C   UNL     1      51.286   8.624  11.347  0.00  0.00    +0.000 C 
ATOM     11  C   UNL     1      52.411   7.732  10.830  0.00  0.00    +0.000 C 
ATOM     12  C   UNL     1      49.890   7.933  11.379  0.00  0.00    +0.000 C 
ATOM     13  C   UNL     1      49.684   8.498  12.810  0.00  0.00    +0.000 C 
ATOM     14  C   UNL     1      51.212   8.691  12.899  0.00  0.00    +0.000 C 
ENDBRANCH   8  13
ENDBRANCH   2   8
ENDBRANCH   1   6
BRANCH   1  15
ATOM     15  C   UNL     1      43.630   4.501  11.402  0.00  0.00    +0.000 C 
BRANCH  15  16
ATOM     16  N   UNL     1      43.821   4.849   9.989  0.00  0.00    +0.000 N 
ATOM     17  H   UNL     1      44.144   5.806   9.856  0.00  0.00    +0.000 HD
BRANCH  16  18
ATOM     18  C   UNL     1      44.600   3.925   9.261  0.00  0.00    +0.000 A 
ATOM     19  C   UNL     1      45.597   4.328   8.367  0.00  0.00    +0.000 A 
ATOM     20  C   UNL     1      46.400   3.393   7.713  0.00  0.00    +0.000 A 
ATOM     21  C   UNL     1      46.200   2.056   7.998  0.00  0.00    +0.000 A 
ATOM     22  N   UNL     1      45.267   1.598   8.877  0.00  0.00    +0.000 NA
ATOM     23  C   UNL     1      44.510   2.548   9.491  0.00  0.00    +0.000 A 
BRANCH  21  24
ATOM     24  C   UNL     1      47.077   1.037   7.341  0.00  0.00    +0.000 C 
ATOM     25  N   UNL     1      46.779  -0.264   7.622  0.00  0.00    +0.000 N 
ATOM     26  O   UNL     1      48.013   1.341   6.606  0.00  0.00    +0.000 OA
ATOM     27  H   UNL     1      46.022  -0.477   8.260  0.00  0.00    +0.000 HD
ATOM     28  H   UNL     1      47.356  -1.002   7.245  0.00  0.00    +0.000 HD
ENDBRANCH  21  24
ENDBRANCH  16  18
ENDBRANCH  15  16
ENDBRANCH   1  15
TORSDOF 7
ENDMDL
MODEL 6
REMARK VINA RESULT:    -6.887      1.595      2.059
REMARK INTER + INTRA:         -10.747
REMARK INTER:                 -10.232
REMARK INTRA:                  -0.515
REMARK UNBOUND:                -1.041
REMARK  Name = 
REMARK  9 active torsions:
REMARK  status: ('A' for Active; 'I' for Inactive)
REMARK    1  A    between atoms: C_1  and  C_2
REMARK    2  A    between atoms: C_2  and  C_3
REMARK    3  A    between atoms: C_5  and  S_6
REMARK    4  A    between atoms: S_6  and  C_7
REMARK    5  A    between atoms: C_11  and  C_12
REMARK    6  A    between atoms: C_12  and  C_13
REMARK    7  A    between atoms: C_13  and  N_14
REMARK    8  A    between atoms: N_14  and  C_15
REMARK    9  A    between atoms: C_18  and  C_19
REMARK                            x       y       z     vdW  Elec       q    Type
REMARK                         _______ _______ _______ _____ _____    ______ ____
ROOT
ATOM      1  C   UNL     1      44.390   5.640  11.795  0.00  0.00    +0.000 C 
ENDROOT
BRANCH   1   6
ATOM      2  C   UNL     1      47.144   5.042  14.388  0.00  0.00    +0.000 A 
ATOM      3  C   UNL     1      47.890   6.196  14.188  0.00  0.00    +0.000 A 
ATOM      4  C   UNL     1      47.448   7.096  13.235  0.00  0.00    +0.000 A 
ATOM      5  N   UNL     1      46.335   6.921  12.485  0.00  0.00    +0.000 NA
ATOM      6  C   UNL     1      45.611   5.797  12.678  0.00  0.00    +0.000 A 
ATOM      7  C   UNL     1      45.999   4.837  13.617  0.00  0.00    +0.000 A 
BRANCH   2   8
ATOM      8  S   UNL     1      47.695   3.764  15.505  0.00  0.00    +0.000 S 
BRANCH   8  13
ATOM      9  C   UNL     1      47.716   5.795  19.916  0.00  0.00    +0.000 C 
ATOM     10  C   UNL     1      48.544   5.027  18.886  0.00  0.00    +0.000 C 
ATOM     11  C   UNL     1      49.954   4.750  19.401  0.00  0.00    +0.000 C 
ATOM     12  C   UNL     1      48.498   5.622  17.447  0.00  0.00    +0.000 C 
ATOM     13  C   UNL     1      47.378   4.605  17.102  0.00  0.00    +0.000 C 
ATOM     14  C   UNL     1      47.836   3.766  18.314  0.00  0.00    +0.000 C 
ENDBRANCH   8  13
ENDBRANCH   2   8
ENDBRANCH   1   6
BRANCH   1  15
ATOM     15  C   UNL     1      43.918   4.199  11.613  0.00  0.00    +0.000 C 
BRANCH  15  16
ATOM     16  N   UNL     1      43.499   3.898  10.239  0.00  0.00    +0.000 N 
ATOM     17  H   UNL     1      42.936   4.640   9.825  0.00  0.00    +0.000 HD
BRANCH  16  18
ATOM     18  C   UNL     1      44.545   3.491   9.385  0.00  0.00    +0.000 A 
ATOM     19  C   UNL     1      44.953   2.157   9.285  0.00  0.00    +0.000 A 
ATOM     20  C   UNL     1      45.944   1.772   8.381  0.00  0.00    +0.000 A 
ATOM     21  C   UNL     1      46.489   2.744   7.566  0.00  0.00    +0.000 A 
ATOM     22  N   UNL     1      46.119   4.054   7.593  0.00  0.00    +0.000 NA
ATOM     23  C   UNL     1      45.148   4.380   8.489  0.00  0.00    +0.000 A 
BRANCH  21  24
ATOM     24  C   UNL     1      47.523   2.347   6.559  0.00  0.00    +0.000 C 
ATOM     25  N   UNL     1      47.490   3.036   5.381  0.00  0.00    +0.000 N 
ATOM     26  O   UNL     1      48.341   1.456   6.763  0.00  0.00    +0.000 OA
ATOM     27  H   UNL     1      46.779   3.741   5.233  0.00  0.00    +0.000 HD
ATOM     28  H   UNL     1      48.133   2.791   4.641  0.00  0.00    +0.000 HD
ENDBRANCH  21  24
ENDBRANCH  16  18
ENDBRANCH  15  16
ENDBRANCH   1  15
TORSDOF 7
ENDMDL
MODEL 7
REMARK VINA RESULT:    -6.749      2.601      3.323
REMARK INTER + INTRA:         -10.553
REMARK INTER:                  -9.845
REMARK INTRA:                  -0.708
REMARK UNBOUND:                -1.041
REMARK  Name = 
REMARK  9 active torsions:
REMARK  status: ('A' for Active; 'I' for Inactive)
REMARK    1  A    between atoms: C_1  and  C_2
REMARK    2  A    between atoms: C_2  and  C_3
REMARK    3  A    between atoms: C_5  and  S_6
REMARK    4  A    between atoms: S_6  and  C_7
REMARK    5  A    between atoms: C_11  and  C_12
REMARK    6  A    between atoms: C_12  and  C_13
REMARK    7  A    between atoms: C_13  and  N_14
REMARK    8  A    between atoms: N_14  and  C_15
REMARK    9  A    between atoms: C_18  and  C_19
REMARK                            x       y       z     vdW  Elec       q    Type
REMARK                         _______ _______ _______ _____ _____    ______ ____
ROOT
ATOM      1  C   UNL     1      45.651   5.989  11.117  0.00  0.00    +0.000 C 
ENDROOT
BRANCH   1   6
ATOM      2  C   UNL     1      47.872   6.692  14.156  0.00  0.00    +0.000 A 
ATOM      3  C   UNL     1      47.697   5.496  14.839  0.00  0.00    +0.000 A 
ATOM      4  C   UNL     1      46.879   4.538  14.268  0.00  0.00    +0.000 A 
ATOM      5  N   UNL     1      46.240   4.693  13.085  0.00  0.00    +0.000 NA
ATOM      6  C   UNL     1      46.409   5.858  12.422  0.00  0.00    +0.000 A 
ATOM      7  C   UNL     1      47.213   6.878  12.940  0.00  0.00    +0.000 A 
BRANCH   2   8
ATOM      8  S   UNL     1      48.807   8.036  14.866  0.00  0.00    +0.000 S 
BRANCH   8  13
ATOM      9  C   UNL     1      52.989   6.373  16.692  0.00  0.00    +0.000 C 
ATOM     10  C   UNL     1      52.149   7.621  16.419  0.00  0.00    +0.000 C 
ATOM     11  C   UNL     1      52.868   8.887  16.876  0.00  0.00    +0.000 C 
ATOM     12  C   UNL     1      50.670   7.522  16.899  0.00  0.00    +0.000 C 
ATOM     13  C   UNL     1      50.269   7.104  15.460  0.00  0.00    +0.000 C 
ATOM     14  C   UNL     1      51.599   7.712  14.966  0.00  0.00    +0.000 C 
ENDBRANCH   8  13
ENDBRANCH   2   8
ENDBRANCH   1   6
BRANCH   1  15
ATOM     15  C   UNL     1      44.300   5.276  11.092  0.00  0.00    +0.000 C 
BRANCH  15  16
ATOM     16  N   UNL     1      43.848   4.942   9.736  0.00  0.00    +0.000 N 
ATOM     17  H   UNL     1      43.718   5.763   9.148  0.00  0.00    +0.000 HD
BRANCH  16  18
ATOM     18  C   UNL     1      44.617   3.950   9.093  0.00  0.00    +0.000 A 
ATOM     19  C   UNL     1      45.423   4.230   7.984  0.00  0.00    +0.000 A 
ATOM     20  C   UNL     1      46.227   3.245   7.410  0.00  0.00    +0.000 A 
ATOM     21  C   UNL     1      46.228   1.991   7.989  0.00  0.00    +0.000 A 
ATOM     22  N   UNL     1      45.490   1.659   9.084  0.00  0.00    +0.000 NA
ATOM     23  C   UNL     1      44.723   2.653   9.609  0.00  0.00    +0.000 A 
BRANCH  21  24
ATOM     24  C   UNL     1      47.116   0.931   7.417  0.00  0.00    +0.000 C 
ATOM     25  N   UNL     1      46.686  -0.353   7.592  0.00  0.00    +0.000 N 
ATOM     26  O   UNL     1      48.168   1.186   6.839  0.00  0.00    +0.000 OA
ATOM     27  H   UNL     1      45.830  -0.528   8.105  0.00  0.00    +0.000 HD
ATOM     28  H   UNL     1      47.257  -1.119   7.267  0.00  0.00    +0.000 HD
ENDBRANCH  21  24
ENDBRANCH  16  18
ENDBRANCH  15  16
ENDBRANCH   1  15
TORSDOF 7
ENDMDL
MODEL 8
REMARK VINA RESULT:    -6.447      4.487      8.345
REMARK INTER + INTRA:         -10.126
REMARK INTER:                  -9.519
REMARK INTRA:                  -0.608
REMARK UNBOUND:                -1.041
REMARK  Name = 
REMARK  9 active torsions:
REMARK  status: ('A' for Active; 'I' for Inactive)
REMARK    1  A    between atoms: C_1  and  C_2
REMARK    2  A    between atoms: C_2  and  C_3
REMARK    3  A    between atoms: C_5  and  S_6
REMARK    4  A    between atoms: S_6  and  C_7
REMARK    5  A    between atoms: C_11  and  C_12
REMARK    6  A    between atoms: C_12  and  C_13
REMARK    7  A    between atoms: C_13  and  N_14
REMARK    8  A    between atoms: N_14  and  C_15
REMARK    9  A    between atoms: C_18  and  C_19
REMARK                            x       y       z     vdW  Elec       q    Type
REMARK                         _______ _______ _______ _____ _____    ______ ____
ROOT
ATOM      1  C   UNL     1      46.589   3.803  13.969  0.00  0.00    +0.000 C 
ENDROOT
BRANCH   1   6
ATOM      2  C   UNL     1      44.889   4.787  10.682  0.00  0.00    +0.000 A 
ATOM      3  C   UNL     1      44.571   6.105  10.983  0.00  0.00    +0.000 A 
ATOM      4  C   UNL     1      44.935   6.591  12.226  0.00  0.00    +0.000 A 
ATOM      5  N   UNL     1      45.582   5.862  13.166  0.00  0.00    +0.000 NA
ATOM      6  C   UNL     1      45.889   4.580  12.873  0.00  0.00    +0.000 A 
ATOM      7  C   UNL     1      45.546   4.016  11.641  0.00  0.00    +0.000 A 
BRANCH   2   8
ATOM      8  S   UNL     1      44.357   4.032   9.155  0.00  0.00    +0.000 S 
BRANCH   8  13
ATOM      9  C   UNL     1      48.244   2.155   6.932  0.00  0.00    +0.000 C 
ATOM     10  C   UNL     1      46.875   2.803   6.727  0.00  0.00    +0.000 C 
ATOM     11  C   UNL     1      46.534   2.927   5.245  0.00  0.00    +0.000 C 
ATOM     12  C   UNL     1      46.650   4.111   7.543  0.00  0.00    +0.000 C 
ATOM     13  C   UNL     1      45.936   3.266   8.632  0.00  0.00    +0.000 C 
ATOM     14  C   UNL     1      45.736   2.162   7.572  0.00  0.00    +0.000 C 
ENDBRANCH   8  13
ENDBRANCH   2   8
ENDBRANCH   1   6
BRANCH   1  15
ATOM     15  C   UNL     1      47.036   4.649  15.160  0.00  0.00    +0.000 C 
BRANCH  15  16
ATOM     16  N   UNL     1      47.133   3.883  16.408  0.00  0.00    +0.000 N 
ATOM     17  H   UNL     1      46.421   3.157  16.484  0.00  0.00    +0.000 HD
BRANCH  16  18
ATOM     18  C   UNL     1      48.423   3.387  16.691  0.00  0.00    +0.000 A 
ATOM     19  C   UNL     1      49.362   4.120  17.424  0.00  0.00    +0.000 A 
ATOM     20  C   UNL     1      50.606   3.577  17.748  0.00  0.00    +0.000 A 
ATOM     21  C   UNL     1      50.870   2.281  17.350  0.00  0.00    +0.000 A 
ATOM     22  N   UNL     1      49.992   1.504  16.658  0.00  0.00    +0.000 NA
ATOM     23  C   UNL     1      48.792   2.077  16.367  0.00  0.00    +0.000 A 
BRANCH  21  24
ATOM     24  C   UNL     1      52.181   1.663  17.723  0.00  0.00    +0.000 C 
ATOM     25  N   UNL     1      52.524   0.543  17.023  0.00  0.00    +0.000 N 
ATOM     26  O   UNL     1      52.901   2.117  18.607  0.00  0.00    +0.000 OA
ATOM     27  H   UNL     1      51.888   0.176  16.324  0.00  0.00    +0.000 HD
ATOM     28  H   UNL     1      53.375   0.051  17.251  0.00  0.00    +0.000 HD
ENDBRANCH  21  24
ENDBRANCH  16  18
ENDBRANCH  15  16
ENDBRANCH   1  15
TORSDOF 7
ENDMDL
MODEL 9
REMARK VINA RESULT:    -6.057      3.292      4.973
REMARK INTER + INTRA:          -9.577
REMARK INTER:                  -8.453
REMARK INTRA:                  -1.124
REMARK UNBOUND:                -1.041
REMARK  Name = 
REMARK  9 active torsions:
REMARK  status: ('A' for Active; 'I' for Inactive)
REMARK    1  A    between atoms: C_1  and  C_2
REMARK    2  A    between atoms: C_2  and  C_3
REMARK    3  A    between atoms: C_5  and  S_6
REMARK    4  A    between atoms: S_6  and  C_7
REMARK    5  A    between atoms: C_11  and  C_12
REMARK    6  A    between atoms: C_12  and  C_13
REMARK    7  A    between atoms: C_13  and  N_14
REMARK    8  A    between atoms: N_14  and  C_15
REMARK    9  A    between atoms: C_18  and  C_19
REMARK                            x       y       z     vdW  Elec       q    Type
REMARK                         _______ _______ _______ _____ _____    ______ ____
ROOT
ATOM      1  C   UNL     1      48.084   6.419  13.525  0.00  0.00    +0.000 C 
ENDROOT
BRANCH   1   6
ATOM      2  C   UNL     1      48.775   5.817  17.243  0.00  0.00    +0.000 A 
ATOM      3  C   UNL     1      48.056   4.641  17.414  0.00  0.00    +0.000 A 
ATOM      4  C   UNL     1      47.403   4.116  16.313  0.00  0.00    +0.000 A 
ATOM      5  N   UNL     1      47.421   4.676  15.081  0.00  0.00    +0.000 NA
ATOM      6  C   UNL     1      48.118   5.821  14.917  0.00  0.00    +0.000 A 
ATOM      7  C   UNL     1      48.797   6.417  15.984  0.00  0.00    +0.000 A 
BRANCH   2   8
ATOM      8  S   UNL     1      49.549   6.637  18.625  0.00  0.00    +0.000 S 
BRANCH   8  13
ATOM      9  C   UNL     1      47.218  10.877  19.043  0.00  0.00    +0.000 C 
ATOM     10  C   UNL     1      47.565   9.563  19.744  0.00  0.00    +0.000 C 
ATOM     11  C   UNL     1      46.950   9.497  21.139  0.00  0.00    +0.000 C 
ATOM     12  C   UNL     1      49.076   9.186  19.696  0.00  0.00    +0.000 C 
ATOM     13  C   UNL     1      48.777   8.291  18.465  0.00  0.00    +0.000 C 
ATOM     14  C   UNL     1      47.292   8.294  18.886  0.00  0.00    +0.000 C 
ENDBRANCH   8  13
ENDBRANCH   2   8
ENDBRANCH   1   6
BRANCH   1  15
ATOM     15  C   UNL     1      46.787   7.147  13.177  0.00  0.00    +0.000 C 
BRANCH  15  16
ATOM     16  N   UNL     1      45.598   6.292  13.288  0.00  0.00    +0.000 N 
ATOM     17  H   UNL     1      44.767   6.805  13.578  0.00  0.00    +0.000 HD
BRANCH  16  18
ATOM     18  C   UNL     1      45.352   5.486  12.157  0.00  0.00    +0.000 A 
ATOM     19  C   UNL     1      45.545   5.951  10.851  0.00  0.00    +0.000 A 
ATOM     20  C   UNL     1      45.361   5.110   9.752  0.00  0.00    +0.000 A 
ATOM     21  C   UNL     1      45.012   3.796   9.994  0.00  0.00    +0.000 A 
ATOM     22  N   UNL     1      44.835   3.273  11.239  0.00  0.00    +0.000 NA
ATOM     23  C   UNL     1      45.027   4.131  12.278  0.00  0.00    +0.000 A 
BRANCH  21  24
ATOM     24  C   UNL     1      44.851   2.865   8.834  0.00  0.00    +0.000 C 
ATOM     25  N   UNL     1      44.658   1.553   9.155  0.00  0.00    +0.000 N 
ATOM     26  O   UNL     1      44.899   3.244   7.667  0.00  0.00    +0.000 OA
ATOM     27  H   UNL     1      44.659   1.271  10.128  0.00  0.00    +0.000 HD
ATOM     28  H   UNL     1      44.584   0.865   8.420  0.00  0.00    +0.000 HD
ENDBRANCH  21  24
ENDBRANCH  16  18
ENDBRANCH  15  16
ENDBRANCH   1  15
TORSDOF 7
ENDMDL
