MODEL 1
REMARK VINA RESULT:    -7.556      0.000      0.000
REMARK INTER + INTRA:         -12.233
REMARK INTER:                 -11.311
REMARK INTRA:                  -0.922
REMARK UNBOUND:                -0.922
REMARK  Name = 
REMARK  9 active torsions:
REMARK  status: ('A' for Active; 'I' for Inactive)
REMARK    1  A    between atoms: N_1  and  C_2
REMARK    2  A    between atoms: C_2  and  C_3
REMARK    3  A    between atoms: C_3  and  C_4
REMARK    4  A    between atoms: C_4  and  O_5
REMARK    5  A    between atoms: O_5  and  C_6
REMARK    6  A    between atoms: C_9  and  C_10
REMARK    7  A    between atoms: C_10  and  O_11
REMARK    8  A    between atoms: O_11  and  C_12
REMARK    9  A    between atoms: C_15  and  C_16
REMARK                            x       y       z     vdW  Elec       q    Type
REMARK                         _______ _______ _______ _____ _____    ______ ____
ROOT
ATOM      1  C   UNL     1      47.121   4.646  14.073  0.00  0.00    +0.000 A 
ATOM      2  C   UNL     1      47.322   5.778  13.281  0.00  0.00    +0.000 A 
ATOM      3  C   UNL     1      46.434   6.086  12.245  0.00  0.00    +0.000 A 
ATOM      4  C   UNL     1      45.324   5.273  11.993  0.00  0.00    +0.000 A 
ATOM      5  C   UNL     1      45.134   4.128  12.777  0.00  0.00    +0.000 A 
ATOM      6  C   UNL     1      46.022   3.825  13.816  0.00  0.00    +0.000 A 
ENDROOT
BRANCH   1   7
ATOM      7  O   UNL     1      47.922   4.244  15.112  0.00  0.00    +0.000 OA
BRANCH   7   8
ATOM      8  C   UNL     1      47.355   4.385  16.418  0.00  0.00    +0.000 C 
BRANCH   8   9
ATOM      9  C   UNL     1      47.632   3.122  17.228  0.00  0.00    +0.000 C 
BRANCH   9  10
ATOM     10  C   UNL     1      49.116   2.758  17.224  0.00  0.00    +0.000 C 
BRANCH  10  11
ATOM     11  N   UNL     1      49.436   1.818  16.155  0.00  0.00    +0.000 NA
ATOM     12  H   UNL     1      50.237   1.249  16.427  0.00  0.00    +0.000 HD
ATOM     13  H   UNL     1      49.720   2.330  15.320  0.00  0.00    +0.000 HD
ENDBRANCH  10  11
ENDBRANCH   9  10
ENDBRANCH   8   9
ENDBRANCH   7   8
ENDBRANCH   1   7
BRANCH   4  14
ATOM     14  C   UNL     1      44.330   5.651  10.922  0.00  0.00    +0.000 C 
BRANCH  14  15
ATOM     15  O   UNL     1      43.862   4.488  10.234  0.00  0.00    +0.000 OA
BRANCH  15  16
ATOM     16  C   UNL     1      44.752   3.907   9.372  0.00  0.00    +0.000 A 
ATOM     17  C   UNL     1      45.557   4.574   8.451  0.00  0.00    +0.000 A 
ATOM     18  C   UNL     1      46.430   3.852   7.640  0.00  0.00    +0.000 A 
ATOM     19  C   UNL     1      46.473   2.471   7.773  0.00  0.00    +0.000 A 
ATOM     20  N   UNL     1      45.701   1.775   8.652  0.00  0.00    +0.000 NA
ATOM     21  C   UNL     1      44.863   2.519   9.424  0.00  0.00    +0.000 A 
BRANCH  19  22
ATOM     22  C   UNL     1      47.421   1.690   6.917  0.00  0.00    +0.000 C 
ATOM     23  N   UNL     1      48.445   2.398   6.352  0.00  0.00    +0.000 N 
ATOM     24  O   UNL     1      47.295   0.485   6.726  0.00  0.00    +0.000 OA
ATOM     25  H   UNL     1      48.522   3.395   6.521  0.00  0.00    +0.000 HD
ATOM     26  H   UNL     1      49.105   1.925   5.755  0.00  0.00    +0.000 HD
ENDBRANCH  19  22
ENDBRANCH  15  16
ENDBRANCH  14  15
ENDBRANCH   4  14
TORSDOF 9
ENDMDL
MODEL 2
REMARK VINA RESULT:    -7.296      2.394      3.113
REMARK INTER + INTRA:         -11.844
REMARK INTER:                 -10.696
REMARK INTRA:                  -1.148
REMARK UNBOUND:                -0.922
REMARK  Name = 
REMARK  9 active torsions:
REMARK  status: ('A' for Active; 'I' for Inactive)
REMARK    1  A    between atoms: N_1  and  C_2
REMARK    2  A    between atoms: C_2  and  C_3
REMARK    3  A    between atoms: C_3  and  C_4
REMARK    4  A    between atoms: C_4  and  O_5
REMARK    5  A    between atoms: O_5  and  C_6
REMARK    6  A    between atoms: C_9  and  C_10
REMARK    7  A    between atoms: C_10  and  O_11
REMARK    8  A    between atoms: O_11  and  C_12
REMARK    9  A    between atoms: C_15  and  C_16
REMARK                            x       y       z     vdW  Elec       q    Type
REMARK                         _______ _______ _______ _____ _____    ______ ____
ROOT
ATOM      1  C   UNL     1      46.998   5.329  13.405  0.00  0.00    +0.000 A 
ATOM      2  C   UNL     1      46.843   3.942  13.433  0.00  0.00    +0.000 A 
ATOM      3  C   UNL     1      45.740   3.339  12.821  0.00  0.00    +0.000 A 
ATOM      4  C   UNL     1      44.780   4.113  12.159  0.00  0.00    +0.000 A 
ATOM      5  C   UNL     1      44.929   5.506  12.147  0.00  0.00    +0.000 A 
ATOM      6  C   UNL     1      46.037   6.106  12.757  0.00  0.00    +0.000 A 
ENDROOT
BRANCH   1   7
ATOM      7  O   UNL     1      48.034   6.030  13.968  0.00  0.00    +0.000 OA
BRANCH   7   8
ATOM      8  C   UNL     1      48.866   6.746  13.051  0.00  0.00    +0.000 C 
BRANCH   8   9
ATOM      9  C   UNL     1      49.275   8.078  13.673  0.00  0.00    +0.000 C 
BRANCH   9  10
ATOM     10  C   UNL     1      48.635   8.285  15.044  0.00  0.00    +0.000 C 
BRANCH  10  11
ATOM     11  N   UNL     1      47.336   8.940  14.938  0.00  0.00    +0.000 NA
ATOM     12  H   UNL     1      47.146   9.169  13.962  0.00  0.00    +0.000 HD
ATOM     13  H   UNL     1      47.356   9.827  15.440  0.00  0.00    +0.000 HD
ENDBRANCH  10  11
ENDBRANCH   9  10
ENDBRANCH   8   9
ENDBRANCH   7   8
ENDBRANCH   1   7
BRANCH   4  14
ATOM     14  C   UNL     1      43.632   3.451  11.439  0.00  0.00    +0.000 C 
BRANCH  14  15
ATOM     15  O   UNL     1      43.575   3.880  10.077  0.00  0.00    +0.000 OA
BRANCH  15  16
ATOM     16  C   UNL     1      44.557   3.395   9.257  0.00  0.00    +0.000 A 
ATOM     17  C   UNL     1      44.970   2.067   9.169  0.00  0.00    +0.000 A 
ATOM     18  C   UNL     1      45.980   1.711   8.277  0.00  0.00    +0.000 A 
ATOM     19  C   UNL     1      46.555   2.701   7.494  0.00  0.00    +0.000 A 
ATOM     20  N   UNL     1      46.191   4.013   7.550  0.00  0.00    +0.000 NA
ATOM     21  C   UNL     1      45.202   4.316   8.433  0.00  0.00    +0.000 A 
BRANCH  19  22
ATOM     22  C   UNL     1      47.628   2.324   6.520  0.00  0.00    +0.000 C 
ATOM     23  N   UNL     1      47.703   3.081   5.384  0.00  0.00    +0.000 N 
ATOM     24  O   UNL     1      48.399   1.390   6.719  0.00  0.00    +0.000 OA
ATOM     25  H   UNL     1      47.049   3.842   5.242  0.00  0.00    +0.000 HD
ATOM     26  H   UNL     1      48.399   2.862   4.687  0.00  0.00    +0.000 HD
ENDBRANCH  19  22
ENDBRANCH  15  16
ENDBRANCH  14  15
ENDBRANCH   4  14
TORSDOF 9
ENDMDL
MODEL 3
REMARK VINA RESULT:    -6.961      2.335      2.997
REMARK INTER + INTRA:         -11.342
REMARK INTER:                 -10.434
REMARK INTRA:                  -0.908
REMARK UNBOUND:                -0.922
REMARK  Name = 
REMARK  9 active torsions:
REMARK  status: ('A' for Active; 'I' for Inactive)
REMARK    1  A    between atoms: N_1  and  C_2
REMARK    2  A    between atoms: C_2  and  C_3
REMARK    3  A    between atoms: C_3  and  C_4
REMARK    4  A    between atoms: C_4  and  O_5
REMARK    5  A    between atoms: O_5  and  C_6
REMARK    6  A    between atoms: C_9  and  C_10
REMARK    7  A    between atoms: C_10  and  O_11
REMARK    8  A    between atoms: O_11  and  C_12
REMARK    9  A    between atoms: C_15  and  C_16
REMARK                            x       y       z     vdW  Elec       q    Type
REMARK                         _______ _______ _______ _____ _____    ______ ____
ROOT
ATOM      1  C   UNL     1      46.621   5.442  13.590  0.00  0.00    +0.000 A 
ATOM      2  C   UNL     1      45.500   6.027  12.997  0.00  0.00    +0.000 A 
ATOM      3  C   UNL     1      44.573   5.243  12.304  0.00  0.00    +0.000 A 
ATOM      4  C   UNL     1      44.744   3.858  12.203  0.00  0.00    +0.000 A 
ATOM      5  C   UNL     1      45.879   3.275  12.783  0.00  0.00    +0.000 A 
ATOM      6  C   UNL     1      46.803   4.062  13.480  0.00  0.00    +0.000 A 
ENDROOT
BRANCH   1   7
ATOM      7  O   UNL     1      47.594   6.107  14.291  0.00  0.00    +0.000 OA
BRANCH   7   8
ATOM      8  C   UNL     1      48.058   7.324  13.701  0.00  0.00    +0.000 C 
BRANCH   8   9
ATOM      9  C   UNL     1      48.995   6.999  12.541  0.00  0.00    +0.000 C 
BRANCH   9  10
ATOM     10  C   UNL     1      49.984   8.132  12.275  0.00  0.00    +0.000 C 
BRANCH  10  11
ATOM     11  N   UNL     1      51.231   7.635  11.703  0.00  0.00    +0.000 NA
ATOM     12  H   UNL     1      51.682   7.002  12.364  0.00  0.00    +0.000 HD
ATOM     13  H   UNL     1      51.878   8.410  11.563  0.00  0.00    +0.000 HD
ENDBRANCH  10  11
ENDBRANCH   9  10
ENDBRANCH   8   9
ENDBRANCH   7   8
ENDBRANCH   1   7
BRANCH   4  14
ATOM     14  C   UNL     1      43.703   3.009  11.517  0.00  0.00    +0.000 C 
BRANCH  14  15
ATOM     15  O   UNL     1      43.465   3.477  10.188  0.00  0.00    +0.000 OA
BRANCH  15  16
ATOM     16  C   UNL     1      44.481   3.277   9.295  0.00  0.00    +0.000 A 
ATOM     17  C   UNL     1      45.110   4.260   8.534  0.00  0.00    +0.000 A 
ATOM     18  C   UNL     1      46.145   3.914   7.667  0.00  0.00    +0.000 A 
ATOM     19  C   UNL     1      46.525   2.582   7.584  0.00  0.00    +0.000 A 
ATOM     20  N   UNL     1      45.936   1.585   8.302  0.00  0.00    +0.000 NA
ATOM     21  C   UNL     1      44.931   1.967   9.134  0.00  0.00    +0.000 A 
BRANCH  19  22
ATOM     22  C   UNL     1      47.647   2.204   6.669  0.00  0.00    +0.000 C 
ATOM     23  N   UNL     1      47.847   3.022   5.592  0.00  0.00    +0.000 N 
ATOM     24  O   UNL     1      48.351   1.218   6.864  0.00  0.00    +0.000 OA
ATOM     25  H   UNL     1      47.246   3.826   5.452  0.00  0.00    +0.000 HD
ATOM     26  H   UNL     1      48.581   2.806   4.935  0.00  0.00    +0.000 HD
ENDBRANCH  19  22
ENDBRANCH  15  16
ENDBRANCH  14  15
ENDBRANCH   4  14
TORSDOF 9
ENDMDL
MODEL 4
REMARK VINA RESULT:    -6.589      2.423      6.853
REMARK INTER + INTRA:         -10.785
REMARK INTER:                  -9.801
REMARK INTRA:                  -0.983
REMARK UNBOUND:                -0.922
REMARK  Name = 
REMARK  9 active torsions:
REMARK  status: ('A' for Active; 'I' for Inactive)
REMARK    1  A    between atoms: N_1  and  C_2
REMARK    2  A    between atoms: C_2  and  C_3
REMARK    3  A    between atoms: C_3  and  C_4
REMARK    4  A    between atoms: C_4  and  O_5
REMARK    5  A    between atoms: O_5  and  C_6
REMARK    6  A    between atoms: C_9  and  C_10
REMARK    7  A    between atoms: C_10  and  O_11
REMARK    8  A    between atoms: O_11  and  C_12
REMARK    9  A    between atoms: C_15  and  C_16
REMARK                            x       y       z     vdW  Elec       q    Type
REMARK                         _______ _______ _______ _____ _____    ______ ____
ROOT
ATOM      1  C   UNL     1      44.940   3.226   8.435  0.00  0.00    +0.000 A 
ATOM      2  C   UNL     1      44.528   4.516   8.776  0.00  0.00    +0.000 A 
ATOM      3  C   UNL     1      43.945   4.769  10.021  0.00  0.00    +0.000 A 
ATOM      4  C   UNL     1      43.775   3.738  10.951  0.00  0.00    +0.000 A 
ATOM      5  C   UNL     1      44.172   2.441  10.601  0.00  0.00    +0.000 A 
ATOM      6  C   UNL     1      44.759   2.192   9.355  0.00  0.00    +0.000 A 
ENDROOT
BRANCH   1   7
ATOM      7  O   UNL     1      45.521   2.858   7.248  0.00  0.00    +0.000 OA
BRANCH   7   8
ATOM      8  C   UNL     1      46.834   3.377   7.017  0.00  0.00    +0.000 C 
BRANCH   8   9
ATOM      9  C   UNL     1      47.829   2.223   6.946  0.00  0.00    +0.000 C 
BRANCH   9  10
ATOM     10  C   UNL     1      47.138   0.895   6.644  0.00  0.00    +0.000 C 
BRANCH  10  11
ATOM     11  N   UNL     1      47.135   0.013   7.806  0.00  0.00    +0.000 NA
ATOM     12  H   UNL     1      48.036   0.070   8.282  0.00  0.00    +0.000 HD
ATOM     13  H   UNL     1      47.034  -0.955   7.503  0.00  0.00    +0.000 HD
ENDBRANCH  10  11
ENDBRANCH   9  10
ENDBRANCH   8   9
ENDBRANCH   7   8
ENDBRANCH   1   7
BRANCH   4  14
ATOM     14  C   UNL     1      43.211   4.032  12.320  0.00  0.00    +0.000 C 
BRANCH  14  15
ATOM     15  O   UNL     1      44.199   3.817  13.330  0.00  0.00    +0.000 OA
BRANCH  15  16
ATOM     16  C   UNL     1      45.255   4.687  13.326  0.00  0.00    +0.000 A 
ATOM     17  C   UNL     1      45.193   6.052  13.056  0.00  0.00    +0.000 A 
ATOM     18  C   UNL     1      46.352   6.824  13.098  0.00  0.00    +0.000 A 
ATOM     19  C   UNL     1      47.553   6.203  13.411  0.00  0.00    +0.000 A 
ATOM     20  N   UNL     1      47.666   4.871  13.675  0.00  0.00    +0.000 NA
ATOM     21  C   UNL     1      46.510   4.156  13.622  0.00  0.00    +0.000 A 
BRANCH  19  22
ATOM     22  C   UNL     1      48.800   7.027  13.477  0.00  0.00    +0.000 C 
ATOM     23  N   UNL     1      48.927   8.004  12.528  0.00  0.00    +0.000 N 
ATOM     24  O   UNL     1      49.666   6.845  14.327  0.00  0.00    +0.000 OA
ATOM     25  H   UNL     1      48.199   8.128  11.834  0.00  0.00    +0.000 HD
ATOM     26  H   UNL     1      49.755   8.580  12.517  0.00  0.00    +0.000 HD
ENDBRANCH  19  22
ENDBRANCH  15  16
ENDBRANCH  14  15
ENDBRANCH   4  14
TORSDOF 9
ENDMDL
MODEL 5
REMARK VINA RESULT:    -6.478      2.905      3.777
REMARK INTER + INTRA:         -10.619
REMARK INTER:                  -9.864
REMARK INTRA:                  -0.755
REMARK UNBOUND:                -0.922
REMARK  Name = 
REMARK  9 active torsions:
REMARK  status: ('A' for Active; 'I' for Inactive)
REMARK    1  A    between atoms: N_1  and  C_2
REMARK    2  A    between atoms: C_2  and  C_3
REMARK    3  A    between atoms: C_3  and  C_4
REMARK    4  A    between atoms: C_4  and  O_5
REMARK    5  A    between atoms: O_5  and  C_6
REMARK    6  A    between atoms: C_9  and  C_10
REMARK    7  A    between atoms: C_10  and  O_11
REMARK    8  A    between atoms: O_11  and  C_12
REMARK    9  A    between atoms: C_15  and  C_16
REMARK                            x       y       z     vdW  Elec       q    Type
REMARK                         _______ _______ _______ _____ _____    ______ ____
ROOT
ATOM      1  C   UNL     1      46.134   7.485  12.558  0.00  0.00    +0.000 A 
ATOM      2  C   UNL     1      46.552   6.223  12.984  0.00  0.00    +0.000 A 
ATOM      3  C   UNL     1      45.783   5.089  12.702  0.00  0.00    +0.000 A 
ATOM      4  C   UNL     1      44.590   5.198  11.979  0.00  0.00    +0.000 A 
ATOM      5  C   UNL     1      44.164   6.468  11.569  0.00  0.00    +0.000 A 
ATOM      6  C   UNL     1      44.938   7.600  11.849  0.00  0.00    +0.000 A 
ENDROOT
BRANCH   1   7
ATOM      7  O   UNL     1      46.801   8.664  12.775  0.00  0.00    +0.000 OA
BRANCH   7   8
ATOM      8  C   UNL     1      47.947   8.886  11.950  0.00  0.00    +0.000 C 
BRANCH   8   9
ATOM      9  C   UNL     1      49.213   8.701  12.781  0.00  0.00    +0.000 C 
BRANCH   9  10
ATOM     10  C   UNL     1      50.469   8.702  11.911  0.00  0.00    +0.000 C 
BRANCH  10  11
ATOM     11  N   UNL     1      50.822   7.354  11.476  0.00  0.00    +0.000 NA
ATOM     12  H   UNL     1      50.360   6.669  12.074  0.00  0.00    +0.000 HD
ATOM     13  H   UNL     1      51.824   7.207  11.595  0.00  0.00    +0.000 HD
ENDBRANCH  10  11
ENDBRANCH   9  10
ENDBRANCH   8   9
ENDBRANCH   7   8
ENDBRANCH   1   7
BRANCH   4  14
ATOM     14  C   UNL     1      43.804   3.963  11.616  0.00  0.00    +0.000 C 
BRANCH  14  15
ATOM     15  O   UNL     1      43.481   3.960  10.224  0.00  0.00    +0.000 OA
BRANCH  15  16
ATOM     16  C   UNL     1      44.442   3.457   9.390  0.00  0.00    +0.000 A 
ATOM     17  C   UNL     1      44.861   2.130   9.328  0.00  0.00    +0.000 A 
ATOM     18  C   UNL     1      45.847   1.753   8.418  0.00  0.00    +0.000 A 
ATOM     19  C   UNL     1      46.391   2.723   7.589  0.00  0.00    +0.000 A 
ATOM     20  N   UNL     1      46.020   4.033   7.617  0.00  0.00    +0.000 NA
ATOM     21  C   UNL     1      45.056   4.357   8.521  0.00  0.00    +0.000 A 
BRANCH  19  22
ATOM     22  C   UNL     1      47.438   2.323   6.596  0.00  0.00    +0.000 C 
ATOM     23  N   UNL     1      47.418   2.988   5.401  0.00  0.00    +0.000 N 
ATOM     24  O   UNL     1      48.267   1.450   6.829  0.00  0.00    +0.000 OA
ATOM     25  H   UNL     1      46.717   3.700   5.232  0.00  0.00    +0.000 HD
ATOM     26  H   UNL     1      48.092   2.749   4.689  0.00  0.00    +0.000 HD
ENDBRANCH  19  22
ENDBRANCH  15  16
ENDBRANCH  14  15
ENDBRANCH   4  14
TORSDOF 9
ENDMDL
MODEL 6
REMARK VINA RESULT:    -6.328      1.804      7.808
REMARK INTER + INTRA:         -10.394
REMARK INTER:                  -9.547
REMARK INTRA:                  -0.847
REMARK UNBOUND:                -0.922
REMARK  Name = 
REMARK  9 active torsions:
REMARK  status: ('A' for Active; 'I' for Inactive)
REMARK    1  A    between atoms: N_1  and  C_2
REMARK    2  A    between atoms: C_2  and  C_3
REMARK    3  A    between atoms: C_3  and  C_4
REMARK    4  A    between atoms: C_4  and  O_5
REMARK    5  A    between atoms: O_5  and  C_6
REMARK    6  A    between atoms: C_9  and  C_10
REMARK    7  A    between atoms: C_10  and  O_11
REMARK    8  A    between atoms: O_11  and  C_12
REMARK    9  A    between atoms: C_15  and  C_16
REMARK                            x       y       z     vdW  Elec       q    Type
REMARK                         _______ _______ _______ _____ _____    ______ ____
ROOT
ATOM      1  C   UNL     1      45.238   3.928   8.946  0.00  0.00    +0.000 A 
ATOM      2  C   UNL     1      44.793   3.188  10.043  0.00  0.00    +0.000 A 
ATOM      3  C   UNL     1      44.883   3.713  11.336  0.00  0.00    +0.000 A 
ATOM      4  C   UNL     1      45.407   4.993  11.551  0.00  0.00    +0.000 A 
ATOM      5  C   UNL     1      45.869   5.726  10.450  0.00  0.00    +0.000 A 
ATOM      6  C   UNL     1      45.774   5.199   9.157  0.00  0.00    +0.000 A 
ENDROOT
BRANCH   1   7
ATOM      7  O   UNL     1      45.201   3.518   7.637  0.00  0.00    +0.000 OA
BRANCH   7   8
ATOM      8  C   UNL     1      46.407   3.716   6.894  0.00  0.00    +0.000 C 
BRANCH   8   9
ATOM      9  C   UNL     1      46.777   2.422   6.175  0.00  0.00    +0.000 C 
BRANCH   9  10
ATOM     10  C   UNL     1      47.494   1.442   7.102  0.00  0.00    +0.000 C 
BRANCH  10  11
ATOM     11  N   UNL     1      46.559   0.767   7.997  0.00  0.00    +0.000 NA
ATOM     12  H   UNL     1      46.023   0.075   7.474  0.00  0.00    +0.000 HD
ATOM     13  H   UNL     1      45.882   1.440   8.357  0.00  0.00    +0.000 HD
ENDBRANCH  10  11
ENDBRANCH   9  10
ENDBRANCH   8   9
ENDBRANCH   7   8
ENDBRANCH   1   7
BRANCH   4  14
ATOM     14  C   UNL     1      45.434   5.582  12.939  0.00  0.00    +0.000 C 
BRANCH  14  15
ATOM     15  O   UNL     1      46.752   6.019  13.278  0.00  0.00    +0.000 OA
BRANCH  15  16
ATOM     16  C   UNL     1      47.299   5.451  14.396  0.00  0.00    +0.000 A 
ATOM     17  C   UNL     1      48.069   6.106  15.355  0.00  0.00    +0.000 A 
ATOM     18  C   UNL     1      48.555   5.403  16.456  0.00  0.00    +0.000 A 
ATOM     19  C   UNL     1      48.256   4.053  16.567  0.00  0.00    +0.000 A 
ATOM     20  N   UNL     1      47.514   3.367  15.653  0.00  0.00    +0.000 NA
ATOM     21  C   UNL     1      47.060   4.092  14.595  0.00  0.00    +0.000 A 
BRANCH  19  22
ATOM     22  C   UNL     1      48.759   3.294  17.755  0.00  0.00    +0.000 C 
ATOM     23  N   UNL     1      48.058   3.462  18.917  0.00  0.00    +0.000 N 
ATOM     24  O   UNL     1      49.743   2.564  17.702  0.00  0.00    +0.000 OA
ATOM     25  H   UNL     1      47.252   4.076  18.935  0.00  0.00    +0.000 HD
ATOM     26  H   UNL     1      48.361   2.985  19.753  0.00  0.00    +0.000 HD
ENDBRANCH  19  22
ENDBRANCH  15  16
ENDBRANCH  14  15
ENDBRANCH   4  14
TORSDOF 9
ENDMDL
MODEL 7
REMARK VINA RESULT:    -6.219      1.964      8.221
REMARK INTER + INTRA:         -10.232
REMARK INTER:                  -9.659
REMARK INTRA:                  -0.573
REMARK UNBOUND:                -0.922
REMARK  Name = 
REMARK  9 active torsions:
REMARK  status: ('A' for Active; 'I' for Inactive)
REMARK    1  A    between atoms: N_1  and  C_2
REMARK    2  A    between atoms: C_2  and  C_3
REMARK    3  A    between atoms: C_3  and  C_4
REMARK    4  A    between atoms: C_4  and  O_5
REMARK    5  A    between atoms: O_5  and  C_6
REMARK    6  A    between atoms: C_9  and  C_10
REMARK    7  A    between atoms: C_10  and  O_11
REMARK    8  A    between atoms: O_11  and  C_12
REMARK    9  A    between atoms: C_15  and  C_16
REMARK                            x       y       z     vdW  Elec       q    Type
REMARK                         _______ _______ _______ _____ _____    ______ ____
ROOT
ATOM      1  C   UNL     1      45.226   4.378   9.813  0.00  0.00    +0.000 A 
ATOM      2  C   UNL     1      45.737   5.624  10.182  0.00  0.00    +0.000 A 
ATOM      3  C   UNL     1      46.029   5.902  11.521  0.00  0.00    +0.000 A 
ATOM      4  C   UNL     1      45.825   4.935  12.511  0.00  0.00    +0.000 A 
ATOM      5  C   UNL     1      45.295   3.692  12.141  0.00  0.00    +0.000 A 
ATOM      6  C   UNL     1      45.009   3.415  10.799  0.00  0.00    +0.000 A 
ENDROOT
BRANCH   1   7
ATOM      7  O   UNL     1      44.903   3.992   8.536  0.00  0.00    +0.000 OA
BRANCH   7   8
ATOM      8  C   UNL     1      45.415   2.721   8.128  0.00  0.00    +0.000 C 
BRANCH   8   9
ATOM      9  C   UNL     1      46.553   2.930   7.133  0.00  0.00    +0.000 C 
BRANCH   9  10
ATOM     10  C   UNL     1      47.384   1.661   6.946  0.00  0.00    +0.000 C 
BRANCH  10  11
ATOM     11  N   UNL     1      48.364   1.814   5.876  0.00  0.00    +0.000 NA
ATOM     12  H   UNL     1      49.167   1.211   6.058  0.00  0.00    +0.000 HD
ATOM     13  H   UNL     1      48.721   2.769   5.870  0.00  0.00    +0.000 HD
ENDBRANCH  10  11
ENDBRANCH   9  10
ENDBRANCH   8   9
ENDBRANCH   7   8
ENDBRANCH   1   7
BRANCH   4  14
ATOM     14  C   UNL     1      46.210   5.216  13.943  0.00  0.00    +0.000 C 
BRANCH  14  15
ATOM     15  O   UNL     1      46.371   3.998  14.672  0.00  0.00    +0.000 OA
BRANCH  15  16
ATOM     16  C   UNL     1      47.394   3.978  15.580  0.00  0.00    +0.000 A 
ATOM     17  C   UNL     1      47.837   2.866  16.293  0.00  0.00    +0.000 A 
ATOM     18  C   UNL     1      48.903   2.988  17.182  0.00  0.00    +0.000 A 
ATOM     19  C   UNL     1      49.502   4.231  17.334  0.00  0.00    +0.000 A 
ATOM     20  N   UNL     1      49.101   5.348  16.666  0.00  0.00    +0.000 NA
ATOM     21  C   UNL     1      48.057   5.183  15.809  0.00  0.00    +0.000 A 
BRANCH  19  22
ATOM     22  C   UNL     1      50.660   4.367  18.273  0.00  0.00    +0.000 C 
ATOM     23  N   UNL     1      50.357   4.364  19.607  0.00  0.00    +0.000 N 
ATOM     24  O   UNL     1      51.816   4.479  17.880  0.00  0.00    +0.000 OA
ATOM     25  H   UNL     1      49.391   4.277  19.904  0.00  0.00    +0.000 HD
ATOM     26  H   UNL     1      51.097   4.467  20.284  0.00  0.00    +0.000 HD
ENDBRANCH  19  22
ENDBRANCH  15  16
ENDBRANCH  14  15
ENDBRANCH   4  14
TORSDOF 9
ENDMDL
MODEL 8
REMARK VINA RESULT:    -6.178      3.107      7.061
REMARK INTER + INTRA:         -10.170
REMARK INTER:                  -9.473
REMARK INTRA:                  -0.696
REMARK UNBOUND:                -0.922
REMARK  Name = 
REMARK  9 active torsions:
REMARK  status: ('A' for Active; 'I' for Inactive)
REMARK    1  A    between atoms: N_1  and  C_2
REMARK    2  A    between atoms: C_2  and  C_3
REMARK    3  A    between atoms: C_3  and  C_4
REMARK    4  A    between atoms: C_4  and  O_5
REMARK    5  A    between atoms: O_5  and  C_6
REMARK    6  A    between atoms: C_9  and  C_10
REMARK    7  A    between atoms: C_10  and  O_11
REMARK    8  A    between atoms: O_11  and  C_12
REMARK    9  A    between atoms: C_15  and  C_16
REMARK                            x       y       z     vdW  Elec       q    Type
REMARK                         _______ _______ _______ _____ _____    ______ ____
ROOT
ATOM      1  C   UNL     1      45.069   3.307   9.054  0.00  0.00    +0.000 A 
ATOM      2  C   UNL     1      44.330   2.986  10.194  0.00  0.00    +0.000 A 
ATOM      3  C   UNL     1      44.135   3.934  11.203  0.00  0.00    +0.000 A 
ATOM      4  C   UNL     1      44.667   5.223  11.083  0.00  0.00    +0.000 A 
ATOM      5  C   UNL     1      45.424   5.537   9.947  0.00  0.00    +0.000 A 
ATOM      6  C   UNL     1      45.613   4.587   8.936  0.00  0.00    +0.000 A 
ENDROOT
BRANCH   1   7
ATOM      7  O   UNL     1      45.326   2.464   8.002  0.00  0.00    +0.000 OA
BRANCH   7   8
ATOM      8  C   UNL     1      46.018   1.257   8.334  0.00  0.00    +0.000 C 
BRANCH   8   9
ATOM      9  C   UNL     1      46.983   0.901   7.206  0.00  0.00    +0.000 C 
BRANCH   9  10
ATOM     10  C   UNL     1      47.320   2.115   6.343  0.00  0.00    +0.000 C 
BRANCH  10  11
ATOM     11  N   UNL     1      48.523   1.892   5.548  0.00  0.00    +0.000 NA
ATOM     12  H   UNL     1      48.316   1.244   4.788  0.00  0.00    +0.000 HD
ATOM     13  H   UNL     1      49.235   1.441   6.121  0.00  0.00    +0.000 HD
ENDBRANCH  10  11
ENDBRANCH   9  10
ENDBRANCH   8   9
ENDBRANCH   7   8
ENDBRANCH   1   7
BRANCH   4  14
ATOM     14  C   UNL     1      44.393   6.262  12.142  0.00  0.00    +0.000 C 
BRANCH  14  15
ATOM     15  O   UNL     1      45.406   6.237  13.149  0.00  0.00    +0.000 OA
BRANCH  15  16
ATOM     16  C   UNL     1      46.592   6.832  12.816  0.00  0.00    +0.000 A 
ATOM     17  C   UNL     1      46.747   8.107  12.274  0.00  0.00    +0.000 A 
ATOM     18  C   UNL     1      48.023   8.592  11.993  0.00  0.00    +0.000 A 
ATOM     19  C   UNL     1      49.117   7.782  12.262  0.00  0.00    +0.000 A 
ATOM     20  N   UNL     1      49.016   6.528  12.783  0.00  0.00    +0.000 NA
ATOM     21  C   UNL     1      47.753   6.094  13.042  0.00  0.00    +0.000 A 
BRANCH  19  22
ATOM     22  C   UNL     1      50.492   8.303  11.979  0.00  0.00    +0.000 C 
ATOM     23  N   UNL     1      51.394   7.393  11.503  0.00  0.00    +0.000 N 
ATOM     24  O   UNL     1      50.802   9.476  12.163  0.00  0.00    +0.000 OA
ATOM     25  H   UNL     1      51.112   6.429  11.367  0.00  0.00    +0.000 HD
ATOM     26  H   UNL     1      52.339   7.686  11.309  0.00  0.00    +0.000 HD
ENDBRANCH  19  22
ENDBRANCH  15  16
ENDBRANCH  14  15
ENDBRANCH   4  14
TORSDOF 9
ENDMDL
MODEL 9
REMARK VINA RESULT:    -5.344      2.688      8.801
REMARK INTER + INTRA:          -8.921
REMARK INTER:                  -8.098
REMARK INTRA:                  -0.823
REMARK UNBOUND:                -0.922
REMARK  Name = 
REMARK  9 active torsions:
REMARK  status: ('A' for Active; 'I' for Inactive)
REMARK    1  A    between atoms: N_1  and  C_2
REMARK    2  A    between atoms: C_2  and  C_3
REMARK    3  A    between atoms: C_3  and  C_4
REMARK    4  A    between atoms: C_4  and  O_5
REMARK    5  A    between atoms: O_5  and  C_6
REMARK    6  A    between atoms: C_9  and  C_10
REMARK    7  A    between atoms: C_10  and  O_11
REMARK    8  A    between atoms: O_11  and  C_12
REMARK    9  A    between atoms: C_15  and  C_16
REMARK                            x       y       z     vdW  Elec       q    Type
REMARK                         _______ _______ _______ _____ _____    ______ ____
ROOT
ATOM      1  C   UNL     1      45.257   4.801  11.145  0.00  0.00    +0.000 A 
ATOM      2  C   UNL     1      45.526   4.171  12.362  0.00  0.00    +0.000 A 
ATOM      3  C   UNL     1      46.331   4.793  13.320  0.00  0.00    +0.000 A 
ATOM      4  C   UNL     1      46.871   6.062  13.083  0.00  0.00    +0.000 A 
ATOM      5  C   UNL     1      46.614   6.685  11.855  0.00  0.00    +0.000 A 
ATOM      6  C   UNL     1      45.804   6.061  10.899  0.00  0.00    +0.000 A 
ENDROOT
BRANCH   1   7
ATOM      7  O   UNL     1      44.484   4.291  10.133  0.00  0.00    +0.000 OA
BRANCH   7   8
ATOM      8  C   UNL     1      44.193   2.894  10.223  0.00  0.00    +0.000 C 
BRANCH   8   9
ATOM      9  C   UNL     1      44.513   2.223   8.890  0.00  0.00    +0.000 C 
BRANCH   9  10
ATOM     10  C   UNL     1      45.851   2.694   8.325  0.00  0.00    +0.000 C 
BRANCH  10  11
ATOM     11  N   UNL     1      45.681   3.814   7.404  0.00  0.00    +0.000 NA
ATOM     12  H   UNL     1      45.553   3.461   6.456  0.00  0.00    +0.000 HD
ATOM     13  H   UNL     1      46.532   4.376   7.387  0.00  0.00    +0.000 HD
ENDBRANCH  10  11
ENDBRANCH   9  10
ENDBRANCH   8   9
ENDBRANCH   7   8
ENDBRANCH   1   7
BRANCH   4  14
ATOM     14  C   UNL     1      47.679   6.758  14.150  0.00  0.00    +0.000 C 
BRANCH  14  15
ATOM     15  O   UNL     1      48.615   5.856  14.744  0.00  0.00    +0.000 OA
BRANCH  15  16
ATOM     16  C   UNL     1      48.450   5.623  16.082  0.00  0.00    +0.000 A 
ATOM     17  C   UNL     1      47.679   4.611  16.650  0.00  0.00    +0.000 A 
ATOM     18  C   UNL     1      47.610   4.483  18.036  0.00  0.00    +0.000 A 
ATOM     19  C   UNL     1      48.320   5.379  18.822  0.00  0.00    +0.000 A 
ATOM     20  N   UNL     1      49.080   6.389  18.315  0.00  0.00    +0.000 NA
ATOM     21  C   UNL     1      49.119   6.477  16.958  0.00  0.00    +0.000 A 
BRANCH  19  22
ATOM     22  C   UNL     1      48.266   5.238  20.312  0.00  0.00    +0.000 C 
ATOM     23  N   UNL     1      47.096   5.617  20.910  0.00  0.00    +0.000 N 
ATOM     24  O   UNL     1      49.211   4.811  20.967  0.00  0.00    +0.000 OA
ATOM     25  H   UNL     1      46.334   5.973  20.345  0.00  0.00    +0.000 HD
ATOM     26  H   UNL     1      47.010   5.556  21.913  0.00  0.00    +0.000 HD
ENDBRANCH  19  22
ENDBRANCH  15  16
ENDBRANCH  14  15
ENDBRANCH   4  14
TORSDOF 9
ENDMDL
