MODEL 1
REMARK VINA RESULT:    -8.958      0.000      0.000
REMARK INTER + INTRA:         -11.728
REMARK INTER:                 -11.052
REMARK INTRA:                  -0.676
REMARK UNBOUND:                -0.676
REMARK  Name = 
REMARK  4 active torsions:
REMARK  status: ('A' for Active; 'I' for Inactive)
REMARK    1  A    between atoms: C_2  and  C_4
REMARK    2  A    between atoms: N_8  and  C_9
REMARK    3  A    between atoms: C_9  and  C_10
REMARK    4  A    between atoms: C_14  and  N_15
REMARK                            x       y       z     vdW  Elec       q    Type
REMARK                         _______ _______ _______ _____ _____    ______ ____
ROOT
ATOM      1  C   UNL     1      46.385   2.270   7.713  0.00  0.00    +0.000 A 
ATOM      2  C   UNL     1      45.575   1.803   8.737  0.00  0.00    +0.000 A 
ATOM      3  C   UNL     1      44.741   2.696   9.410  0.00  0.00    +0.000 A 
ATOM      4  C   UNL     1      44.735   4.050   9.053  0.00  0.00    +0.000 A 
ATOM      5  N   UNL     1      43.871   4.977   9.600  0.00  0.00    +0.000 N 
ATOM      6  N   UNL     1      45.528   4.507   8.067  0.00  0.00    +0.000 NA
ATOM      7  C   UNL     1      46.339   3.625   7.422  0.00  0.00    +0.000 A 
ATOM      8  H   UNL     1      44.100   5.903   9.243  0.00  0.00    +0.000 HD
ENDROOT
BRANCH   1  10
ATOM      9  N   UNL     1      48.466   1.975   6.494  0.00  0.00    +0.000 N 
ATOM     10  C   UNL     1      47.311   1.401   6.954  0.00  0.00    +0.000 C 
ATOM     11  O   UNL     1      47.072   0.222   6.773  0.00  0.00    +0.000 OA
ATOM     12  H   UNL     1      49.134   1.346   6.064  0.00  0.00    +0.000 HD
ATOM     13  H   UNL     1      48.812   2.859   6.836  0.00  0.00    +0.000 HD
ENDBRANCH   1  10
BRANCH   5  14
ATOM     14  C   UNL     1      43.431   4.884  10.978  0.00  0.00    +0.000 C 
BRANCH  14  15
ATOM     15  C   UNL     1      44.560   5.012  11.973  0.00  0.00    +0.000 A 
ATOM     16  C   UNL     1      44.759   3.973  12.876  0.00  0.00    +0.000 A 
ATOM     17  N   UNL     1      45.716   3.960  13.831  0.00  0.00    +0.000 NA
ATOM     18  C   UNL     1      46.503   5.054  13.889  0.00  0.00    +0.000 A 
ATOM     19  C   UNL     1      46.400   6.184  13.074  0.00  0.00    +0.000 A 
ATOM     20  C   UNL     1      45.376   6.143  12.111  0.00  0.00    +0.000 A 
BRANCH  19  21
ATOM     21  N   UNL     1      47.245   7.257  13.221  0.00  0.00    +0.000 N 
ATOM     22  C   UNL     1      46.771   8.643  13.311  0.00  0.00    +0.000 C 
ATOM     23  C   UNL     1      47.319   9.485  12.153  0.00  0.00    +0.000 C 
ATOM     24  O   UNL     1      48.749   9.376  12.047  0.00  0.00    +0.000 OA
ATOM     25  C   UNL     1      49.125   8.008  11.817  0.00  0.00    +0.000 C 
ATOM     26  C   UNL     1      48.688   7.100  12.978  0.00  0.00    +0.000 C 
ENDBRANCH  19  21
ENDBRANCH  14  15
ENDBRANCH   5  14
TORSDOF 4
ENDMDL
MODEL 2
REMARK VINA RESULT:    -8.502      1.846      2.764
REMARK INTER + INTRA:         -11.166
REMARK INTER:                 -10.450
REMARK INTRA:                  -0.715
REMARK UNBOUND:                -0.676
REMARK  Name = 
REMARK  4 active torsions:
REMARK  status: ('A' for Active; 'I' for Inactive)
REMARK    1  A    between atoms: C_2  and  C_4
REMARK    2  A    between atoms: N_8  and  C_9
REMARK    3  A    between atoms: C_9  and  C_10
REMARK    4  A    between atoms: C_14  and  N_15
REMARK                            x       y       z     vdW  Elec       q    Type
REMARK                         _______ _______ _______ _____ _____    ______ ____
ROOT
ATOM      1  C   UNL     1      46.353   2.207   7.666  0.00  0.00    +0.000 A 
ATOM      2  C   UNL     1      45.679   1.789   8.805  0.00  0.00    +0.000 A 
ATOM      3  C   UNL     1      44.826   2.677   9.459  0.00  0.00    +0.000 A 
ATOM      4  C   UNL     1      44.663   3.979   8.968  0.00  0.00    +0.000 A 
ATOM      5  N   UNL     1      43.767   4.885   9.497  0.00  0.00    +0.000 N 
ATOM      6  N   UNL     1      45.324   4.390   7.870  0.00  0.00    +0.000 NA
ATOM      7  C   UNL     1      46.156   3.513   7.245  0.00  0.00    +0.000 A 
ATOM      8  H   UNL     1      43.877   5.782   9.028  0.00  0.00    +0.000 HD
ENDROOT
BRANCH   1  10
ATOM      9  N   UNL     1      48.413   1.933   6.407  0.00  0.00    +0.000 N 
ATOM     10  C   UNL     1      47.287   1.340   6.916  0.00  0.00    +0.000 C 
ATOM     11  O   UNL     1      47.082   0.149   6.783  0.00  0.00    +0.000 OA
ATOM     12  H   UNL     1      49.089   1.310   5.984  0.00  0.00    +0.000 HD
ATOM     13  H   UNL     1      48.738   2.839   6.709  0.00  0.00    +0.000 HD
ENDBRANCH   1  10
BRANCH   5  14
ATOM     14  C   UNL     1      43.456   4.908  10.912  0.00  0.00    +0.000 C 
BRANCH  14  15
ATOM     15  C   UNL     1      44.459   5.687  11.730  0.00  0.00    +0.000 A 
ATOM     16  C   UNL     1      44.438   7.075  11.646  0.00  0.00    +0.000 A 
ATOM     17  N   UNL     1      45.286   7.896  12.306  0.00  0.00    +0.000 NA
ATOM     18  C   UNL     1      46.211   7.289  13.077  0.00  0.00    +0.000 A 
ATOM     19  C   UNL     1      46.374   5.909  13.232  0.00  0.00    +0.000 A 
ATOM     20  C   UNL     1      45.471   5.109  12.508  0.00  0.00    +0.000 A 
BRANCH  19  21
ATOM     21  N   UNL     1      47.359   5.387  14.035  0.00  0.00    +0.000 N 
ATOM     22  C   UNL     1      47.273   4.053  14.640  0.00  0.00    +0.000 C 
ATOM     23  C   UNL     1      47.289   4.144  16.170  0.00  0.00    +0.000 C 
ATOM     24  O   UNL     1      48.406   4.917  16.644  0.00  0.00    +0.000 OA
ATOM     25  C   UNL     1      48.342   6.253  16.120  0.00  0.00    +0.000 C 
ATOM     26  C   UNL     1      48.406   6.261  14.584  0.00  0.00    +0.000 C 
ENDBRANCH  19  21
ENDBRANCH  14  15
ENDBRANCH   5  14
TORSDOF 4
ENDMDL
MODEL 3
REMARK VINA RESULT:    -7.315      1.595      2.167
REMARK INTER + INTRA:          -9.702
REMARK INTER:                  -9.375
REMARK INTRA:                  -0.327
REMARK UNBOUND:                -0.676
REMARK  Name = 
REMARK  4 active torsions:
REMARK  status: ('A' for Active; 'I' for Inactive)
REMARK    1  A    between atoms: C_2  and  C_4
REMARK    2  A    between atoms: N_8  and  C_9
REMARK    3  A    between atoms: C_9  and  C_10
REMARK    4  A    between atoms: C_14  and  N_15
REMARK                            x       y       z     vdW  Elec       q    Type
REMARK                         _______ _______ _______ _____ _____    ______ ____
ROOT
ATOM      1  C   UNL     1      46.546   2.778   7.258  0.00  0.00    +0.000 A 
ATOM      2  C   UNL     1      46.011   3.965   7.736  0.00  0.00    +0.000 A 
ATOM      3  C   UNL     1      45.288   3.959   8.929  0.00  0.00    +0.000 A 
ATOM      4  C   UNL     1      45.104   2.759   9.626  0.00  0.00    +0.000 A 
ATOM      5  N   UNL     1      44.488   2.683  10.859  0.00  0.00    +0.000 N 
ATOM      6  N   UNL     1      45.612   1.604   9.160  0.00  0.00    +0.000 NA
ATOM      7  C   UNL     1      46.311   1.625   7.993  0.00  0.00    +0.000 A 
ATOM      8  H   UNL     1      44.403   1.706  11.135  0.00  0.00    +0.000 HD
ENDROOT
BRANCH   1  10
ATOM      9  N   UNL     1      48.652   2.419   6.101  0.00  0.00    +0.000 N 
ATOM     10  C   UNL     1      47.312   2.685   5.997  0.00  0.00    +0.000 C 
ATOM     11  O   UNL     1      46.772   2.810   4.914  0.00  0.00    +0.000 OA
ATOM     12  H   UNL     1      49.142   2.260   5.229  0.00  0.00    +0.000 HD
ATOM     13  H   UNL     1      49.075   2.063   6.945  0.00  0.00    +0.000 HD
ENDBRANCH   1  10
BRANCH   5  14
ATOM     14  C   UNL     1      43.404   3.573  11.223  0.00  0.00    +0.000 C 
BRANCH  14  15
ATOM     15  C   UNL     1      43.865   4.979  11.527  0.00  0.00    +0.000 A 
ATOM     16  C   UNL     1      43.117   6.038  11.025  0.00  0.00    +0.000 A 
ATOM     17  N   UNL     1      43.420   7.343  11.202  0.00  0.00    +0.000 NA
ATOM     18  C   UNL     1      44.540   7.596  11.909  0.00  0.00    +0.000 A 
ATOM     19  C   UNL     1      45.407   6.639  12.444  0.00  0.00    +0.000 A 
ATOM     20  C   UNL     1      45.045   5.299  12.213  0.00  0.00    +0.000 A 
BRANCH  19  21
ATOM     21  N   UNL     1      46.535   6.998  13.141  0.00  0.00    +0.000 N 
ATOM     22  C   UNL     1      46.802   8.374  13.575  0.00  0.00    +0.000 C 
ATOM     23  C   UNL     1      48.088   8.910  12.936  0.00  0.00    +0.000 C 
ATOM     24  O   UNL     1      49.197   8.018  13.145  0.00  0.00    +0.000 OA
ATOM     25  C   UNL     1      48.915   6.733  12.568  0.00  0.00    +0.000 C 
ATOM     26  C   UNL     1      47.682   6.080  13.215  0.00  0.00    +0.000 C 
ENDBRANCH  19  21
ENDBRANCH  14  15
ENDBRANCH   5  14
TORSDOF 4
ENDMDL
MODEL 4
REMARK VINA RESULT:    -7.019      1.775      6.754
REMARK INTER + INTRA:          -9.336
REMARK INTER:                  -8.683
REMARK INTRA:                  -0.653
REMARK UNBOUND:                -0.676
REMARK  Name = 
REMARK  4 active torsions:
REMARK  status: ('A' for Active; 'I' for Inactive)
REMARK    1  A    between atoms: C_2  and  C_4
REMARK    2  A    between atoms: N_8  and  C_9
REMARK    3  A    between atoms: C_9  and  C_10
REMARK    4  A    between atoms: C_14  and  N_15
REMARK                            x       y       z     vdW  Elec       q    Type
REMARK                         _______ _______ _______ _____ _____    ______ ____
ROOT
ATOM      1  C   UNL     1      49.558   8.083  12.336  0.00  0.00    +0.000 A 
ATOM      2  C   UNL     1      48.397   8.648  11.828  0.00  0.00    +0.000 A 
ATOM      3  C   UNL     1      47.162   8.104  12.178  0.00  0.00    +0.000 A 
ATOM      4  C   UNL     1      47.104   6.993  13.028  0.00  0.00    +0.000 A 
ATOM      5  N   UNL     1      45.924   6.457  13.500  0.00  0.00    +0.000 N 
ATOM      6  N   UNL     1      48.229   6.436  13.513  0.00  0.00    +0.000 NA
ATOM      7  C   UNL     1      49.427   6.976  13.160  0.00  0.00    +0.000 A 
ATOM      8  H   UNL     1      46.125   5.615  14.037  0.00  0.00    +0.000 HD
ENDROOT
BRANCH   1  10
ATOM      9  N   UNL     1      51.947   8.122  12.778  0.00  0.00    +0.000 N 
ATOM     10  C   UNL     1      50.911   8.582  12.009  0.00  0.00    +0.000 C 
ATOM     11  O   UNL     1      51.100   9.343  11.079  0.00  0.00    +0.000 OA
ATOM     12  H   UNL     1      52.876   8.394  12.480  0.00  0.00    +0.000 HD
ATOM     13  H   UNL     1      51.867   7.313  13.376  0.00  0.00    +0.000 HD
ENDBRANCH   1  10
BRANCH   5  14
ATOM     14  C   UNL     1      44.715   6.461  12.701  0.00  0.00    +0.000 C 
BRANCH  14  15
ATOM     15  C   UNL     1      44.372   5.104  12.132  0.00  0.00    +0.000 A 
ATOM     16  C   UNL     1      43.784   4.168  12.976  0.00  0.00    +0.000 A 
ATOM     17  N   UNL     1      43.442   2.913  12.610  0.00  0.00    +0.000 NA
ATOM     18  C   UNL     1      43.717   2.578  11.333  0.00  0.00    +0.000 A 
ATOM     19  C   UNL     1      44.333   3.397  10.384  0.00  0.00    +0.000 A 
ATOM     20  C   UNL     1      44.679   4.686  10.830  0.00  0.00    +0.000 A 
BRANCH  19  21
ATOM     21  N   UNL     1      44.583   2.958   9.106  0.00  0.00    +0.000 N 
ATOM     22  C   UNL     1      44.890   1.559   8.787  0.00  0.00    +0.000 C 
ATOM     23  C   UNL     1      46.285   1.431   8.167  0.00  0.00    +0.000 C 
ATOM     24  O   UNL     1      46.454   2.323   7.050  0.00  0.00    +0.000 OA
ATOM     25  C   UNL     1      46.278   3.685   7.473  0.00  0.00    +0.000 C 
ATOM     26  C   UNL     1      44.866   3.924   8.034  0.00  0.00    +0.000 C 
ENDBRANCH  19  21
ENDBRANCH  14  15
ENDBRANCH   5  14
TORSDOF 4
ENDMDL
MODEL 5
REMARK VINA RESULT:    -6.707      3.586      8.324
REMARK INTER + INTRA:          -8.951
REMARK INTER:                  -8.519
REMARK INTRA:                  -0.432
REMARK UNBOUND:                -0.676
REMARK  Name = 
REMARK  4 active torsions:
REMARK  status: ('A' for Active; 'I' for Inactive)
REMARK    1  A    between atoms: C_2  and  C_4
REMARK    2  A    between atoms: N_8  and  C_9
REMARK    3  A    between atoms: C_9  and  C_10
REMARK    4  A    between atoms: C_14  and  N_15
REMARK                            x       y       z     vdW  Elec       q    Type
REMARK                         _______ _______ _______ _____ _____    ______ ____
ROOT
ATOM      1  C   UNL     1      48.928   4.814  18.248  0.00  0.00    +0.000 A 
ATOM      2  C   UNL     1      49.065   5.664  17.160  0.00  0.00    +0.000 A 
ATOM      3  C   UNL     1      48.219   5.511  16.062  0.00  0.00    +0.000 A 
ATOM      4  C   UNL     1      47.250   4.500  16.064  0.00  0.00    +0.000 A 
ATOM      5  N   UNL     1      46.312   4.344  15.063  0.00  0.00    +0.000 N 
ATOM      6  N   UNL     1      47.122   3.667  17.113  0.00  0.00    +0.000 NA
ATOM      7  C   UNL     1      47.957   3.827  18.175  0.00  0.00    +0.000 A 
ATOM      8  H   UNL     1      45.764   3.504  15.242  0.00  0.00    +0.000 HD
ENDROOT
BRANCH   1  10
ATOM      9  N   UNL     1      49.438   4.110  20.517  0.00  0.00    +0.000 N 
ATOM     10  C   UNL     1      49.788   4.892  19.449  0.00  0.00    +0.000 C 
ATOM     11  O   UNL     1      50.780   5.597  19.476  0.00  0.00    +0.000 OA
ATOM     12  H   UNL     1      50.090   4.099  21.292  0.00  0.00    +0.000 HD
ATOM     13  H   UNL     1      48.790   3.340  20.442  0.00  0.00    +0.000 HD
ENDBRANCH   1  10
BRANCH   5  14
ATOM     14  C   UNL     1      46.617   4.657  13.681  0.00  0.00    +0.000 C 
BRANCH  14  15
ATOM     15  C   UNL     1      45.470   4.376  12.740  0.00  0.00    +0.000 A 
ATOM     16  C   UNL     1      44.175   4.584  13.202  0.00  0.00    +0.000 A 
ATOM     17  N   UNL     1      43.056   4.358  12.478  0.00  0.00    +0.000 NA
ATOM     18  C   UNL     1      43.250   3.884  11.231  0.00  0.00    +0.000 A 
ATOM     19  C   UNL     1      44.485   3.595  10.644  0.00  0.00    +0.000 A 
ATOM     20  C   UNL     1      45.610   3.838  11.454  0.00  0.00    +0.000 A 
BRANCH  19  21
ATOM     21  N   UNL     1      44.577   3.102   9.365  0.00  0.00    +0.000 N 
ATOM     22  C   UNL     1      44.889   1.699   9.069  0.00  0.00    +0.000 C 
ATOM     23  C   UNL     1      46.192   1.584   8.272  0.00  0.00    +0.000 C 
ATOM     24  O   UNL     1      46.177   2.425   7.105  0.00  0.00    +0.000 OA
ATOM     25  C   UNL     1      46.010   3.800   7.487  0.00  0.00    +0.000 C 
ATOM     26  C   UNL     1      44.678   4.024   8.223  0.00  0.00    +0.000 C 
ENDBRANCH  19  21
ENDBRANCH  14  15
ENDBRANCH   5  14
TORSDOF 4
ENDMDL
MODEL 6
REMARK VINA RESULT:    -6.531      5.048      8.266
REMARK INTER + INTRA:          -8.734
REMARK INTER:                  -8.136
REMARK INTRA:                  -0.598
REMARK UNBOUND:                -0.676
REMARK  Name = 
REMARK  4 active torsions:
REMARK  status: ('A' for Active; 'I' for Inactive)
REMARK    1  A    between atoms: C_2  and  C_4
REMARK    2  A    between atoms: N_8  and  C_9
REMARK    3  A    between atoms: C_9  and  C_10
REMARK    4  A    between atoms: C_14  and  N_15
REMARK                            x       y       z     vdW  Elec       q    Type
REMARK                         _______ _______ _______ _____ _____    ______ ____
ROOT
ATOM      1  C   UNL     1      51.905   2.476  17.760  0.00  0.00    +0.000 A 
ATOM      2  C   UNL     1      51.296   3.635  18.218  0.00  0.00    +0.000 A 
ATOM      3  C   UNL     1      49.946   3.853  17.942  0.00  0.00    +0.000 A 
ATOM      4  C   UNL     1      49.224   2.909  17.202  0.00  0.00    +0.000 A 
ATOM      5  N   UNL     1      47.867   3.000  16.970  0.00  0.00    +0.000 N 
ATOM      6  N   UNL     1      49.816   1.789  16.747  0.00  0.00    +0.000 NA
ATOM      7  C   UNL     1      51.134   1.593  17.021  0.00  0.00    +0.000 A 
ATOM      8  H   UNL     1      47.578   2.245  16.351  0.00  0.00    +0.000 HD
ENDROOT
BRANCH   1  10
ATOM      9  N   UNL     1      53.622   0.962  18.574  0.00  0.00    +0.000 N 
ATOM     10  C   UNL     1      53.333   2.168  17.991  0.00  0.00    +0.000 C 
ATOM     11  O   UNL     1      54.213   2.936  17.651  0.00  0.00    +0.000 OA
ATOM     12  H   UNL     1      54.604   0.723  18.635  0.00  0.00    +0.000 HD
ATOM     13  H   UNL     1      52.954   0.208  18.633  0.00  0.00    +0.000 HD
ENDBRANCH   1  10
BRANCH   5  14
ATOM     14  C   UNL     1      47.209   4.282  16.807  0.00  0.00    +0.000 C 
BRANCH  14  15
ATOM     15  C   UNL     1      47.230   4.786  15.384  0.00  0.00    +0.000 A 
ATOM     16  C   UNL     1      48.163   5.759  15.046  0.00  0.00    +0.000 A 
ATOM     17  N   UNL     1      48.284   6.313  13.818  0.00  0.00    +0.000 NA
ATOM     18  C   UNL     1      47.411   5.875  12.888  0.00  0.00    +0.000 A 
ATOM     19  C   UNL     1      46.402   4.930  13.089  0.00  0.00    +0.000 A 
ATOM     20  C   UNL     1      46.318   4.402  14.390  0.00  0.00    +0.000 A 
BRANCH  19  21
ATOM     21  N   UNL     1      45.552   4.557  12.076  0.00  0.00    +0.000 N 
ATOM     22  C   UNL     1      44.903   5.522  11.181  0.00  0.00    +0.000 C 
ATOM     23  C   UNL     1      43.377   5.444  11.307  0.00  0.00    +0.000 C 
ATOM     24  O   UNL     1      42.898   4.098  11.142  0.00  0.00    +0.000 OA
ATOM     25  C   UNL     1      43.470   3.242  12.144  0.00  0.00    +0.000 C 
ATOM     26  C   UNL     1      45.004   3.193  12.036  0.00  0.00    +0.000 C 
ENDBRANCH  19  21
ENDBRANCH  14  15
ENDBRANCH   5  14
TORSDOF 4
ENDMDL
