MODEL 1
REMARK VINA RESULT:    -8.329      0.000      0.000
REMARK INTER + INTRA:         -12.800
REMARK INTER:                 -11.738
REMARK INTRA:                  -1.063
REMARK UNBOUND:                -1.063
REMARK  Name = 
REMARK  7 active torsions:
REMARK  status: ('A' for Active; 'I' for Inactive)
REMARK    1  A    between atoms: C_2  and  C_3
REMARK    2  A    between atoms: C_6  and  N_7
REMARK    3  A    between atoms: N_7  and  C_8
REMARK    4  A    between atoms: C_8  and  C_9
REMARK    5  A    between atoms: C_9  and  C_12
REMARK    6  A    between atoms: C_16  and  O_17
REMARK    7  A    between atoms: O_17  and  C_18
REMARK                            x       y       z     vdW  Elec       q    Type
REMARK                         _______ _______ _______ _____ _____    ______ ____
ROOT
ATOM      1  C   UNL     1      44.018   4.862  12.415  0.00  0.00    +0.000 C 
ATOM      2  F   UNL     1      43.134   5.495  13.245  0.00  0.00    +0.000 F 
ATOM      3  F   UNL     1      43.882   3.529  12.702  0.00  0.00    +0.000 F 
ENDROOT
BRANCH   1   4
ATOM      4  C   UNL     1      45.437   5.352  12.637  0.00  0.00    +0.000 A 
ATOM      5  C   UNL     1      46.036   6.232  11.726  0.00  0.00    +0.000 A 
ATOM      6  C   UNL     1      47.320   6.730  11.965  0.00  0.00    +0.000 A 
ATOM      7  C   UNL     1      48.030   6.350  13.111  0.00  0.00    +0.000 A 
ATOM      8  C   UNL     1      47.457   5.450  14.007  0.00  0.00    +0.000 A 
ATOM      9  C   UNL     1      46.168   4.958  13.769  0.00  0.00    +0.000 A 
BRANCH   8  10
ATOM     10  O   UNL     1      48.024   5.017  15.179  0.00  0.00    +0.000 OA
BRANCH  10  11
ATOM     11  C   UNL     1      47.318   4.082  16.023  0.00  0.00    +0.000 C 
ATOM     12  C   UNL     1      47.223   4.383  17.525  0.00  0.00    +0.000 C 
ATOM     13  O   UNL     1      47.807   3.104  17.872  0.00  0.00    +0.000 OA
ATOM     14  C   UNL     1      48.156   2.875  16.487  0.00  0.00    +0.000 C 
ENDBRANCH  10  11
ENDBRANCH   8  10
ENDBRANCH   1   4
BRANCH   1  15
ATOM     15  C   UNL     1      43.563   5.081  10.951  0.00  0.00    +0.000 C 
BRANCH  15  16
ATOM     16  N   UNL     1      43.514   3.835  10.165  0.00  0.00    +0.000 N 
ATOM     17  H   UNL     1      43.008   3.068  10.612  0.00  0.00    +0.000 HD
BRANCH  16  21
ATOM     18  C   UNL     1      46.574   2.511   7.589  0.00  0.00    +0.000 A 
ATOM     19  C   UNL     1      46.281   3.876   7.670  0.00  0.00    +0.000 A 
ATOM     20  C   UNL     1      45.287   4.327   8.538  0.00  0.00    +0.000 A 
ATOM     21  C   UNL     1      44.582   3.443   9.366  0.00  0.00    +0.000 A 
ATOM     22  C   UNL     1      44.883   2.076   9.265  0.00  0.00    +0.000 A 
ATOM     23  C   UNL     1      45.870   1.611   8.388  0.00  0.00    +0.000 A 
BRANCH  18  25
ATOM     24  N   UNL     1      48.388   1.667   5.946  0.00  0.00    +0.000 NA
ATOM     25  C   UNL     1      47.575   2.049   6.683  0.00  0.00    +0.000 C 
ENDBRANCH  18  25
ENDBRANCH  16  21
ENDBRANCH  15  16
ENDBRANCH   1  15
TORSDOF 7
ENDMDL
MODEL 2
REMARK VINA RESULT:    -7.271      1.572      2.072
REMARK INTER + INTRA:         -11.309
REMARK INTER:                 -10.522
REMARK INTRA:                  -0.787
REMARK UNBOUND:                -1.063
REMARK  Name = 
REMARK  7 active torsions:
REMARK  status: ('A' for Active; 'I' for Inactive)
REMARK    1  A    between atoms: C_2  and  C_3
REMARK    2  A    between atoms: C_6  and  N_7
REMARK    3  A    between atoms: N_7  and  C_8
REMARK    4  A    between atoms: C_8  and  C_9
REMARK    5  A    between atoms: C_9  and  C_12
REMARK    6  A    between atoms: C_16  and  O_17
REMARK    7  A    between atoms: O_17  and  C_18
REMARK                            x       y       z     vdW  Elec       q    Type
REMARK                         _______ _______ _______ _____ _____    ______ ____
ROOT
ATOM      1  C   UNL     1      45.000   4.656  12.341  0.00  0.00    +0.000 C 
ATOM      2  F   UNL     1      44.202   4.621  13.450  0.00  0.00    +0.000 F 
ATOM      3  F   UNL     1      45.489   3.382  12.216  0.00  0.00    +0.000 F 
ENDROOT
BRANCH   1   4
ATOM      4  C   UNL     1      46.109   5.681  12.484  0.00  0.00    +0.000 A 
ATOM      5  C   UNL     1      46.099   6.852  11.716  0.00  0.00    +0.000 A 
ATOM      6  C   UNL     1      47.088   7.824  11.896  0.00  0.00    +0.000 A 
ATOM      7  C   UNL     1      48.109   7.636  12.837  0.00  0.00    +0.000 A 
ATOM      8  C   UNL     1      48.148   6.460  13.583  0.00  0.00    +0.000 A 
ATOM      9  C   UNL     1      47.151   5.492  13.406  0.00  0.00    +0.000 A 
BRANCH   8  10
ATOM     10  O   UNL     1      49.068   6.160  14.554  0.00  0.00    +0.000 OA
BRANCH  10  11
ATOM     11  C   UNL     1      49.078   6.897  15.796  0.00  0.00    +0.000 C 
ATOM     12  C   UNL     1      50.411   7.479  16.288  0.00  0.00    +0.000 C 
ATOM     13  O   UNL     1      50.299   6.799  17.561  0.00  0.00    +0.000 OA
ATOM     14  C   UNL     1      49.183   6.025  17.062  0.00  0.00    +0.000 C 
ENDBRANCH  10  11
ENDBRANCH   8  10
ENDBRANCH   1   4
BRANCH   1  15
ATOM     15  C   UNL     1      44.113   4.947  11.105  0.00  0.00    +0.000 C 
BRANCH  15  16
ATOM     16  N   UNL     1      43.795   3.739  10.321  0.00  0.00    +0.000 N 
ATOM     17  H   UNL     1      43.303   3.010  10.840  0.00  0.00    +0.000 HD
BRANCH  16  21
ATOM     18  C   UNL     1      46.601   2.459   7.450  0.00  0.00    +0.000 A 
ATOM     19  C   UNL     1      45.966   1.515   8.264  0.00  0.00    +0.000 A 
ATOM     20  C   UNL     1      45.017   1.927   9.201  0.00  0.00    +0.000 A 
ATOM     21  C   UNL     1      44.654   3.274   9.332  0.00  0.00    +0.000 A 
ATOM     22  C   UNL     1      45.307   4.207   8.512  0.00  0.00    +0.000 A 
ATOM     23  C   UNL     1      46.270   3.807   7.578  0.00  0.00    +0.000 A 
BRANCH  18  25
ATOM     24  N   UNL     1      48.387   1.694   5.738  0.00  0.00    +0.000 NA
ATOM     25  C   UNL     1      47.588   2.038   6.509  0.00  0.00    +0.000 C 
ENDBRANCH  18  25
ENDBRANCH  16  21
ENDBRANCH  15  16
ENDBRANCH   1  15
TORSDOF 7
ENDMDL
MODEL 3
REMARK VINA RESULT:    -7.182      2.100      3.473
REMARK INTER + INTRA:         -11.184
REMARK INTER:                 -10.278
REMARK INTRA:                  -0.906
REMARK UNBOUND:                -1.063
REMARK  Name = 
REMARK  7 active torsions:
REMARK  status: ('A' for Active; 'I' for Inactive)
REMARK    1  A    between atoms: C_2  and  C_3
REMARK    2  A    between atoms: C_6  and  N_7
REMARK    3  A    between atoms: N_7  and  C_8
REMARK    4  A    between atoms: C_8  and  C_9
REMARK    5  A    between atoms: C_9  and  C_12
REMARK    6  A    between atoms: C_16  and  O_17
REMARK    7  A    between atoms: O_17  and  C_18
REMARK                            x       y       z     vdW  Elec       q    Type
REMARK                         _______ _______ _______ _____ _____    ______ ____
ROOT
ATOM      1  C   UNL     1      43.760   4.991  12.487  0.00  0.00    +0.000 C 
ATOM      2  F   UNL     1      42.868   5.804  13.130  0.00  0.00    +0.000 F 
ATOM      3  F   UNL     1      43.420   3.719  12.868  0.00  0.00    +0.000 F 
ENDROOT
BRANCH   1   4
ATOM      4  C   UNL     1      45.192   5.332  12.856  0.00  0.00    +0.000 A 
ATOM      5  C   UNL     1      45.871   4.593  13.833  0.00  0.00    +0.000 A 
ATOM      6  C   UNL     1      47.210   4.871  14.125  0.00  0.00    +0.000 A 
ATOM      7  C   UNL     1      47.887   5.896  13.454  0.00  0.00    +0.000 A 
ATOM      8  C   UNL     1      47.213   6.659  12.504  0.00  0.00    +0.000 A 
ATOM      9  C   UNL     1      45.874   6.375  12.208  0.00  0.00    +0.000 A 
BRANCH   8  10
ATOM     10  O   UNL     1      47.760   7.669  11.754  0.00  0.00    +0.000 OA
BRANCH  10  11
ATOM     11  C   UNL     1      47.494   9.048  12.092  0.00  0.00    +0.000 C 
ATOM     12  C   UNL     1      48.437  10.128  11.545  0.00  0.00    +0.000 C 
ATOM     13  O   UNL     1      48.709  10.638  12.873  0.00  0.00    +0.000 OA
ATOM     14  C   UNL     1      48.044   9.494  13.459  0.00  0.00    +0.000 C 
ENDBRANCH  10  11
ENDBRANCH   8  10
ENDBRANCH   1   4
BRANCH   1  15
ATOM     15  C   UNL     1      43.522   5.108  10.961  0.00  0.00    +0.000 C 
BRANCH  15  16
ATOM     16  N   UNL     1      43.519   3.805  10.271  0.00  0.00    +0.000 N 
ATOM     17  H   UNL     1      43.082   3.045  10.795  0.00  0.00    +0.000 HD
BRANCH  16  21
ATOM     18  C   UNL     1      46.545   2.497   7.646  0.00  0.00    +0.000 A 
ATOM     19  C   UNL     1      46.249   3.861   7.735  0.00  0.00    +0.000 A 
ATOM     20  C   UNL     1      45.266   4.307   8.619  0.00  0.00    +0.000 A 
ATOM     21  C   UNL     1      44.577   3.419   9.455  0.00  0.00    +0.000 A 
ATOM     22  C   UNL     1      44.881   2.053   9.347  0.00  0.00    +0.000 A 
ATOM     23  C   UNL     1      45.856   1.594   8.454  0.00  0.00    +0.000 A 
BRANCH  18  25
ATOM     24  N   UNL     1      48.344   1.670   5.978  0.00  0.00    +0.000 NA
ATOM     25  C   UNL     1      47.534   2.041   6.724  0.00  0.00    +0.000 C 
ENDBRANCH  18  25
ENDBRANCH  16  21
ENDBRANCH  15  16
ENDBRANCH   1  15
TORSDOF 7
ENDMDL
MODEL 4
REMARK VINA RESULT:    -6.955      3.060      4.682
REMARK INTER + INTRA:         -10.864
REMARK INTER:                  -9.999
REMARK INTRA:                  -0.865
REMARK UNBOUND:                -1.063
REMARK  Name = 
REMARK  7 active torsions:
REMARK  status: ('A' for Active; 'I' for Inactive)
REMARK    1  A    between atoms: C_2  and  C_3
REMARK    2  A    between atoms: C_6  and  N_7
REMARK    3  A    between atoms: N_7  and  C_8
REMARK    4  A    between atoms: C_8  and  C_9
REMARK    5  A    between atoms: C_9  and  C_12
REMARK    6  A    between atoms: C_16  and  O_17
REMARK    7  A    between atoms: O_17  and  C_18
REMARK                            x       y       z     vdW  Elec       q    Type
REMARK                         _______ _______ _______ _____ _____    ______ ____
ROOT
ATOM      1  C   UNL     1      43.933   4.734  12.532  0.00  0.00    +0.000 C 
ATOM      2  F   UNL     1      43.139   4.939  13.626  0.00  0.00    +0.000 F 
ATOM      3  F   UNL     1      44.524   3.517  12.747  0.00  0.00    +0.000 F 
ENDROOT
BRANCH   1   4
ATOM      4  C   UNL     1      44.954   5.844  12.368  0.00  0.00    +0.000 A 
ATOM      5  C   UNL     1      46.325   5.556  12.374  0.00  0.00    +0.000 A 
ATOM      6  C   UNL     1      47.261   6.572  12.160  0.00  0.00    +0.000 A 
ATOM      7  C   UNL     1      46.844   7.891  11.948  0.00  0.00    +0.000 A 
ATOM      8  C   UNL     1      45.485   8.195  11.972  0.00  0.00    +0.000 A 
ATOM      9  C   UNL     1      44.549   7.175  12.179  0.00  0.00    +0.000 A 
BRANCH   8  10
ATOM     10  O   UNL     1      44.937   9.433  11.750  0.00  0.00    +0.000 OA
BRANCH  10  11
ATOM     11  C   UNL     1      43.745   9.565  10.945  0.00  0.00    +0.000 C 
ATOM     12  C   UNL     1      43.809  10.441   9.686  0.00  0.00    +0.000 C 
ATOM     13  O   UNL     1      42.695  11.252  10.129  0.00  0.00    +0.000 OA
ATOM     14  C   UNL     1      42.752  10.635  11.437  0.00  0.00    +0.000 C 
ENDBRANCH  10  11
ENDBRANCH   8  10
ENDBRANCH   1   4
BRANCH   1  15
ATOM     15  C   UNL     1      43.026   4.606  11.283  0.00  0.00    +0.000 C 
BRANCH  15  16
ATOM     16  N   UNL     1      43.670   5.084  10.046  0.00  0.00    +0.000 N 
ATOM     17  H   UNL     1      43.064   5.631   9.433  0.00  0.00    +0.000 HD
BRANCH  16  21
ATOM     18  C   UNL     1      46.377   2.678   7.892  0.00  0.00    +0.000 A 
ATOM     19  C   UNL     1      46.514   4.070   7.862  0.00  0.00    +0.000 A 
ATOM     20  C   UNL     1      45.638   4.874   8.591  0.00  0.00    +0.000 A 
ATOM     21  C   UNL     1      44.628   4.320   9.390  0.00  0.00    +0.000 A 
ATOM     22  C   UNL     1      44.501   2.922   9.402  0.00  0.00    +0.000 A 
ATOM     23  C   UNL     1      45.366   2.106   8.664  0.00  0.00    +0.000 A 
BRANCH  18  25
ATOM     24  N   UNL     1      47.973   1.188   6.500  0.00  0.00    +0.000 NA
ATOM     25  C   UNL     1      47.260   1.858   7.127  0.00  0.00    +0.000 C 
ENDBRANCH  18  25
ENDBRANCH  16  21
ENDBRANCH  15  16
ENDBRANCH   1  15
TORSDOF 7
ENDMDL
MODEL 5
REMARK VINA RESULT:    -6.627      3.937      7.998
REMARK INTER + INTRA:         -10.402
REMARK INTER:                  -9.866
REMARK INTRA:                  -0.536
REMARK UNBOUND:                -1.063
REMARK  Name = 
REMARK  7 active torsions:
REMARK  status: ('A' for Active; 'I' for Inactive)
REMARK    1  A    between atoms: C_2  and  C_3
REMARK    2  A    between atoms: C_6  and  N_7
REMARK    3  A    between atoms: N_7  and  C_8
REMARK    4  A    between atoms: C_8  and  C_9
REMARK    5  A    between atoms: C_9  and  C_12
REMARK    6  A    between atoms: C_16  and  O_17
REMARK    7  A    between atoms: O_17  and  C_18
REMARK                            x       y       z     vdW  Elec       q    Type
REMARK                         _______ _______ _______ _____ _____    ______ ____
ROOT
ATOM      1  C   UNL     1      45.608   6.044  11.384  0.00  0.00    +0.000 C 
ATOM      2  F   UNL     1      44.649   7.012  11.277  0.00  0.00    +0.000 F 
ATOM      3  F   UNL     1      46.762   6.638  10.943  0.00  0.00    +0.000 F 
ENDROOT
BRANCH   1   4
ATOM      4  C   UNL     1      45.252   4.815  10.569  0.00  0.00    +0.000 A 
ATOM      5  C   UNL     1      44.485   3.786  11.132  0.00  0.00    +0.000 A 
ATOM      6  C   UNL     1      44.106   2.684  10.360  0.00  0.00    +0.000 A 
ATOM      7  C   UNL     1      44.495   2.587   9.018  0.00  0.00    +0.000 A 
ATOM      8  C   UNL     1      45.284   3.587   8.457  0.00  0.00    +0.000 A 
ATOM      9  C   UNL     1      45.657   4.694   9.230  0.00  0.00    +0.000 A 
BRANCH   8  10
ATOM     10  O   UNL     1      45.710   3.635   7.154  0.00  0.00    +0.000 OA
BRANCH  10  11
ATOM     11  C   UNL     1      47.071   3.281   6.822  0.00  0.00    +0.000 C 
ATOM     12  C   UNL     1      47.364   2.750   5.412  0.00  0.00    +0.000 C 
ATOM     13  O   UNL     1      47.970   1.544   5.935  0.00  0.00    +0.000 OA
ATOM     14  C   UNL     1      47.494   1.867   7.263  0.00  0.00    +0.000 C 
ENDBRANCH  10  11
ENDBRANCH   8  10
ENDBRANCH   1   4
BRANCH   1  15
ATOM     15  C   UNL     1      45.795   5.699  12.882  0.00  0.00    +0.000 C 
BRANCH  15  16
ATOM     16  N   UNL     1      47.206   5.704  13.308  0.00  0.00    +0.000 N 
ATOM     17  H   UNL     1      47.873   5.447  12.579  0.00  0.00    +0.000 HD
BRANCH  16  21
ATOM     18  C   UNL     1      48.183   4.783  17.302  0.00  0.00    +0.000 A 
ATOM     19  C   UNL     1      47.366   3.913  16.572  0.00  0.00    +0.000 A 
ATOM     20  C   UNL     1      47.057   4.197  15.242  0.00  0.00    +0.000 A 
ATOM     21  C   UNL     1      47.573   5.328  14.595  0.00  0.00    +0.000 A 
ATOM     22  C   UNL     1      48.383   6.194  15.346  0.00  0.00    +0.000 A 
ATOM     23  C   UNL     1      48.689   5.926  16.685  0.00  0.00    +0.000 A 
BRANCH  18  25
ATOM     24  N   UNL     1      48.725   4.271  19.782  0.00  0.00    +0.000 NA
ATOM     25  C   UNL     1      48.479   4.503  18.670  0.00  0.00    +0.000 C 
ENDBRANCH  18  25
ENDBRANCH  16  21
ENDBRANCH  15  16
ENDBRANCH   1  15
TORSDOF 7
ENDMDL
MODEL 6
REMARK VINA RESULT:    -6.274      4.126      7.778
REMARK INTER + INTRA:          -9.904
REMARK INTER:                  -9.470
REMARK INTRA:                  -0.435
REMARK UNBOUND:                -1.063
REMARK  Name = 
REMARK  7 active torsions:
REMARK  status: ('A' for Active; 'I' for Inactive)
REMARK    1  A    between atoms: C_2  and  C_3
REMARK    2  A    between atoms: C_6  and  N_7
REMARK    3  A    between atoms: N_7  and  C_8
REMARK    4  A    between atoms: C_8  and  C_9
REMARK    5  A    between atoms: C_9  and  C_12
REMARK    6  A    between atoms: C_16  and  O_17
REMARK    7  A    between atoms: O_17  and  C_18
REMARK                            x       y       z     vdW  Elec       q    Type
REMARK                         _______ _______ _______ _____ _____    ______ ____
ROOT
ATOM      1  C   UNL     1      46.900   4.392  13.707  0.00  0.00    +0.000 C 
ATOM      2  F   UNL     1      47.799   5.253  13.141  0.00  0.00    +0.000 F 
ATOM      3  F   UNL     1      47.497   3.160  13.638  0.00  0.00    +0.000 F 
ENDROOT
BRANCH   1   4
ATOM      4  C   UNL     1      45.568   4.422  12.981  0.00  0.00    +0.000 A 
ATOM      5  C   UNL     1      44.658   5.463  13.207  0.00  0.00    +0.000 A 
ATOM      6  C   UNL     1      43.460   5.522  12.490  0.00  0.00    +0.000 A 
ATOM      7  C   UNL     1      43.145   4.537  11.546  0.00  0.00    +0.000 A 
ATOM      8  C   UNL     1      44.027   3.479  11.337  0.00  0.00    +0.000 A 
ATOM      9  C   UNL     1      45.230   3.427  12.051  0.00  0.00    +0.000 A 
BRANCH   8  10
ATOM     10  O   UNL     1      43.861   2.466  10.426  0.00  0.00    +0.000 OA
BRANCH  10  11
ATOM     11  C   UNL     1      44.306   2.637   9.063  0.00  0.00    +0.000 C 
ATOM     12  C   UNL     1      45.632   1.987   8.642  0.00  0.00    +0.000 C 
ATOM     13  O   UNL     1      46.167   3.252   8.185  0.00  0.00    +0.000 OA
ATOM     14  C   UNL     1      45.057   3.954   8.791  0.00  0.00    +0.000 C 
ENDBRANCH  10  11
ENDBRANCH   8  10
ENDBRANCH   1   4
BRANCH   1  15
ATOM     15  C   UNL     1      46.741   4.759  15.204  0.00  0.00    +0.000 C 
BRANCH  15  16
ATOM     16  N   UNL     1      47.023   3.632  16.111  0.00  0.00    +0.000 N 
ATOM     17  H   UNL     1      46.240   3.358  16.707  0.00  0.00    +0.000 HD
BRANCH  16  21
ATOM     18  C   UNL     1      50.927   3.063  17.590  0.00  0.00    +0.000 A 
ATOM     19  C   UNL     1      50.330   4.324  17.683  0.00  0.00    +0.000 A 
ATOM     20  C   UNL     1      49.029   4.516  17.218  0.00  0.00    +0.000 A 
ATOM     21  C   UNL     1      48.279   3.462  16.681  0.00  0.00    +0.000 A 
ATOM     22  C   UNL     1      48.897   2.205  16.589  0.00  0.00    +0.000 A 
ATOM     23  C   UNL     1      50.207   2.003  17.039  0.00  0.00    +0.000 A 
BRANCH  18  25
ATOM     24  N   UNL     1      53.360   2.718  18.407  0.00  0.00    +0.000 NA
ATOM     25  C   UNL     1      52.267   2.873  18.044  0.00  0.00    +0.000 C 
ENDBRANCH  18  25
ENDBRANCH  16  21
ENDBRANCH  15  16
ENDBRANCH   1  15
TORSDOF 7
ENDMDL
MODEL 7
REMARK VINA RESULT:    -6.110      3.838      7.241
REMARK INTER + INTRA:          -9.673
REMARK INTER:                  -9.057
REMARK INTRA:                  -0.616
REMARK UNBOUND:                -1.063
REMARK  Name = 
REMARK  7 active torsions:
REMARK  status: ('A' for Active; 'I' for Inactive)
REMARK    1  A    between atoms: C_2  and  C_3
REMARK    2  A    between atoms: C_6  and  N_7
REMARK    3  A    between atoms: N_7  and  C_8
REMARK    4  A    between atoms: C_8  and  C_9
REMARK    5  A    between atoms: C_9  and  C_12
REMARK    6  A    between atoms: C_16  and  O_17
REMARK    7  A    between atoms: O_17  and  C_18
REMARK                            x       y       z     vdW  Elec       q    Type
REMARK                         _______ _______ _______ _____ _____    ______ ____
ROOT
ATOM      1  C   UNL     1      44.101   6.020  11.500  0.00  0.00    +0.000 C 
ATOM      2  F   UNL     1      43.627   5.777  12.759  0.00  0.00    +0.000 F 
ATOM      3  F   UNL     1      43.140   6.791  10.901  0.00  0.00    +0.000 F 
ENDROOT
BRANCH   1   4
ATOM      4  C   UNL     1      44.353   4.731  10.741  0.00  0.00    +0.000 A 
ATOM      5  C   UNL     1      43.778   3.528  11.172  0.00  0.00    +0.000 A 
ATOM      6  C   UNL     1      43.960   2.354  10.435  0.00  0.00    +0.000 A 
ATOM      7  C   UNL     1      44.728   2.360   9.264  0.00  0.00    +0.000 A 
ATOM      8  C   UNL     1      45.331   3.543   8.843  0.00  0.00    +0.000 A 
ATOM      9  C   UNL     1      45.141   4.719   9.579  0.00  0.00    +0.000 A 
BRANCH   8  10
ATOM     10  O   UNL     1      46.081   3.698   7.705  0.00  0.00    +0.000 OA
BRANCH  10  11
ATOM     11  C   UNL     1      46.341   2.565   6.848  0.00  0.00    +0.000 C 
ATOM     12  C   UNL     1      47.477   1.606   7.232  0.00  0.00    +0.000 C 
ATOM     13  O   UNL     1      48.124   1.775   5.948  0.00  0.00    +0.000 OA
ATOM     14  C   UNL     1      47.234   2.871   5.631  0.00  0.00    +0.000 C 
ENDBRANCH  10  11
ENDBRANCH   8  10
ENDBRANCH   1   4
BRANCH   1  15
ATOM     15  C   UNL     1      45.389   6.873  11.615  0.00  0.00    +0.000 C 
BRANCH  15  16
ATOM     16  N   UNL     1      46.255   6.469  12.737  0.00  0.00    +0.000 N 
ATOM     17  H   UNL     1      45.780   6.393  13.638  0.00  0.00    +0.000 HD
BRANCH  16  21
ATOM     18  C   UNL     1      50.189   7.971  12.910  0.00  0.00    +0.000 A 
ATOM     19  C   UNL     1      49.611   7.412  14.055  0.00  0.00    +0.000 A 
ATOM     20  C   UNL     1      48.319   6.890  14.001  0.00  0.00    +0.000 A 
ATOM     21  C   UNL     1      47.581   6.881  12.810  0.00  0.00    +0.000 A 
ATOM     22  C   UNL     1      48.173   7.453  11.674  0.00  0.00    +0.000 A 
ATOM     23  C   UNL     1      49.465   7.991  11.719  0.00  0.00    +0.000 A 
BRANCH  18  25
ATOM     24  N   UNL     1      52.574   8.971  13.024  0.00  0.00    +0.000 NA
ATOM     25  C   UNL     1      51.502   8.525  12.972  0.00  0.00    +0.000 C 
ENDBRANCH  18  25
ENDBRANCH  16  21
ENDBRANCH  15  16
ENDBRANCH   1  15
TORSDOF 7
ENDMDL
MODEL 8
REMARK VINA RESULT:    -5.534      2.900      4.337
REMARK INTER + INTRA:          -8.861
REMARK INTER:                  -7.919
REMARK INTRA:                  -0.942
REMARK UNBOUND:                -1.063
REMARK  Name = 
REMARK  7 active torsions:
REMARK  status: ('A' for Active; 'I' for Inactive)
REMARK    1  A    between atoms: C_2  and  C_3
REMARK    2  A    between atoms: C_6  and  N_7
REMARK    3  A    between atoms: N_7  and  C_8
REMARK    4  A    between atoms: C_8  and  C_9
REMARK    5  A    between atoms: C_9  and  C_12
REMARK    6  A    between atoms: C_16  and  O_17
REMARK    7  A    between atoms: O_17  and  C_18
REMARK                            x       y       z     vdW  Elec       q    Type
REMARK                         _______ _______ _______ _____ _____    ______ ____
ROOT
ATOM      1  C   UNL     1      48.283   8.180  13.157  0.00  0.00    +0.000 C 
ATOM      2  F   UNL     1      48.731   7.156  12.369  0.00  0.00    +0.000 F 
ATOM      3  F   UNL     1      48.986   9.281  12.741  0.00  0.00    +0.000 F 
ENDROOT
BRANCH   1   4
ATOM      4  C   UNL     1      48.502   7.887  14.629  0.00  0.00    +0.000 A 
ATOM      5  C   UNL     1      48.323   8.891  15.589  0.00  0.00    +0.000 A 
ATOM      6  C   UNL     1      48.463   8.602  16.950  0.00  0.00    +0.000 A 
ATOM      7  C   UNL     1      48.796   7.309  17.372  0.00  0.00    +0.000 A 
ATOM      8  C   UNL     1      49.009   6.310  16.426  0.00  0.00    +0.000 A 
ATOM      9  C   UNL     1      48.860   6.601  15.064  0.00  0.00    +0.000 A 
BRANCH   8  10
ATOM     10  O   UNL     1      49.308   5.000  16.698  0.00  0.00    +0.000 OA
BRANCH  10  11
ATOM     11  C   UNL     1      48.362   3.957  16.377  0.00  0.00    +0.000 C 
ATOM     12  C   UNL     1      46.866   4.243  16.575  0.00  0.00    +0.000 C 
ATOM     13  O   UNL     1      46.706   3.090  17.435  0.00  0.00    +0.000 OA
ATOM     14  C   UNL     1      48.141   2.921  17.495  0.00  0.00    +0.000 C 
ENDBRANCH  10  11
ENDBRANCH   8  10
ENDBRANCH   1   4
BRANCH   1  15
ATOM     15  C   UNL     1      46.787   8.426  12.842  0.00  0.00    +0.000 C 
BRANCH  15  16
ATOM     16  N   UNL     1      45.913   7.321  13.275  0.00  0.00    +0.000 N 
ATOM     17  H   UNL     1      45.964   7.100  14.271  0.00  0.00    +0.000 HD
BRANCH  16  21
ATOM     18  C   UNL     1      44.898   4.024  10.855  0.00  0.00    +0.000 A 
ATOM     19  C   UNL     1      45.286   5.227  10.257  0.00  0.00    +0.000 A 
ATOM     20  C   UNL     1      45.647   6.317  11.050  0.00  0.00    +0.000 A 
ATOM     21  C   UNL     1      45.663   6.232  12.448  0.00  0.00    +0.000 A 
ATOM     22  C   UNL     1      45.263   5.020  13.031  0.00  0.00    +0.000 A 
ATOM     23  C   UNL     1      44.886   3.924  12.246  0.00  0.00    +0.000 A 
BRANCH  18  25
ATOM     24  N   UNL     1      44.185   2.021   9.378  0.00  0.00    +0.000 NA
ATOM     25  C   UNL     1      44.506   2.918  10.044  0.00  0.00    +0.000 C 
ENDBRANCH  18  25
ENDBRANCH  16  21
ENDBRANCH  15  16
ENDBRANCH   1  15
TORSDOF 7
ENDMDL
