MODEL 1
REMARK VINA RESULT:    -7.195      0.000      0.000
REMARK INTER + INTRA:          -9.752
REMARK INTER:                  -9.087
REMARK INTRA:                  -0.664
REMARK UNBOUND:                -0.664
REMARK  Name = 
REMARK  5 active torsions:
REMARK  status: ('A' for Active; 'I' for Inactive)
REMARK    1  A    between atoms: N_1  and  C_2
REMARK    2  A    between atoms: C_2  and  C_3
REMARK    3  A    between atoms: C_3  and  C_4
REMARK    4  A    between atoms: C_8  and  C_9
REMARK    5  A    between atoms: C_9  and  N_10
REMARK                            x       y       z     vdW  Elec       q    Type
REMARK                         _______ _______ _______ _____ _____    ______ ____
ROOT
ATOM      1  C   UNL     1      45.847   3.485   8.077  0.00  0.00    +0.000 A 
ATOM      2  C   UNL     1      45.670   2.152   8.425  0.00  0.00    +0.000 A 
ATOM      3  N   UNL     1      44.851   1.725   9.411  0.00  0.00    +0.000 NA
ATOM      4  C   UNL     1      44.169   2.675  10.087  0.00  0.00    +0.000 A 
ATOM      5  C   UNL     1      44.257   4.036   9.824  0.00  0.00    +0.000 A 
ATOM      6  C   UNL     1      45.117   4.440   8.794  0.00  0.00    +0.000 A 
ENDROOT
BRANCH   1   7
ATOM      7  C   UNL     1      46.774   3.877   6.959  0.00  0.00    +0.000 C 
BRANCH   7   8
ATOM      8  C   UNL     1      47.182   2.666   6.113  0.00  0.00    +0.000 C 
BRANCH   8   9
ATOM      9  N   UNL     1      48.629   2.464   6.149  0.00  0.00    +0.000 NA
ATOM     10  H   UNL     1      49.088   3.364   6.300  0.00  0.00    +0.000 HD
ATOM     11  H   UNL     1      48.955   2.132   5.243  0.00  0.00    +0.000 HD
ENDBRANCH   8   9
ENDBRANCH   7   8
ENDBRANCH   1   7
BRANCH   5  12
ATOM     12  C   UNL     1      43.520   5.023  10.677  0.00  0.00    +0.000 C 
BRANCH  12  13
ATOM     13  N   UNL     1      44.370   5.847  11.534  0.00  0.00    +0.000 N 
ATOM     14  C   UNL     1      44.604   7.180  11.286  0.00  0.00    +0.000 A 
ATOM     15  C   UNL     1      45.893   7.455  11.688  0.00  0.00    +0.000 A 
ATOM     16  C   UNL     1      46.396   6.298  12.344  0.00  0.00    +0.000 A 
ATOM     17  C   UNL     1      47.622   5.967  12.931  0.00  0.00    +0.000 A 
ATOM     18  N   UNL     1      47.775   4.794  13.589  0.00  0.00    +0.000 NA
ATOM     19  C   UNL     1      46.724   3.950  13.674  0.00  0.00    +0.000 A 
ATOM     20  C   UNL     1      45.490   4.154  13.064  0.00  0.00    +0.000 A 
ATOM     21  C   UNL     1      45.361   5.351  12.365  0.00  0.00    +0.000 A 
ENDBRANCH  12  13
ENDBRANCH   5  12
TORSDOF 5
ENDMDL
MODEL 2
REMARK VINA RESULT:    -7.191      1.287      5.962
REMARK INTER + INTRA:          -9.747
REMARK INTER:                  -9.388
REMARK INTRA:                  -0.359
REMARK UNBOUND:                -0.664
REMARK  Name = 
REMARK  5 active torsions:
REMARK  status: ('A' for Active; 'I' for Inactive)
REMARK    1  A    between atoms: N_1  and  C_2
REMARK    2  A    between atoms: C_2  and  C_3
REMARK    3  A    between atoms: C_3  and  C_4
REMARK    4  A    between atoms: C_8  and  C_9
REMARK    5  A    between atoms: C_9  and  N_10
REMARK                            x       y       z     vdW  Elec       q    Type
REMARK                         _______ _______ _______ _____ _____    ______ ____
ROOT
ATOM      1  C   UNL     1      45.914   5.548  12.734  0.00  0.00    +0.000 A 
ATOM      2  C   UNL     1      44.587   5.743  13.095  0.00  0.00    +0.000 A 
ATOM      3  N   UNL     1      43.550   5.702  12.230  0.00  0.00    +0.000 NA
ATOM      4  C   UNL     1      43.848   5.450  10.937  0.00  0.00    +0.000 A 
ATOM      5  C   UNL     1      45.133   5.229  10.460  0.00  0.00    +0.000 A 
ATOM      6  C   UNL     1      46.183   5.280  11.387  0.00  0.00    +0.000 A 
ENDROOT
BRANCH   1   7
ATOM      7  C   UNL     1      47.012   5.603  13.762  0.00  0.00    +0.000 C 
BRANCH   7   8
ATOM      8  C   UNL     1      46.911   4.442  14.758  0.00  0.00    +0.000 C 
BRANCH   8   9
ATOM      9  N   UNL     1      47.456   3.212  14.187  0.00  0.00    +0.000 NA
ATOM     10  H   UNL     1      46.695   2.547  14.040  0.00  0.00    +0.000 HD
ATOM     11  H   UNL     1      48.088   2.771  14.854  0.00  0.00    +0.000 HD
ENDBRANCH   8   9
ENDBRANCH   7   8
ENDBRANCH   1   7
BRANCH   5  12
ATOM     12  C   UNL     1      45.376   5.033   8.996  0.00  0.00    +0.000 C 
BRANCH  12  13
ATOM     13  N   UNL     1      45.190   3.663   8.521  0.00  0.00    +0.000 N 
ATOM     14  C   UNL     1      44.387   2.755   9.173  0.00  0.00    +0.000 A 
ATOM     15  C   UNL     1      44.964   1.512   9.022  0.00  0.00    +0.000 A 
ATOM     16  C   UNL     1      46.055   1.649   8.121  0.00  0.00    +0.000 A 
ATOM     17  C   UNL     1      47.013   0.767   7.610  0.00  0.00    +0.000 A 
ATOM     18  N   UNL     1      47.888   1.176   6.661  0.00  0.00    +0.000 NA
ATOM     19  C   UNL     1      47.818   2.447   6.212  0.00  0.00    +0.000 A 
ATOM     20  C   UNL     1      46.952   3.418   6.706  0.00  0.00    +0.000 A 
ATOM     21  C   UNL     1      46.082   2.989   7.704  0.00  0.00    +0.000 A 
ENDBRANCH  12  13
ENDBRANCH   5  12
TORSDOF 5
ENDMDL
MODEL 3
REMARK VINA RESULT:    -6.559      1.436      2.293
REMARK INTER + INTRA:          -8.949
REMARK INTER:                  -8.491
REMARK INTRA:                  -0.458
REMARK UNBOUND:                -0.664
REMARK  Name = 
REMARK  5 active torsions:
REMARK  status: ('A' for Active; 'I' for Inactive)
REMARK    1  A    between atoms: N_1  and  C_2
REMARK    2  A    between atoms: C_2  and  C_3
REMARK    3  A    between atoms: C_3  and  C_4
REMARK    4  A    between atoms: C_8  and  C_9
REMARK    5  A    between atoms: C_9  and  N_10
REMARK                            x       y       z     vdW  Elec       q    Type
REMARK                         _______ _______ _______ _____ _____    ______ ____
ROOT
ATOM      1  C   UNL     1      45.726   3.332   7.997  0.00  0.00    +0.000 A 
ATOM      2  C   UNL     1      44.880   2.282   8.332  0.00  0.00    +0.000 A 
ATOM      3  N   UNL     1      44.123   2.242   9.450  0.00  0.00    +0.000 NA
ATOM      4  C   UNL     1      44.209   3.305  10.279  0.00  0.00    +0.000 A 
ATOM      5  C   UNL     1      45.011   4.414  10.046  0.00  0.00    +0.000 A 
ATOM      6  C   UNL     1      45.782   4.419   8.876  0.00  0.00    +0.000 A 
ENDROOT
BRANCH   1   7
ATOM      7  C   UNL     1      46.532   3.302   6.727  0.00  0.00    +0.000 C 
BRANCH   7   8
ATOM      8  C   UNL     1      47.749   2.379   6.853  0.00  0.00    +0.000 C 
BRANCH   8   9
ATOM      9  N   UNL     1      48.413   2.207   5.562  0.00  0.00    +0.000 NA
ATOM     10  H   UNL     1      47.848   1.592   4.975  0.00  0.00    +0.000 HD
ATOM     11  H   UNL     1      49.304   1.729   5.692  0.00  0.00    +0.000 HD
ENDBRANCH   8   9
ENDBRANCH   7   8
ENDBRANCH   1   7
BRANCH   5  12
ATOM     12  C   UNL     1      45.100   5.513  11.060  0.00  0.00    +0.000 C 
BRANCH  12  13
ATOM     13  N   UNL     1      46.159   5.345  12.054  0.00  0.00    +0.000 N 
ATOM     14  C   UNL     1      46.043   4.487  13.124  0.00  0.00    +0.000 A 
ATOM     15  C   UNL     1      46.713   5.058  14.185  0.00  0.00    +0.000 A 
ATOM     16  C   UNL     1      47.386   6.212  13.699  0.00  0.00    +0.000 A 
ATOM     17  C   UNL     1      48.189   7.193  14.291  0.00  0.00    +0.000 A 
ATOM     18  N   UNL     1      48.793   8.137  13.533  0.00  0.00    +0.000 NA
ATOM     19  C   UNL     1      48.614   8.114  12.194  0.00  0.00    +0.000 A 
ATOM     20  C   UNL     1      47.781   7.227  11.519  0.00  0.00    +0.000 A 
ATOM     21  C   UNL     1      47.142   6.284  12.319  0.00  0.00    +0.000 A 
ENDBRANCH  12  13
ENDBRANCH   5  12
TORSDOF 5
ENDMDL
MODEL 4
REMARK VINA RESULT:    -6.409      1.585      6.064
REMARK INTER + INTRA:          -8.759
REMARK INTER:                  -8.263
REMARK INTRA:                  -0.496
REMARK UNBOUND:                -0.664
REMARK  Name = 
REMARK  5 active torsions:
REMARK  status: ('A' for Active; 'I' for Inactive)
REMARK    1  A    between atoms: N_1  and  C_2
REMARK    2  A    between atoms: C_2  and  C_3
REMARK    3  A    between atoms: C_3  and  C_4
REMARK    4  A    between atoms: C_8  and  C_9
REMARK    5  A    between atoms: C_9  and  N_10
REMARK                            x       y       z     vdW  Elec       q    Type
REMARK                         _______ _______ _______ _____ _____    ______ ____
ROOT
ATOM      1  C   UNL     1      46.915   4.929  14.036  0.00  0.00    +0.000 A 
ATOM      2  C   UNL     1      47.890   5.898  13.838  0.00  0.00    +0.000 A 
ATOM      3  N   UNL     1      47.767   6.937  12.983  0.00  0.00    +0.000 NA
ATOM      4  C   UNL     1      46.611   7.018  12.289  0.00  0.00    +0.000 A 
ATOM      5  C   UNL     1      45.563   6.116  12.409  0.00  0.00    +0.000 A 
ATOM      6  C   UNL     1      45.727   5.051  13.306  0.00  0.00    +0.000 A 
ENDROOT
BRANCH   1   7
ATOM      7  C   UNL     1      47.127   3.805  15.014  0.00  0.00    +0.000 C 
BRANCH   7   8
ATOM      8  C   UNL     1      47.118   4.309  16.462  0.00  0.00    +0.000 C 
BRANCH   8   9
ATOM      9  N   UNL     1      46.688   3.256  17.381  0.00  0.00    +0.000 NA
ATOM     10  H   UNL     1      47.377   2.502  17.370  0.00  0.00    +0.000 HD
ATOM     11  H   UNL     1      45.816   2.844  17.051  0.00  0.00    +0.000 HD
ENDBRANCH   8   9
ENDBRANCH   7   8
ENDBRANCH   1   7
BRANCH   5  12
ATOM     12  C   UNL     1      44.349   6.243  11.542  0.00  0.00    +0.000 C 
BRANCH  12  13
ATOM     13  N   UNL     1      43.872   4.986  10.966  0.00  0.00    +0.000 N 
ATOM     14  C   UNL     1      43.074   4.107  11.662  0.00  0.00    +0.000 A 
ATOM     15  C   UNL     1      43.416   2.834  11.261  0.00  0.00    +0.000 A 
ATOM     16  C   UNL     1      44.331   2.953  10.179  0.00  0.00    +0.000 A 
ATOM     17  C   UNL     1      45.032   2.035   9.391  0.00  0.00    +0.000 A 
ATOM     18  N   UNL     1      45.770   2.455   8.336  0.00  0.00    +0.000 NA
ATOM     19  C   UNL     1      45.812   3.775   8.054  0.00  0.00    +0.000 A 
ATOM     20  C   UNL     1      45.211   4.772   8.817  0.00  0.00    +0.000 A 
ATOM     21  C   UNL     1      44.484   4.323   9.916  0.00  0.00    +0.000 A 
ENDBRANCH  12  13
ENDBRANCH   5  12
TORSDOF 5
ENDMDL
MODEL 5
REMARK VINA RESULT:    -5.760      2.206      3.676
REMARK INTER + INTRA:          -7.939
REMARK INTER:                  -7.352
REMARK INTRA:                  -0.587
REMARK UNBOUND:                -0.664
REMARK  Name = 
REMARK  5 active torsions:
REMARK  status: ('A' for Active; 'I' for Inactive)
REMARK    1  A    between atoms: N_1  and  C_2
REMARK    2  A    between atoms: C_2  and  C_3
REMARK    3  A    between atoms: C_3  and  C_4
REMARK    4  A    between atoms: C_8  and  C_9
REMARK    5  A    between atoms: C_9  and  N_10
REMARK                            x       y       z     vdW  Elec       q    Type
REMARK                         _______ _______ _______ _____ _____    ______ ____
ROOT
ATOM      1  C   UNL     1      44.570   4.030  10.005  0.00  0.00    +0.000 A 
ATOM      2  C   UNL     1      43.798   3.099  10.687  0.00  0.00    +0.000 A 
ATOM      3  N   UNL     1      43.671   3.054  12.031  0.00  0.00    +0.000 NA
ATOM      4  C   UNL     1      44.347   3.987  12.736  0.00  0.00    +0.000 A 
ATOM      5  C   UNL     1      45.142   4.972  12.166  0.00  0.00    +0.000 A 
ATOM      6  C   UNL     1      45.249   4.987  10.768  0.00  0.00    +0.000 A 
ENDROOT
BRANCH   1   7
ATOM      7  C   UNL     1      44.653   4.017   8.503  0.00  0.00    +0.000 C 
BRANCH   7   8
ATOM      8  C   UNL     1      45.947   3.356   8.015  0.00  0.00    +0.000 C 
BRANCH   8   9
ATOM      9  N   UNL     1      46.743   4.286   7.217  0.00  0.00    +0.000 NA
ATOM     10  H   UNL     1      46.803   5.180   7.707  0.00  0.00    +0.000 HD
ATOM     11  H   UNL     1      46.268   4.481   6.336  0.00  0.00    +0.000 HD
ENDBRANCH   8   9
ENDBRANCH   7   8
ENDBRANCH   1   7
BRANCH   5  12
ATOM     12  C   UNL     1      45.915   5.919  13.031  0.00  0.00    +0.000 C 
BRANCH  12  13
ATOM     13  N   UNL     1      46.641   6.960  12.305  0.00  0.00    +0.000 N 
ATOM     14  C   UNL     1      48.015   6.999  12.240  0.00  0.00    +0.000 A 
ATOM     15  C   UNL     1      48.389   8.325  12.219  0.00  0.00    +0.000 A 
ATOM     16  C   UNL     1      47.206   9.105  12.106  0.00  0.00    +0.000 A 
ATOM     17  C   UNL     1      46.946  10.479  12.063  0.00  0.00    +0.000 A 
ATOM     18  N   UNL     1      45.691  10.935  11.839  0.00  0.00    +0.000 NA
ATOM     19  C   UNL     1      44.695  10.042  11.652  0.00  0.00    +0.000 A 
ATOM     20  C   UNL     1      44.837   8.662  11.747  0.00  0.00    +0.000 A 
ATOM     21  C   UNL     1      46.128   8.212  12.011  0.00  0.00    +0.000 A 
ENDBRANCH  12  13
ENDBRANCH   5  12
TORSDOF 5
ENDMDL
MODEL 6
REMARK VINA RESULT:    -5.635      1.707      2.850
REMARK INTER + INTRA:          -7.782
REMARK INTER:                  -7.225
REMARK INTRA:                  -0.557
REMARK UNBOUND:                -0.664
REMARK  Name = 
REMARK  5 active torsions:
REMARK  status: ('A' for Active; 'I' for Inactive)
REMARK    1  A    between atoms: N_1  and  C_2
REMARK    2  A    between atoms: C_2  and  C_3
REMARK    3  A    between atoms: C_3  and  C_4
REMARK    4  A    between atoms: C_8  and  C_9
REMARK    5  A    between atoms: C_9  and  N_10
REMARK                            x       y       z     vdW  Elec       q    Type
REMARK                         _______ _______ _______ _____ _____    ______ ____
ROOT
ATOM      1  C   UNL     1      45.228   4.143   9.275  0.00  0.00    +0.000 A 
ATOM      2  C   UNL     1      44.318   3.109   9.453  0.00  0.00    +0.000 A 
ATOM      3  N   UNL     1      43.655   2.869  10.606  0.00  0.00    +0.000 NA
ATOM      4  C   UNL     1      43.911   3.703  11.637  0.00  0.00    +0.000 A 
ATOM      5  C   UNL     1      44.791   4.775  11.575  0.00  0.00    +0.000 A 
ATOM      6  C   UNL     1      45.460   4.992  10.363  0.00  0.00    +0.000 A 
ENDROOT
BRANCH   1   7
ATOM      7  C   UNL     1      45.919   4.347   7.954  0.00  0.00    +0.000 C 
BRANCH   7   8
ATOM      8  C   UNL     1      46.387   3.018   7.351  0.00  0.00    +0.000 C 
BRANCH   8   9
ATOM      9  N   UNL     1      47.577   3.207   6.522  0.00  0.00    +0.000 NA
ATOM     10  H   UNL     1      47.587   4.164   6.166  0.00  0.00    +0.000 HD
ATOM     11  H   UNL     1      47.527   2.604   5.703  0.00  0.00    +0.000 HD
ENDBRANCH   8   9
ENDBRANCH   7   8
ENDBRANCH   1   7
BRANCH   5  12
ATOM     12  C   UNL     1      45.068   5.601  12.794  0.00  0.00    +0.000 C 
BRANCH  12  13
ATOM     13  N   UNL     1      46.396   5.411  13.374  0.00  0.00    +0.000 N 
ATOM     14  C   UNL     1      46.616   4.630  14.485  0.00  0.00    +0.000 A 
ATOM     15  C   UNL     1      47.642   5.209  15.201  0.00  0.00    +0.000 A 
ATOM     16  C   UNL     1      48.162   6.277  14.420  0.00  0.00    +0.000 A 
ATOM     17  C   UNL     1      49.170   7.227  14.618  0.00  0.00    +0.000 A 
ATOM     18  N   UNL     1      49.520   8.076  13.624  0.00  0.00    +0.000 NA
ATOM     19  C   UNL     1      48.886   7.988  12.435  0.00  0.00    +0.000 A 
ATOM     20  C   UNL     1      47.825   7.129  12.162  0.00  0.00    +0.000 A 
ATOM     21  C   UNL     1      47.457   6.286  13.207  0.00  0.00    +0.000 A 
ENDBRANCH  12  13
ENDBRANCH   5  12
TORSDOF 5
ENDMDL
MODEL 7
REMARK VINA RESULT:    -5.626      1.946      2.755
REMARK INTER + INTRA:          -7.770
REMARK INTER:                  -7.322
REMARK INTRA:                  -0.448
REMARK UNBOUND:                -0.664
REMARK  Name = 
REMARK  5 active torsions:
REMARK  status: ('A' for Active; 'I' for Inactive)
REMARK    1  A    between atoms: N_1  and  C_2
REMARK    2  A    between atoms: C_2  and  C_3
REMARK    3  A    between atoms: C_3  and  C_4
REMARK    4  A    between atoms: C_8  and  C_9
REMARK    5  A    between atoms: C_9  and  N_10
REMARK                            x       y       z     vdW  Elec       q    Type
REMARK                         _______ _______ _______ _____ _____    ______ ____
ROOT
ATOM      1  C   UNL     1      44.455   2.839  10.055  0.00  0.00    +0.000 A 
ATOM      2  C   UNL     1      43.589   2.749  11.137  0.00  0.00    +0.000 A 
ATOM      3  N   UNL     1      43.395   3.736  12.040  0.00  0.00    +0.000 NA
ATOM      4  C   UNL     1      44.099   4.874  11.855  0.00  0.00    +0.000 A 
ATOM      5  C   UNL     1      44.985   5.083  10.807  0.00  0.00    +0.000 A 
ATOM      6  C   UNL     1      45.160   4.036   9.891  0.00  0.00    +0.000 A 
ENDROOT
BRANCH   1   7
ATOM      7  C   UNL     1      44.608   1.695   9.089  0.00  0.00    +0.000 C 
BRANCH   7   8
ATOM      8  C   UNL     1      45.945   1.762   8.344  0.00  0.00    +0.000 C 
BRANCH   8   9
ATOM      9  N   UNL     1      46.422   0.423   8.000  0.00  0.00    +0.000 NA
ATOM     10  H   UNL     1      46.785   0.433   7.046  0.00  0.00    +0.000 HD
ATOM     11  H   UNL     1      45.642  -0.232   7.996  0.00  0.00    +0.000 HD
ENDBRANCH   8   9
ENDBRANCH   7   8
ENDBRANCH   1   7
BRANCH   5  12
ATOM     12  C   UNL     1      45.779   6.350  10.725  0.00  0.00    +0.000 C 
BRANCH  12  13
ATOM     13  N   UNL     1      45.711   7.194  11.916  0.00  0.00    +0.000 N 
ATOM     14  C   UNL     1      45.034   8.392  11.940  0.00  0.00    +0.000 A 
ATOM     15  C   UNL     1      45.725   9.240  12.778  0.00  0.00    +0.000 A 
ATOM     16  C   UNL     1      46.756   8.485  13.402  0.00  0.00    +0.000 A 
ATOM     17  C   UNL     1      47.773   8.791  14.311  0.00  0.00    +0.000 A 
ATOM     18  N   UNL     1      48.558   7.813  14.820  0.00  0.00    +0.000 NA
ATOM     19  C   UNL     1      48.340   6.535  14.440  0.00  0.00    +0.000 A 
ATOM     20  C   UNL     1      47.404   6.138  13.490  0.00  0.00    +0.000 A 
ATOM     21  C   UNL     1      46.628   7.161  12.954  0.00  0.00    +0.000 A 
ENDBRANCH  12  13
ENDBRANCH   5  12
TORSDOF 5
ENDMDL
MODEL 8
REMARK VINA RESULT:    -5.284      3.230      5.328
REMARK INTER + INTRA:          -7.338
REMARK INTER:                  -6.765
REMARK INTRA:                  -0.574
REMARK UNBOUND:                -0.664
REMARK  Name = 
REMARK  5 active torsions:
REMARK  status: ('A' for Active; 'I' for Inactive)
REMARK    1  A    between atoms: N_1  and  C_2
REMARK    2  A    between atoms: C_2  and  C_3
REMARK    3  A    between atoms: C_3  and  C_4
REMARK    4  A    between atoms: C_8  and  C_9
REMARK    5  A    between atoms: C_9  and  N_10
REMARK                            x       y       z     vdW  Elec       q    Type
REMARK                         _______ _______ _______ _____ _____    ______ ____
ROOT
ATOM      1  C   UNL     1      44.358   5.526  12.097  0.00  0.00    +0.000 A 
ATOM      2  C   UNL     1      44.235   6.829  11.631  0.00  0.00    +0.000 A 
ATOM      3  N   UNL     1      45.224   7.748  11.671  0.00  0.00    +0.000 NA
ATOM      4  C   UNL     1      46.400   7.350  12.201  0.00  0.00    +0.000 A 
ATOM      5  C   UNL     1      46.645   6.074  12.690  0.00  0.00    +0.000 A 
ATOM      6  C   UNL     1      45.595   5.148  12.632  0.00  0.00    +0.000 A 
ENDROOT
BRANCH   1   7
ATOM      7  C   UNL     1      43.209   4.559  12.009  0.00  0.00    +0.000 C 
BRANCH   7   8
ATOM      8  C   UNL     1      43.573   3.324  11.178  0.00  0.00    +0.000 C 
BRANCH   8   9
ATOM      9  N   UNL     1      43.028   2.108  11.779  0.00  0.00    +0.000 NA
ATOM     10  H   UNL     1      43.182   1.324  11.143  0.00  0.00    +0.000 HD
ATOM     11  H   UNL     1      42.018   2.194  11.879  0.00  0.00    +0.000 HD
ENDBRANCH   8   9
ENDBRANCH   7   8
ENDBRANCH   1   7
BRANCH   5  12
ATOM     12  C   UNL     1      47.959   5.746  13.331  0.00  0.00    +0.000 C 
BRANCH  12  13
ATOM     13  N   UNL     1      48.062   6.113  14.742  0.00  0.00    +0.000 N 
ATOM     14  C   UNL     1      48.722   7.242  15.169  0.00  0.00    +0.000 A 
ATOM     15  C   UNL     1      49.300   6.947  16.385  0.00  0.00    +0.000 A 
ATOM     16  C   UNL     1      48.842   5.660  16.779  0.00  0.00    +0.000 A 
ATOM     17  C   UNL     1      49.091   4.831  17.878  0.00  0.00    +0.000 A 
ATOM     18  N   UNL     1      48.409   3.673  18.036  0.00  0.00    +0.000 NA
ATOM     19  C   UNL     1      47.479   3.332  17.118  0.00  0.00    +0.000 A 
ATOM     20  C   UNL     1      47.209   4.049  15.956  0.00  0.00    +0.000 A 
ATOM     21  C   UNL     1      47.943   5.221  15.795  0.00  0.00    +0.000 A 
ENDBRANCH  12  13
ENDBRANCH   5  12
TORSDOF 5
ENDMDL
MODEL 9
REMARK VINA RESULT:    -5.126      2.576      4.208
REMARK INTER + INTRA:          -7.139
REMARK INTER:                  -6.544
REMARK INTRA:                  -0.594
REMARK UNBOUND:                -0.664
REMARK  Name = 
REMARK  5 active torsions:
REMARK  status: ('A' for Active; 'I' for Inactive)
REMARK    1  A    between atoms: N_1  and  C_2
REMARK    2  A    between atoms: C_2  and  C_3
REMARK    3  A    between atoms: C_3  and  C_4
REMARK    4  A    between atoms: C_8  and  C_9
REMARK    5  A    between atoms: C_9  and  N_10
REMARK                            x       y       z     vdW  Elec       q    Type
REMARK                         _______ _______ _______ _____ _____    ______ ____
ROOT
ATOM      1  C   UNL     1      44.807   4.320  11.304  0.00  0.00    +0.000 A 
ATOM      2  C   UNL     1      45.255   3.435  12.277  0.00  0.00    +0.000 A 
ATOM      3  N   UNL     1      45.878   3.808  13.416  0.00  0.00    +0.000 NA
ATOM      4  C   UNL     1      46.063   5.134  13.599  0.00  0.00    +0.000 A 
ATOM      5  C   UNL     1      45.650   6.111  12.704  0.00  0.00    +0.000 A 
ATOM      6  C   UNL     1      45.008   5.685  11.533  0.00  0.00    +0.000 A 
ENDROOT
BRANCH   1   7
ATOM      7  C   UNL     1      44.115   3.822  10.064  0.00  0.00    +0.000 C 
BRANCH   7   8
ATOM      8  C   UNL     1      45.121   3.417   8.981  0.00  0.00    +0.000 C 
BRANCH   8   9
ATOM      9  N   UNL     1      45.411   4.538   8.089  0.00  0.00    +0.000 NA
ATOM     10  H   UNL     1      46.402   4.772   8.157  0.00  0.00    +0.000 HD
ATOM     11  H   UNL     1      44.906   5.367   8.399  0.00  0.00    +0.000 HD
ENDBRANCH   8   9
ENDBRANCH   7   8
ENDBRANCH   1   7
BRANCH   5  12
ATOM     12  C   UNL     1      45.966   7.554  12.956  0.00  0.00    +0.000 C 
BRANCH  12  13
ATOM     13  N   UNL     1      47.385   7.894  12.872  0.00  0.00    +0.000 N 
ATOM     14  C   UNL     1      48.176   7.524  11.808  0.00  0.00    +0.000 A 
ATOM     15  C   UNL     1      49.439   7.276  12.299  0.00  0.00    +0.000 A 
ATOM     16  C   UNL     1      49.453   7.662  13.667  0.00  0.00    +0.000 A 
ATOM     17  C   UNL     1      50.419   7.627  14.679  0.00  0.00    +0.000 A 
ATOM     18  N   UNL     1      50.167   8.177  15.890  0.00  0.00    +0.000 NA
ATOM     19  C   UNL     1      48.970   8.766  16.104  0.00  0.00    +0.000 A 
ATOM     20  C   UNL     1      47.921   8.788  15.190  0.00  0.00    +0.000 A 
ATOM     21  C   UNL     1      48.187   8.189  13.962  0.00  0.00    +0.000 A 
ENDBRANCH  12  13
ENDBRANCH   5  12
TORSDOF 5
ENDMDL
