MODEL 1
REMARK VINA RESULT:    -7.754      0.000      0.000
REMARK INTER + INTRA:         -10.205
REMARK INTER:                  -9.568
REMARK INTRA:                  -0.637
REMARK UNBOUND:                -0.637
REMARK  Name = 
REMARK  7 active torsions:
REMARK  status: ('A' for Active; 'I' for Inactive)
REMARK    1  A    between atoms: C_1  and  C_2
REMARK    2  A    between atoms: C_2  and  C_3
REMARK    3  A    between atoms: C_2  and  C_4
REMARK    4  A    between atoms: C_2  and  C_5
REMARK    5  A    between atoms: C_7  and  C_8
REMARK    6  A    between atoms: C_8  and  N_9
REMARK    7  A    between atoms: C_14  and  C_15
REMARK                            x       y       z     vdW  Elec       q    Type
REMARK                         _______ _______ _______ _____ _____    ______ ____
ROOT
ATOM      1  N   UNL     1      43.940   4.469  10.467  0.00  0.00    +0.000 N 
ATOM      2  C   UNL     1      43.464   3.357  11.107  0.00  0.00    +0.000 A 
ATOM      3  N   UNL     1      43.987   2.255  10.619  0.00  0.00    +0.000 NA
ATOM      4  C   UNL     1      44.844   2.669   9.631  0.00  0.00    +0.000 A 
ATOM      5  C   UNL     1      45.639   1.894   8.769  0.00  0.00    +0.000 A 
ATOM      6  C   UNL     1      46.437   2.546   7.816  0.00  0.00    +0.000 A 
ATOM      7  C   UNL     1      46.454   3.950   7.761  0.00  0.00    +0.000 A 
ATOM      8  C   UNL     1      45.664   4.735   8.610  0.00  0.00    +0.000 A 
ATOM      9  C   UNL     1      44.857   4.057   9.528  0.00  0.00    +0.000 A 
ENDROOT
BRANCH   6  10
ATOM     10  C   UNL     1      47.275   1.811   6.826  0.00  0.00    +0.000 C 
ATOM     11  N   UNL     1      48.298   2.472   6.206  0.00  0.00    +0.000 N 
ATOM     12  O   UNL     1      47.073   0.628   6.571  0.00  0.00    +0.000 OA
ATOM     13  H   UNL     1      48.558   3.431   6.371  0.00  0.00    +0.000 HD
ATOM     14  H   UNL     1      48.862   1.933   5.562  0.00  0.00    +0.000 HD
ENDBRANCH   6  10
BRANCH   1  15
ATOM     15  C   UNL     1      43.433   5.818  10.660  0.00  0.00    +0.000 C 
BRANCH  15  18
ATOM     16  C   UNL     1      46.450   7.029  12.652  0.00  0.00    +0.000 A 
ATOM     17  C   UNL     1      45.535   6.182  12.022  0.00  0.00    +0.000 A 
ATOM     18  C   UNL     1      44.414   6.712  11.369  0.00  0.00    +0.000 A 
ATOM     19  C   UNL     1      44.261   8.098  11.353  0.00  0.00    +0.000 A 
ATOM     20  C   UNL     1      45.212   8.876  11.992  0.00  0.00    +0.000 A 
ATOM     21  N   UNL     1      46.289   8.374  12.631  0.00  0.00    +0.000 NA
BRANCH  16  23
ATOM     22  C   UNL     1      48.914   6.566  12.474  0.00  0.00    +0.000 C 
ATOM     23  C   UNL     1      47.672   6.456  13.382  0.00  0.00    +0.000 C 
ATOM     24  C   UNL     1      47.426   4.979  13.749  0.00  0.00    +0.000 C 
ATOM     25  C   UNL     1      47.971   7.222  14.688  0.00  0.00    +0.000 C 
ENDBRANCH  16  23
ENDBRANCH  15  18
ENDBRANCH   1  15
TORSDOF 4
ENDMDL
MODEL 2
REMARK VINA RESULT:    -7.333      1.398      2.162
REMARK INTER + INTRA:          -9.684
REMARK INTER:                  -8.922
REMARK INTRA:                  -0.762
REMARK UNBOUND:                -0.637
REMARK  Name = 
REMARK  7 active torsions:
REMARK  status: ('A' for Active; 'I' for Inactive)
REMARK    1  A    between atoms: C_1  and  C_2
REMARK    2  A    between atoms: C_2  and  C_3
REMARK    3  A    between atoms: C_2  and  C_4
REMARK    4  A    between atoms: C_2  and  C_5
REMARK    5  A    between atoms: C_7  and  C_8
REMARK    6  A    between atoms: C_8  and  N_9
REMARK    7  A    between atoms: C_14  and  C_15
REMARK                            x       y       z     vdW  Elec       q    Type
REMARK                         _______ _______ _______ _____ _____    ______ ____
ROOT
ATOM      1  N   UNL     1      44.324   4.655  10.822  0.00  0.00    +0.000 N 
ATOM      2  C   UNL     1      43.581   3.566  11.189  0.00  0.00    +0.000 A 
ATOM      3  N   UNL     1      43.788   2.545  10.390  0.00  0.00    +0.000 NA
ATOM      4  C   UNL     1      44.709   2.984   9.473  0.00  0.00    +0.000 A 
ATOM      5  C   UNL     1      45.258   2.302   8.374  0.00  0.00    +0.000 A 
ATOM      6  C   UNL     1      46.185   2.967   7.559  0.00  0.00    +0.000 A 
ATOM      7  C   UNL     1      46.572   4.282   7.869  0.00  0.00    +0.000 A 
ATOM      8  C   UNL     1      46.031   4.977   8.957  0.00  0.00    +0.000 A 
ATOM      9  C   UNL     1      45.086   4.299   9.732  0.00  0.00    +0.000 A 
ENDROOT
BRANCH   6  10
ATOM     10  C   UNL     1      46.785   2.345   6.343  0.00  0.00    +0.000 C 
ATOM     11  N   UNL     1      46.973   3.115   5.231  0.00  0.00    +0.000 N 
ATOM     12  O   UNL     1      47.124   1.166   6.330  0.00  0.00    +0.000 OA
ATOM     13  H   UNL     1      46.755   4.095   5.155  0.00  0.00    +0.000 HD
ATOM     14  H   UNL     1      47.409   2.666   4.436  0.00  0.00    +0.000 HD
ENDBRANCH   6  10
BRANCH   1  15
ATOM     15  C   UNL     1      44.195   5.983  11.401  0.00  0.00    +0.000 C 
BRANCH  15  18
ATOM     16  C   UNL     1      47.122   8.035  12.726  0.00  0.00    +0.000 A 
ATOM     17  C   UNL     1      46.006   7.654  11.977  0.00  0.00    +0.000 A 
ATOM     18  C   UNL     1      45.415   6.400  12.177  0.00  0.00    +0.000 A 
ATOM     19  C   UNL     1      45.960   5.568  13.154  0.00  0.00    +0.000 A 
ATOM     20  C   UNL     1      47.063   6.014  13.863  0.00  0.00    +0.000 A 
ATOM     21  N   UNL     1      47.644   7.216  13.671  0.00  0.00    +0.000 NA
BRANCH  16  23
ATOM     22  C   UNL     1      48.943   9.255  11.495  0.00  0.00    +0.000 C 
ATOM     23  C   UNL     1      47.785   9.401  12.503  0.00  0.00    +0.000 C 
ATOM     24  C   UNL     1      48.325   9.952  13.838  0.00  0.00    +0.000 C 
ATOM     25  C   UNL     1      46.790  10.436  11.936  0.00  0.00    +0.000 C 
ENDBRANCH  16  23
ENDBRANCH  15  18
ENDBRANCH   1  15
TORSDOF 4
ENDMDL
MODEL 3
REMARK VINA RESULT:    -7.080      1.220      2.857
REMARK INTER + INTRA:          -9.373
REMARK INTER:                  -8.716
REMARK INTRA:                  -0.657
REMARK UNBOUND:                -0.637
REMARK  Name = 
REMARK  7 active torsions:
REMARK  status: ('A' for Active; 'I' for Inactive)
REMARK    1  A    between atoms: C_1  and  C_2
REMARK    2  A    between atoms: C_2  and  C_3
REMARK    3  A    between atoms: C_2  and  C_4
REMARK    4  A    between atoms: C_2  and  C_5
REMARK    5  A    between atoms: C_7  and  C_8
REMARK    6  A    between atoms: C_8  and  N_9
REMARK    7  A    between atoms: C_14  and  C_15
REMARK                            x       y       z     vdW  Elec       q    Type
REMARK                         _______ _______ _______ _____ _____    ______ ____
ROOT
ATOM      1  N   UNL     1      43.654   4.278  10.727  0.00  0.00    +0.000 N 
ATOM      2  C   UNL     1      43.310   3.097  11.325  0.00  0.00    +0.000 A 
ATOM      3  N   UNL     1      43.906   2.073  10.757  0.00  0.00    +0.000 NA
ATOM      4  C   UNL     1      44.675   2.612   9.757  0.00  0.00    +0.000 A 
ATOM      5  C   UNL     1      45.494   1.958   8.821  0.00  0.00    +0.000 A 
ATOM      6  C   UNL     1      46.185   2.726   7.873  0.00  0.00    +0.000 A 
ATOM      7  C   UNL     1      46.075   4.127   7.893  0.00  0.00    +0.000 A 
ATOM      8  C   UNL     1      45.260   4.794   8.816  0.00  0.00    +0.000 A 
ATOM      9  C   UNL     1      44.560   3.999   9.729  0.00  0.00    +0.000 A 
ENDROOT
BRANCH   6  10
ATOM     10  C   UNL     1      47.039   2.122   6.809  0.00  0.00    +0.000 C 
ATOM     11  N   UNL     1      47.372   2.877   5.721  0.00  0.00    +0.000 N 
ATOM     12  O   UNL     1      47.455   0.972   6.902  0.00  0.00    +0.000 OA
ATOM     13  H   UNL     1      47.103   3.835   5.570  0.00  0.00    +0.000 HD
ATOM     14  H   UNL     1      47.975   2.442   5.035  0.00  0.00    +0.000 HD
ENDBRANCH   6  10
BRANCH   1  15
ATOM     15  C   UNL     1      43.039   5.565  11.014  0.00  0.00    +0.000 C 
BRANCH  15  18
ATOM     16  C   UNL     1      44.834   8.878  11.596  0.00  0.00    +0.000 A 
ATOM     17  C   UNL     1      43.920   7.935  11.120  0.00  0.00    +0.000 A 
ATOM     18  C   UNL     1      44.032   6.590  11.493  0.00  0.00    +0.000 A 
ATOM     19  C   UNL     1      45.061   6.236  12.363  0.00  0.00    +0.000 A 
ATOM     20  C   UNL     1      45.927   7.224  12.802  0.00  0.00    +0.000 A 
ATOM     21  N   UNL     1      45.832   8.521  12.440  0.00  0.00    +0.000 NA
BRANCH  16  23
ATOM     22  C   UNL     1      46.031  11.088  11.553  0.00  0.00    +0.000 C 
ATOM     23  C   UNL     1      44.728  10.351  11.181  0.00  0.00    +0.000 C 
ATOM     24  C   UNL     1      43.533  11.018  11.893  0.00  0.00    +0.000 C 
ATOM     25  C   UNL     1      44.514  10.505   9.660  0.00  0.00    +0.000 C 
ENDBRANCH  16  23
ENDBRANCH  15  18
ENDBRANCH   1  15
TORSDOF 4
ENDMDL
MODEL 4
REMARK VINA RESULT:    -6.367      3.431      6.024
REMARK INTER + INTRA:          -8.493
REMARK INTER:                  -7.738
REMARK INTRA:                  -0.755
REMARK UNBOUND:                -0.637
REMARK  Name = 
REMARK  7 active torsions:
REMARK  status: ('A' for Active; 'I' for Inactive)
REMARK    1  A    between atoms: C_1  and  C_2
REMARK    2  A    between atoms: C_2  and  C_3
REMARK    3  A    between atoms: C_2  and  C_4
REMARK    4  A    between atoms: C_2  and  C_5
REMARK    5  A    between atoms: C_7  and  C_8
REMARK    6  A    between atoms: C_8  and  N_9
REMARK    7  A    between atoms: C_14  and  C_15
REMARK                            x       y       z     vdW  Elec       q    Type
REMARK                         _______ _______ _______ _____ _____    ______ ____
ROOT
ATOM      1  N   UNL     1      47.382   7.310  13.657  0.00  0.00    +0.000 N 
ATOM      2  C   UNL     1      46.678   8.414  13.259  0.00  0.00    +0.000 A 
ATOM      3  N   UNL     1      45.543   8.085  12.684  0.00  0.00    +0.000 NA
ATOM      4  C   UNL     1      45.505   6.714  12.719  0.00  0.00    +0.000 A 
ATOM      5  C   UNL     1      44.525   5.844  12.212  0.00  0.00    +0.000 A 
ATOM      6  C   UNL     1      44.709   4.461  12.355  0.00  0.00    +0.000 A 
ATOM      7  C   UNL     1      45.843   3.972  13.026  0.00  0.00    +0.000 A 
ATOM      8  C   UNL     1      46.830   4.825  13.533  0.00  0.00    +0.000 A 
ATOM      9  C   UNL     1      46.634   6.197  13.348  0.00  0.00    +0.000 A 
ENDROOT
BRANCH   6  10
ATOM     10  C   UNL     1      43.751   3.457  11.808  0.00  0.00    +0.000 C 
ATOM     11  N   UNL     1      43.685   2.222  12.387  0.00  0.00    +0.000 N 
ATOM     12  O   UNL     1      43.016   3.725  10.863  0.00  0.00    +0.000 OA
ATOM     13  H   UNL     1      44.225   1.920  13.182  0.00  0.00    +0.000 HD
ATOM     14  H   UNL     1      43.004   1.578  12.006  0.00  0.00    +0.000 HD
ENDBRANCH   6  10
BRANCH   1  15
ATOM     15  C   UNL     1      48.743   7.333  14.170  0.00  0.00    +0.000 C 
BRANCH  15  18
ATOM     16  C   UNL     1      48.922   5.648  17.585  0.00  0.00    +0.000 A 
ATOM     17  C   UNL     1      48.835   5.828  16.203  0.00  0.00    +0.000 A 
ATOM     18  C   UNL     1      48.807   7.119  15.658  0.00  0.00    +0.000 A 
ATOM     19  C   UNL     1      48.892   8.200  16.534  0.00  0.00    +0.000 A 
ATOM     20  C   UNL     1      48.984   7.946  17.892  0.00  0.00    +0.000 A 
ATOM     21  N   UNL     1      49.001   6.708  18.426  0.00  0.00    +0.000 NA
BRANCH  16  23
ATOM     22  C   UNL     1      48.833   4.335  19.727  0.00  0.00    +0.000 C 
ATOM     23  C   UNL     1      48.938   4.238  18.191  0.00  0.00    +0.000 C 
ATOM     24  C   UNL     1      50.241   3.510  17.805  0.00  0.00    +0.000 C 
ATOM     25  C   UNL     1      47.755   3.384  17.689  0.00  0.00    +0.000 C 
ENDBRANCH  16  23
ENDBRANCH  15  18
ENDBRANCH   1  15
TORSDOF 4
ENDMDL
MODEL 5
REMARK VINA RESULT:    -6.341      2.930      6.510
REMARK INTER + INTRA:          -8.461
REMARK INTER:                  -7.750
REMARK INTRA:                  -0.711
REMARK UNBOUND:                -0.637
REMARK  Name = 
REMARK  7 active torsions:
REMARK  status: ('A' for Active; 'I' for Inactive)
REMARK    1  A    between atoms: C_1  and  C_2
REMARK    2  A    between atoms: C_2  and  C_3
REMARK    3  A    between atoms: C_2  and  C_4
REMARK    4  A    between atoms: C_2  and  C_5
REMARK    5  A    between atoms: C_7  and  C_8
REMARK    6  A    between atoms: C_8  and  N_9
REMARK    7  A    between atoms: C_14  and  C_15
REMARK                            x       y       z     vdW  Elec       q    Type
REMARK                         _______ _______ _______ _____ _____    ______ ____
ROOT
ATOM      1  N   UNL     1      44.818   5.068  11.848  0.00  0.00    +0.000 N 
ATOM      2  C   UNL     1      44.484   4.325  12.948  0.00  0.00    +0.000 A 
ATOM      3  N   UNL     1      45.363   4.466  13.914  0.00  0.00    +0.000 NA
ATOM      4  C   UNL     1      46.299   5.342  13.425  0.00  0.00    +0.000 A 
ATOM      5  C   UNL     1      47.473   5.814  14.037  0.00  0.00    +0.000 A 
ATOM      6  C   UNL     1      48.292   6.707  13.331  0.00  0.00    +0.000 A 
ATOM      7  C   UNL     1      47.915   7.136  12.047  0.00  0.00    +0.000 A 
ATOM      8  C   UNL     1      46.752   6.671  11.422  0.00  0.00    +0.000 A 
ATOM      9  C   UNL     1      45.972   5.759  12.138  0.00  0.00    +0.000 A 
ENDROOT
BRANCH   6  10
ATOM     10  C   UNL     1      49.581   7.224  13.875  0.00  0.00    +0.000 C 
ATOM     11  N   UNL     1      50.530   7.681  13.005  0.00  0.00    +0.000 N 
ATOM     12  O   UNL     1      49.795   7.261  15.083  0.00  0.00    +0.000 OA
ATOM     13  H   UNL     1      50.434   7.718  12.004  0.00  0.00    +0.000 HD
ATOM     14  H   UNL     1      51.379   8.051  13.414  0.00  0.00    +0.000 HD
ENDBRANCH   6  10
BRANCH   1  15
ATOM     15  C   UNL     1      44.142   4.997  10.562  0.00  0.00    +0.000 C 
BRANCH  15  18
ATOM     16  C   UNL     1      45.900   2.782   8.005  0.00  0.00    +0.000 A 
ATOM     17  C   UNL     1      45.506   3.910   8.728  0.00  0.00    +0.000 A 
ATOM     18  C   UNL     1      44.556   3.799   9.752  0.00  0.00    +0.000 A 
ATOM     19  C   UNL     1      44.043   2.533  10.033  0.00  0.00    +0.000 A 
ATOM     20  C   UNL     1      44.484   1.458   9.280  0.00  0.00    +0.000 A 
ATOM     21  N   UNL     1      45.391   1.557   8.286  0.00  0.00    +0.000 NA
BRANCH  16  23
ATOM     22  C   UNL     1      47.644   4.260   6.962  0.00  0.00    +0.000 C 
ATOM     23  C   UNL     1      46.928   2.897   6.873  0.00  0.00    +0.000 C 
ATOM     24  C   UNL     1      46.227   2.767   5.505  0.00  0.00    +0.000 C 
ATOM     25  C   UNL     1      48.001   1.791   6.957  0.00  0.00    +0.000 C 
ENDBRANCH  16  23
ENDBRANCH  15  18
ENDBRANCH   1  15
TORSDOF 4
ENDMDL
MODEL 6
REMARK VINA RESULT:    -6.022      5.838      8.502
REMARK INTER + INTRA:          -8.067
REMARK INTER:                  -7.456
REMARK INTRA:                  -0.611
REMARK UNBOUND:                -0.637
REMARK  Name = 
REMARK  7 active torsions:
REMARK  status: ('A' for Active; 'I' for Inactive)
REMARK    1  A    between atoms: C_1  and  C_2
REMARK    2  A    between atoms: C_2  and  C_3
REMARK    3  A    between atoms: C_2  and  C_4
REMARK    4  A    between atoms: C_2  and  C_5
REMARK    5  A    between atoms: C_7  and  C_8
REMARK    6  A    between atoms: C_8  and  N_9
REMARK    7  A    between atoms: C_14  and  C_15
REMARK                            x       y       z     vdW  Elec       q    Type
REMARK                         _______ _______ _______ _____ _____    ______ ____
ROOT
ATOM      1  N   UNL     1      48.578   3.552  16.809  0.00  0.00    +0.000 N 
ATOM      2  C   UNL     1      48.369   2.356  16.179  0.00  0.00    +0.000 A 
ATOM      3  N   UNL     1      49.406   1.558  16.296  0.00  0.00    +0.000 NA
ATOM      4  C   UNL     1      50.320   2.260  17.040  0.00  0.00    +0.000 A 
ATOM      5  C   UNL     1      51.616   1.884  17.433  0.00  0.00    +0.000 A 
ATOM      6  C   UNL     1      52.381   2.783  18.191  0.00  0.00    +0.000 A 
ATOM      7  C   UNL     1      51.833   4.021  18.569  0.00  0.00    +0.000 A 
ATOM      8  C   UNL     1      50.546   4.412  18.181  0.00  0.00    +0.000 A 
ATOM      9  C   UNL     1      49.820   3.508  17.401  0.00  0.00    +0.000 A 
ENDROOT
BRANCH   6  10
ATOM     10  C   UNL     1      53.782   2.496  18.613  0.00  0.00    +0.000 C 
ATOM     11  N   UNL     1      54.803   2.781  17.752  0.00  0.00    +0.000 N 
ATOM     12  O   UNL     1      54.032   2.026  19.718  0.00  0.00    +0.000 OA
ATOM     13  H   UNL     1      54.700   3.194  16.839  0.00  0.00    +0.000 HD
ATOM     14  H   UNL     1      55.741   2.600  18.085  0.00  0.00    +0.000 HD
ENDBRANCH   6  10
BRANCH   1  15
ATOM     15  C   UNL     1      47.693   4.704  16.721  0.00  0.00    +0.000 C 
BRANCH  15  18
ATOM     16  C   UNL     1      46.387   5.290  13.187  0.00  0.00    +0.000 A 
ATOM     17  C   UNL     1      46.519   4.778  14.480  0.00  0.00    +0.000 A 
ATOM     18  C   UNL     1      47.552   5.222  15.315  0.00  0.00    +0.000 A 
ATOM     19  C   UNL     1      48.418   6.196  14.822  0.00  0.00    +0.000 A 
ATOM     20  C   UNL     1      48.223   6.664  13.533  0.00  0.00    +0.000 A 
ATOM     21  N   UNL     1      47.237   6.236  12.719  0.00  0.00    +0.000 NA
BRANCH  16  23
ATOM     22  C   UNL     1      45.435   5.433  10.865  0.00  0.00    +0.000 C 
ATOM     23  C   UNL     1      45.267   4.798  12.261  0.00  0.00    +0.000 C 
ATOM     24  C   UNL     1      43.891   5.182  12.843  0.00  0.00    +0.000 C 
ATOM     25  C   UNL     1      45.294   3.265  12.091  0.00  0.00    +0.000 C 
ENDBRANCH  16  23
ENDBRANCH  15  18
ENDBRANCH   1  15
TORSDOF 4
ENDMDL
MODEL 7
REMARK VINA RESULT:    -5.880      3.152      5.164
REMARK INTER + INTRA:          -7.892
REMARK INTER:                  -7.076
REMARK INTRA:                  -0.816
REMARK UNBOUND:                -0.637
REMARK  Name = 
REMARK  7 active torsions:
REMARK  status: ('A' for Active; 'I' for Inactive)
REMARK    1  A    between atoms: C_1  and  C_2
REMARK    2  A    between atoms: C_2  and  C_3
REMARK    3  A    between atoms: C_2  and  C_4
REMARK    4  A    between atoms: C_2  and  C_5
REMARK    5  A    between atoms: C_7  and  C_8
REMARK    6  A    between atoms: C_8  and  N_9
REMARK    7  A    between atoms: C_14  and  C_15
REMARK                            x       y       z     vdW  Elec       q    Type
REMARK                         _______ _______ _______ _____ _____    ______ ____
ROOT
ATOM      1  N   UNL     1      47.451   7.149  13.671  0.00  0.00    +0.000 N 
ATOM      2  C   UNL     1      47.936   6.092  14.392  0.00  0.00    +0.000 A 
ATOM      3  N   UNL     1      47.397   4.956  14.012  0.00  0.00    +0.000 NA
ATOM      4  C   UNL     1      46.534   5.287  12.998  0.00  0.00    +0.000 A 
ATOM      5  C   UNL     1      45.678   4.454  12.258  0.00  0.00    +0.000 A 
ATOM      6  C   UNL     1      44.868   5.026  11.266  0.00  0.00    +0.000 A 
ATOM      7  C   UNL     1      44.948   6.406  11.008  0.00  0.00    +0.000 A 
ATOM      8  C   UNL     1      45.792   7.250  11.739  0.00  0.00    +0.000 A 
ATOM      9  C   UNL     1      46.564   6.655  12.742  0.00  0.00    +0.000 A 
ENDROOT
BRANCH   6  10
ATOM     10  C   UNL     1      43.893   4.234  10.462  0.00  0.00    +0.000 C 
ATOM     11  N   UNL     1      43.888   4.374   9.103  0.00  0.00    +0.000 N 
ATOM     12  O   UNL     1      43.111   3.454  10.996  0.00  0.00    +0.000 OA
ATOM     13  H   UNL     1      44.509   4.965   8.575  0.00  0.00    +0.000 HD
ATOM     14  H   UNL     1      43.232   3.799   8.591  0.00  0.00    +0.000 HD
ENDBRANCH   6  10
BRANCH   1  15
ATOM     15  C   UNL     1      47.723   8.547  13.962  0.00  0.00    +0.000 C 
BRANCH  15  18
ATOM     16  C   UNL     1      50.520   9.327  11.490  0.00  0.00    +0.000 A 
ATOM     17  C   UNL     1      49.788   8.710  12.507  0.00  0.00    +0.000 A 
ATOM     18  C   UNL     1      48.539   9.216  12.888  0.00  0.00    +0.000 A 
ATOM     19  C   UNL     1      48.050  10.330  12.208  0.00  0.00    +0.000 A 
ATOM     20  C   UNL     1      48.826  10.886  11.204  0.00  0.00    +0.000 A 
ATOM     21  N   UNL     1      50.034  10.411  10.837  0.00  0.00    +0.000 NA
BRANCH  16  23
ATOM     22  C   UNL     1      52.576   9.788  10.119  0.00  0.00    +0.000 C 
ATOM     23  C   UNL     1      51.895   8.788  11.077  0.00  0.00    +0.000 C 
ATOM     24  C   UNL     1      51.741   7.422  10.377  0.00  0.00    +0.000 C 
ATOM     25  C   UNL     1      52.823   8.590  12.294  0.00  0.00    +0.000 C 
ENDBRANCH  16  23
ENDBRANCH  15  18
ENDBRANCH   1  15
TORSDOF 4
ENDMDL
MODEL 8
REMARK VINA RESULT:    -5.833      3.532      6.187
REMARK INTER + INTRA:          -7.834
REMARK INTER:                  -7.129
REMARK INTRA:                  -0.705
REMARK UNBOUND:                -0.637
REMARK  Name = 
REMARK  7 active torsions:
REMARK  status: ('A' for Active; 'I' for Inactive)
REMARK    1  A    between atoms: C_1  and  C_2
REMARK    2  A    between atoms: C_2  and  C_3
REMARK    3  A    between atoms: C_2  and  C_4
REMARK    4  A    between atoms: C_2  and  C_5
REMARK    5  A    between atoms: C_7  and  C_8
REMARK    6  A    between atoms: C_8  and  N_9
REMARK    7  A    between atoms: C_14  and  C_15
REMARK                            x       y       z     vdW  Elec       q    Type
REMARK                         _______ _______ _______ _____ _____    ______ ____
ROOT
ATOM      1  N   UNL     1      47.674   6.612  13.988  0.00  0.00    +0.000 N 
ATOM      2  C   UNL     1      47.429   7.898  13.589  0.00  0.00    +0.000 A 
ATOM      3  N   UNL     1      46.456   7.957  12.708  0.00  0.00    +0.000 NA
ATOM      4  C   UNL     1      46.046   6.659  12.536  0.00  0.00    +0.000 A 
ATOM      5  C   UNL     1      45.052   6.152  11.682  0.00  0.00    +0.000 A 
ATOM      6  C   UNL     1      44.813   4.770  11.667  0.00  0.00    +0.000 A 
ATOM      7  C   UNL     1      45.542   3.925  12.523  0.00  0.00    +0.000 A 
ATOM      8  C   UNL     1      46.538   4.414  13.376  0.00  0.00    +0.000 A 
ATOM      9  C   UNL     1      46.774   5.792  13.346  0.00  0.00    +0.000 A 
ENDROOT
BRANCH   6  10
ATOM     10  C   UNL     1      43.816   4.131  10.761  0.00  0.00    +0.000 C 
ATOM     11  N   UNL     1      43.783   4.504   9.447  0.00  0.00    +0.000 N 
ATOM     12  O   UNL     1      43.040   3.273  11.169  0.00  0.00    +0.000 OA
ATOM     13  H   UNL     1      44.397   5.175   9.015  0.00  0.00    +0.000 HD
ATOM     14  H   UNL     1      43.113   4.028   8.857  0.00  0.00    +0.000 HD
ENDBRANCH   6  10
BRANCH   1  15
ATOM     15  C   UNL     1      48.792   6.199  14.821  0.00  0.00    +0.000 C 
BRANCH  15  18
ATOM     16  C   UNL     1      48.134   6.805  18.527  0.00  0.00    +0.000 A 
ATOM     17  C   UNL     1      48.530   7.011  17.204  0.00  0.00    +0.000 A 
ATOM     18  C   UNL     1      48.399   5.987  16.258  0.00  0.00    +0.000 A 
ATOM     19  C   UNL     1      47.844   4.778  16.676  0.00  0.00    +0.000 A 
ATOM     20  C   UNL     1      47.467   4.646  18.002  0.00  0.00    +0.000 A 
ATOM     21  N   UNL     1      47.599   5.624  18.922  0.00  0.00    +0.000 NA
BRANCH  16  23
ATOM     22  C   UNL     1      47.196   8.984  19.358  0.00  0.00    +0.000 C 
ATOM     23  C   UNL     1      48.289   7.917  19.573  0.00  0.00    +0.000 C 
ATOM     24  C   UNL     1      49.681   8.568  19.453  0.00  0.00    +0.000 C 
ATOM     25  C   UNL     1      48.146   7.375  21.012  0.00  0.00    +0.000 C 
ENDBRANCH  16  23
ENDBRANCH  15  18
ENDBRANCH   1  15
TORSDOF 4
ENDMDL
MODEL 9
REMARK VINA RESULT:    -5.540      6.091      8.981
REMARK INTER + INTRA:          -7.472
REMARK INTER:                  -6.703
REMARK INTRA:                  -0.770
REMARK UNBOUND:                -0.637
REMARK  Name = 
REMARK  7 active torsions:
REMARK  status: ('A' for Active; 'I' for Inactive)
REMARK    1  A    between atoms: C_1  and  C_2
REMARK    2  A    between atoms: C_2  and  C_3
REMARK    3  A    between atoms: C_2  and  C_4
REMARK    4  A    between atoms: C_2  and  C_5
REMARK    5  A    between atoms: C_7  and  C_8
REMARK    6  A    between atoms: C_8  and  N_9
REMARK    7  A    between atoms: C_14  and  C_15
REMARK                            x       y       z     vdW  Elec       q    Type
REMARK                         _______ _______ _______ _____ _____    ______ ____
ROOT
ATOM      1  N   UNL     1      50.173   4.902  17.895  0.00  0.00    +0.000 N 
ATOM      2  C   UNL     1      51.130   5.810  18.258  0.00  0.00    +0.000 A 
ATOM      3  N   UNL     1      52.312   5.249  18.377  0.00  0.00    +0.000 NA
ATOM      4  C   UNL     1      52.116   3.926  18.070  0.00  0.00    +0.000 A 
ATOM      5  C   UNL     1      53.045   2.872  18.071  0.00  0.00    +0.000 A 
ATOM      6  C   UNL     1      52.607   1.584  17.730  0.00  0.00    +0.000 A 
ATOM      7  C   UNL     1      51.266   1.375  17.364  0.00  0.00    +0.000 A 
ATOM      8  C   UNL     1      50.328   2.414  17.363  0.00  0.00    +0.000 A 
ATOM      9  C   UNL     1      50.787   3.680  17.737  0.00  0.00    +0.000 A 
ENDROOT
BRANCH   6  10
ATOM     10  C   UNL     1      53.505   0.393  17.750  0.00  0.00    +0.000 C 
ATOM     11  N   UNL     1      53.139  -0.698  18.486  0.00  0.00    +0.000 N 
ATOM     12  O   UNL     1      54.551   0.371  17.109  0.00  0.00    +0.000 OA
ATOM     13  H   UNL     1      52.289  -0.785  19.018  0.00  0.00    +0.000 HD
ATOM     14  H   UNL     1      53.759  -1.497  18.451  0.00  0.00    +0.000 HD
ENDBRANCH   6  10
BRANCH   1  15
ATOM     15  C   UNL     1      48.745   5.174  17.845  0.00  0.00    +0.000 C 
BRANCH  15  18
ATOM     16  C   UNL     1      47.972   6.238  14.266  0.00  0.00    +0.000 A 
ATOM     17  C   UNL     1      48.459   6.257  15.575  0.00  0.00    +0.000 A 
ATOM     18  C   UNL     1      48.204   5.185  16.441  0.00  0.00    +0.000 A 
ATOM     19  C   UNL     1      47.476   4.104  15.946  0.00  0.00    +0.000 A 
ATOM     20  C   UNL     1      47.031   4.150  14.635  0.00  0.00    +0.000 A 
ATOM     21  N   UNL     1      47.264   5.182  13.798  0.00  0.00    +0.000 NA
BRANCH  16  23
ATOM     22  C   UNL     1      47.597   7.121  11.943  0.00  0.00    +0.000 C 
ATOM     23  C   UNL     1      48.234   7.415  13.317  0.00  0.00    +0.000 C 
ATOM     24  C   UNL     1      49.751   7.634  13.149  0.00  0.00    +0.000 C 
ATOM     25  C   UNL     1      47.625   8.729  13.850  0.00  0.00    +0.000 C 
ENDBRANCH  16  23
ENDBRANCH  15  18
ENDBRANCH   1  15
TORSDOF 4
ENDMDL
