MODEL 1
REMARK VINA RESULT:    -6.609      0.000      0.000
REMARK INTER + INTRA:          -9.921
REMARK INTER:                  -8.540
REMARK INTRA:                  -1.381
REMARK UNBOUND:                -1.381
REMARK  Name = 
REMARK  6 active torsions:
REMARK  status: ('A' for Active; 'I' for Inactive)
REMARK    1  A    between atoms: C_1  and  N_2
REMARK    2  A    between atoms: N_2  and  C_15
REMARK    3  A    between atoms: C_3  and  C_5
REMARK    4  A    between atoms: C_18  and  C_19
REMARK    5  A    between atoms: C_19  and  N_20
REMARK    6  A    between atoms: C_21  and  C_23
REMARK                            x       y       z     vdW  Elec       q    Type
REMARK                         _______ _______ _______ _____ _____    ______ ____
ROOT
ATOM      1  C   UNL     1      48.059   7.232  13.621  0.00  0.00    +0.000 A 
ATOM      2  C   UNL     1      47.789   5.893  13.898  0.00  0.00    +0.000 A 
ATOM      3  C   UNL     1      46.521   5.375  13.627  0.00  0.00    +0.000 A 
ATOM      4  C   UNL     1      45.524   6.181  13.053  0.00  0.00    +0.000 A 
ATOM      5  C   UNL     1      45.791   7.541  12.835  0.00  0.00    +0.000 A 
ATOM      6  C   UNL     1      47.046   8.073  13.145  0.00  0.00    +0.000 A 
ENDROOT
BRANCH   1   8
ATOM      7  C   UNL     1      50.114   7.768  12.457  0.00  0.00    +0.000 C 
ATOM      8  N   UNL     1      49.375   7.730  13.717  0.00  0.00    +0.000 N 
ATOM      9  C   UNL     1      49.941   8.309  14.876  0.00  0.00    +0.000 C 
ATOM     10  O   UNL     1      51.097   8.732  14.852  0.00  0.00    +0.000 OA
BRANCH   9  11
ATOM     11  C   UNL     1      49.171   8.375  16.149  0.00  0.00    +0.000 A 
ATOM     12  C   UNL     1      48.364   9.429  16.544  0.00  0.00    +0.000 A 
ATOM     13  S   UNL     1      47.630   9.238  18.067  0.00  0.00    +0.000 S 
ATOM     14  C   UNL     1      48.191   7.646  18.174  0.00  0.00    +0.000 A 
ATOM     15  N   UNL     1      47.808   6.864  19.214  0.00  0.00    +0.000 NA
ATOM     16  C   UNL     1      48.241   5.645  19.142  0.00  0.00    +0.000 A 
ATOM     17  N   UNL     1      49.046   5.163  18.151  0.00  0.00    +0.000 N 
ATOM     18  C   UNL     1      49.575   5.957  17.149  0.00  0.00    +0.000 A 
ATOM     19  O   UNL     1      50.463   5.527  16.427  0.00  0.00    +0.000 OA
ATOM     20  C   UNL     1      49.023   7.303  17.119  0.00  0.00    +0.000 A 
ATOM     21  H   UNL     1      49.395   4.218  18.188  0.00  0.00    +0.000 HD
ENDBRANCH   9  11
ENDBRANCH   1   8
BRANCH   4  22
ATOM     22  C   UNL     1      44.168   5.608  12.728  0.00  0.00    +0.000 C 
BRANCH  22  23
ATOM     23  N   UNL     1      44.152   5.134  11.366  0.00  0.00    +0.000 N 
ATOM     24  C   UNL     1      44.380   3.811  11.044  0.00  0.00    +0.000 C 
ATOM     25  O   UNL     1      44.648   2.955  11.879  0.00  0.00    +0.000 OA
ATOM     26  H   UNL     1      43.755   5.752  10.667  0.00  0.00    +0.000 HD
BRANCH  24  27
ATOM     27  C   UNL     1      44.214   3.535   9.558  0.00  0.00    +0.000 C 
ATOM     28  C   UNL     1      44.479   2.107   9.139  0.00  0.00    +0.000 C 
ATOM     29  C   UNL     1      45.864   2.139   8.536  0.00  0.00    +0.000 C 
ATOM     30  O   UNL     1      46.088   3.467   8.063  0.00  0.00    +0.000 OA
ATOM     31  C   UNL     1      45.192   4.356   8.734  0.00  0.00    +0.000 C 
ENDBRANCH  24  27
ENDBRANCH  22  23
ENDBRANCH   4  22
TORSDOF 5
ENDMDL
MODEL 2
REMARK VINA RESULT:    -6.555      1.543      2.256
REMARK INTER + INTRA:          -9.853
REMARK INTER:                  -8.586
REMARK INTRA:                  -1.267
REMARK UNBOUND:                -1.381
REMARK  Name = 
REMARK  6 active torsions:
REMARK  status: ('A' for Active; 'I' for Inactive)
REMARK    1  A    between atoms: C_1  and  N_2
REMARK    2  A    between atoms: N_2  and  C_15
REMARK    3  A    between atoms: C_3  and  C_5
REMARK    4  A    between atoms: C_18  and  C_19
REMARK    5  A    between atoms: C_19  and  N_20
REMARK    6  A    between atoms: C_21  and  C_23
REMARK                            x       y       z     vdW  Elec       q    Type
REMARK                         _______ _______ _______ _____ _____    ______ ____
ROOT
ATOM      1  C   UNL     1      48.459   7.323  12.864  0.00  0.00    +0.000 A 
ATOM      2  C   UNL     1      48.048   6.004  13.047  0.00  0.00    +0.000 A 
ATOM      3  C   UNL     1      46.738   5.639  12.731  0.00  0.00    +0.000 A 
ATOM      4  C   UNL     1      45.838   6.581  12.205  0.00  0.00    +0.000 A 
ATOM      5  C   UNL     1      46.247   7.918  12.082  0.00  0.00    +0.000 A 
ATOM      6  C   UNL     1      47.546   8.294  12.438  0.00  0.00    +0.000 A 
ENDROOT
BRANCH   1   8
ATOM      7  C   UNL     1      50.512   7.968  11.753  0.00  0.00    +0.000 C 
ATOM      8  N   UNL     1      49.817   7.674  13.005  0.00  0.00    +0.000 N 
ATOM      9  C   UNL     1      50.475   7.897  14.236  0.00  0.00    +0.000 C 
ATOM     10  O   UNL     1      51.663   8.219  14.251  0.00  0.00    +0.000 OA
BRANCH   9  11
ATOM     11  C   UNL     1      49.760   7.704  15.528  0.00  0.00    +0.000 A 
ATOM     12  C   UNL     1      49.807   6.560  16.308  0.00  0.00    +0.000 A 
ATOM     13  S   UNL     1      48.861   6.616  17.720  0.00  0.00    +0.000 S 
ATOM     14  C   UNL     1      48.512   8.250  17.461  0.00  0.00    +0.000 A 
ATOM     15  N   UNL     1      47.817   8.948  18.394  0.00  0.00    +0.000 NA
ATOM     16  C   UNL     1      47.681  10.206  18.116  0.00  0.00    +0.000 A 
ATOM     17  N   UNL     1      48.142  10.805  16.979  0.00  0.00    +0.000 N 
ATOM     18  C   UNL     1      48.731  10.108  15.939  0.00  0.00    +0.000 A 
ATOM     19  O   UNL     1      48.915  10.653  14.860  0.00  0.00    +0.000 OA
ATOM     20  C   UNL     1      49.012   8.716  16.255  0.00  0.00    +0.000 A 
ATOM     21  H   UNL     1      47.949  11.778  16.798  0.00  0.00    +0.000 HD
ENDBRANCH   9  11
ENDBRANCH   1   8
BRANCH   4  22
ATOM     22  C   UNL     1      44.435   6.175  11.831  0.00  0.00    +0.000 C 
BRANCH  22  23
ATOM     23  N   UNL     1      44.453   5.454  10.581  0.00  0.00    +0.000 N 
ATOM     24  C   UNL     1      44.433   4.075  10.527  0.00  0.00    +0.000 C 
ATOM     25  O   UNL     1      44.438   3.365  11.524  0.00  0.00    +0.000 OA
ATOM     26  H   UNL     1      44.261   5.986   9.739  0.00  0.00    +0.000 HD
BRANCH  24  27
ATOM     27  C   UNL     1      44.357   3.550   9.102  0.00  0.00    +0.000 C 
ATOM     28  C   UNL     1      44.501   2.050   8.965  0.00  0.00    +0.000 C 
ATOM     29  C   UNL     1      45.925   1.847   8.502  0.00  0.00    +0.000 C 
ATOM     30  O   UNL     1      46.327   3.040   7.830  0.00  0.00    +0.000 OA
ATOM     31  C   UNL     1      45.479   4.114   8.247  0.00  0.00    +0.000 C 
ENDBRANCH  24  27
ENDBRANCH  22  23
ENDBRANCH   4  22
TORSDOF 5
ENDMDL
MODEL 3
REMARK VINA RESULT:    -6.026      2.254      3.427
REMARK INTER + INTRA:          -9.169
REMARK INTER:                  -7.702
REMARK INTRA:                  -1.467
REMARK UNBOUND:                -1.381
REMARK  Name = 
REMARK  6 active torsions:
REMARK  status: ('A' for Active; 'I' for Inactive)
REMARK    1  A    between atoms: C_1  and  N_2
REMARK    2  A    between atoms: N_2  and  C_15
REMARK    3  A    between atoms: C_3  and  C_5
REMARK    4  A    between atoms: C_18  and  C_19
REMARK    5  A    between atoms: C_19  and  N_20
REMARK    6  A    between atoms: C_21  and  C_23
REMARK                            x       y       z     vdW  Elec       q    Type
REMARK                         _______ _______ _______ _____ _____    ______ ____
ROOT
ATOM      1  C   UNL     1      49.914   8.094  15.889  0.00  0.00    +0.000 A 
ATOM      2  C   UNL     1      48.926   9.076  15.908  0.00  0.00    +0.000 A 
ATOM      3  C   UNL     1      47.898   9.039  14.963  0.00  0.00    +0.000 A 
ATOM      4  C   UNL     1      47.836   8.006  14.012  0.00  0.00    +0.000 A 
ATOM      5  C   UNL     1      48.869   7.059  13.967  0.00  0.00    +0.000 A 
ATOM      6  C   UNL     1      49.923   7.119  14.885  0.00  0.00    +0.000 A 
ENDROOT
BRANCH   1   8
ATOM      7  C   UNL     1      52.085   8.770  16.723  0.00  0.00    +0.000 C 
ATOM      8  N   UNL     1      50.856   8.008  16.936  0.00  0.00    +0.000 N 
ATOM      9  C   UNL     1      50.630   7.383  18.183  0.00  0.00    +0.000 C 
ATOM     10  O   UNL     1      51.513   7.378  19.040  0.00  0.00    +0.000 OA
BRANCH   9  11
ATOM     11  C   UNL     1      49.344   6.686  18.463  0.00  0.00    +0.000 A 
ATOM     12  C   UNL     1      48.237   7.257  19.069  0.00  0.00    +0.000 A 
ATOM     13  S   UNL     1      46.917   6.206  19.288  0.00  0.00    +0.000 S 
ATOM     14  C   UNL     1      47.689   4.997  18.392  0.00  0.00    +0.000 A 
ATOM     15  N   UNL     1      47.031   3.847  18.102  0.00  0.00    +0.000 NA
ATOM     16  C   UNL     1      47.700   3.035  17.347  0.00  0.00    +0.000 A 
ATOM     17  N   UNL     1      48.970   3.258  16.898  0.00  0.00    +0.000 N 
ATOM     18  C   UNL     1      49.730   4.349  17.281  0.00  0.00    +0.000 A 
ATOM     19  O   UNL     1      50.927   4.381  17.035  0.00  0.00    +0.000 OA
ATOM     20  C   UNL     1      48.982   5.346  18.031  0.00  0.00    +0.000 A 
ATOM     21  H   UNL     1      49.455   2.556  16.361  0.00  0.00    +0.000 HD
ENDBRANCH   9  11
ENDBRANCH   1   8
BRANCH   4  22
ATOM     22  C   UNL     1      46.704   7.949  13.018  0.00  0.00    +0.000 C 
BRANCH  22  23
ATOM     23  N   UNL     1      45.902   6.774  13.258  0.00  0.00    +0.000 N 
ATOM     24  C   UNL     1      44.834   6.434  12.453  0.00  0.00    +0.000 C 
ATOM     25  O   UNL     1      44.465   7.118  11.505  0.00  0.00    +0.000 OA
ATOM     26  H   UNL     1      46.275   6.086  13.904  0.00  0.00    +0.000 HD
BRANCH  24  27
ATOM     27  C   UNL     1      44.207   5.106  12.845  0.00  0.00    +0.000 C 
ATOM     28  C   UNL     1      44.994   3.881  12.434  0.00  0.00    +0.000 C 
ATOM     29  C   UNL     1      44.276   3.363  11.210  0.00  0.00    +0.000 C 
ATOM     30  O   UNL     1      42.921   3.802  11.297  0.00  0.00    +0.000 OA
ATOM     31  C   UNL     1      42.852   4.920  12.185  0.00  0.00    +0.000 C 
ENDBRANCH  24  27
ENDBRANCH  22  23
ENDBRANCH   4  22
TORSDOF 5
ENDMDL
MODEL 4
REMARK VINA RESULT:    -5.977      1.600      2.169
REMARK INTER + INTRA:          -9.105
REMARK INTER:                  -7.622
REMARK INTRA:                  -1.483
REMARK UNBOUND:                -1.381
REMARK  Name = 
REMARK  6 active torsions:
REMARK  status: ('A' for Active; 'I' for Inactive)
REMARK    1  A    between atoms: C_1  and  N_2
REMARK    2  A    between atoms: N_2  and  C_15
REMARK    3  A    between atoms: C_3  and  C_5
REMARK    4  A    between atoms: C_18  and  C_19
REMARK    5  A    between atoms: C_19  and  N_20
REMARK    6  A    between atoms: C_21  and  C_23
REMARK                            x       y       z     vdW  Elec       q    Type
REMARK                         _______ _______ _______ _____ _____    ______ ____
ROOT
ATOM      1  C   UNL     1      49.322   8.375  14.340  0.00  0.00    +0.000 A 
ATOM      2  C   UNL     1      49.198   7.059  13.901  0.00  0.00    +0.000 A 
ATOM      3  C   UNL     1      48.113   6.699  13.098  0.00  0.00    +0.000 A 
ATOM      4  C   UNL     1      47.161   7.656  12.708  0.00  0.00    +0.000 A 
ATOM      5  C   UNL     1      47.266   8.963  13.206  0.00  0.00    +0.000 A 
ATOM      6  C   UNL     1      48.328   9.316  14.045  0.00  0.00    +0.000 A 
ENDROOT
BRANCH   1   8
ATOM      7  C   UNL     1      51.524   9.359  14.124  0.00  0.00    +0.000 C 
ATOM      8  N   UNL     1      50.494   8.801  14.998  0.00  0.00    +0.000 N 
ATOM      9  C   UNL     1      50.664   8.859  16.401  0.00  0.00    +0.000 C 
ATOM     10  O   UNL     1      51.724   9.264  16.877  0.00  0.00    +0.000 OA
BRANCH   9  11
ATOM     11  C   UNL     1      49.589   8.391  17.318  0.00  0.00    +0.000 A 
ATOM     12  C   UNL     1      48.631   9.199  17.909  0.00  0.00    +0.000 A 
ATOM     13  S   UNL     1      47.545   8.388  18.937  0.00  0.00    +0.000 S 
ATOM     14  C   UNL     1      48.174   6.889  18.474  0.00  0.00    +0.000 A 
ATOM     15  N   UNL     1      47.593   5.746  18.919  0.00  0.00    +0.000 NA
ATOM     16  C   UNL     1      48.119   4.666  18.432  0.00  0.00    +0.000 A 
ATOM     17  N   UNL     1      49.186   4.635  17.582  0.00  0.00    +0.000 N 
ATOM     18  C   UNL     1      49.896   5.764  17.213  0.00  0.00    +0.000 A 
ATOM     19  O   UNL     1      50.969   5.655  16.639  0.00  0.00    +0.000 OA
ATOM     20  C   UNL     1      49.274   7.009  17.637  0.00  0.00    +0.000 A 
ATOM     21  H   UNL     1      49.582   3.756  17.288  0.00  0.00    +0.000 HD
ENDBRANCH   9  11
ENDBRANCH   1   8
BRANCH   4  22
ATOM     22  C   UNL     1      46.012   7.271  11.811  0.00  0.00    +0.000 C 
BRANCH  22  23
ATOM     23  N   UNL     1      45.876   5.835  11.781  0.00  0.00    +0.000 N 
ATOM     24  C   UNL     1      44.965   5.166  12.573  0.00  0.00    +0.000 C 
ATOM     25  O   UNL     1      44.237   5.730  13.382  0.00  0.00    +0.000 OA
ATOM     26  H   UNL     1      46.313   5.346  11.007  0.00  0.00    +0.000 HD
BRANCH  24  27
ATOM     27  C   UNL     1      44.938   3.671  12.294  0.00  0.00    +0.000 C 
ATOM     28  C   UNL     1      45.359   3.274  10.897  0.00  0.00    +0.000 C 
ATOM     29  C   UNL     1      44.062   2.991  10.176  0.00  0.00    +0.000 C 
ATOM     30  O   UNL     1      43.100   2.624  11.164  0.00  0.00    +0.000 OA
ATOM     31  C   UNL     1      43.533   3.110  12.437  0.00  0.00    +0.000 C 
ENDBRANCH  24  27
ENDBRANCH  22  23
ENDBRANCH   4  22
TORSDOF 5
ENDMDL
MODEL 5
REMARK VINA RESULT:    -5.940      2.537      4.674
REMARK INTER + INTRA:          -9.057
REMARK INTER:                  -7.715
REMARK INTRA:                  -1.343
REMARK UNBOUND:                -1.381
REMARK  Name = 
REMARK  6 active torsions:
REMARK  status: ('A' for Active; 'I' for Inactive)
REMARK    1  A    between atoms: C_1  and  N_2
REMARK    2  A    between atoms: N_2  and  C_15
REMARK    3  A    between atoms: C_3  and  C_5
REMARK    4  A    between atoms: C_18  and  C_19
REMARK    5  A    between atoms: C_19  and  N_20
REMARK    6  A    between atoms: C_21  and  C_23
REMARK                            x       y       z     vdW  Elec       q    Type
REMARK                         _______ _______ _______ _____ _____    ______ ____
ROOT
ATOM      1  C   UNL     1      49.416   7.947  17.563  0.00  0.00    +0.000 A 
ATOM      2  C   UNL     1      48.395   8.714  17.006  0.00  0.00    +0.000 A 
ATOM      3  C   UNL     1      48.283   8.810  15.617  0.00  0.00    +0.000 A 
ATOM      4  C   UNL     1      49.173   8.122  14.777  0.00  0.00    +0.000 A 
ATOM      5  C   UNL     1      50.233   7.403  15.350  0.00  0.00    +0.000 A 
ATOM      6  C   UNL     1      50.372   7.339  16.740  0.00  0.00    +0.000 A 
ENDROOT
BRANCH   1   8
ATOM      7  C   UNL     1      49.747   8.849  19.786  0.00  0.00    +0.000 C 
ATOM      8  N   UNL     1      49.442   7.690  18.949  0.00  0.00    +0.000 N 
ATOM      9  C   UNL     1      49.060   6.472  19.556  0.00  0.00    +0.000 C 
ATOM     10  O   UNL     1      49.102   6.354  20.781  0.00  0.00    +0.000 OA
BRANCH   9  11
ATOM     11  C   UNL     1      48.647   5.305  18.729  0.00  0.00    +0.000 A 
ATOM     12  C   UNL     1      47.406   5.141  18.136  0.00  0.00    +0.000 A 
ATOM     13  S   UNL     1      47.209   3.689  17.272  0.00  0.00    +0.000 S 
ATOM     14  C   UNL     1      48.844   3.309  17.476  0.00  0.00    +0.000 A 
ATOM     15  N   UNL     1      49.364   2.216  16.863  0.00  0.00    +0.000 NA
ATOM     16  C   UNL     1      50.641   2.076  17.033  0.00  0.00    +0.000 A 
ATOM     17  N   UNL     1      51.421   2.905  17.787  0.00  0.00    +0.000 N 
ATOM     18  C   UNL     1      50.912   3.948  18.541  0.00  0.00    +0.000 A 
ATOM     19  O   UNL     1      51.616   4.509  19.368  0.00  0.00    +0.000 OA
ATOM     20  C   UNL     1      49.505   4.217  18.290  0.00  0.00    +0.000 A 
ATOM     21  H   UNL     1      52.399   2.704  17.925  0.00  0.00    +0.000 HD
ENDBRANCH   9  11
ENDBRANCH   1   8
BRANCH   4  22
ATOM     22  C   UNL     1      49.027   8.200  13.278  0.00  0.00    +0.000 C 
BRANCH  22  23
ATOM     23  N   UNL     1      47.713   7.746  12.892  0.00  0.00    +0.000 N 
ATOM     24  C   UNL     1      47.383   6.407  12.838  0.00  0.00    +0.000 C 
ATOM     25  O   UNL     1      48.183   5.510  13.073  0.00  0.00    +0.000 OA
ATOM     26  H   UNL     1      46.973   8.440  12.871  0.00  0.00    +0.000 HD
BRANCH  24  27
ATOM     27  C   UNL     1      45.918   6.181  12.502  0.00  0.00    +0.000 C 
ATOM     28  C   UNL     1      45.254   5.054  13.262  0.00  0.00    +0.000 C 
ATOM     29  C   UNL     1      45.207   3.909  12.276  0.00  0.00    +0.000 C 
ATOM     30  O   UNL     1      45.215   4.477  10.967  0.00  0.00    +0.000 OA
ATOM     31  C   UNL     1      45.739   5.806  11.041  0.00  0.00    +0.000 C 
ENDBRANCH  24  27
ENDBRANCH  22  23
ENDBRANCH   4  22
TORSDOF 5
ENDMDL
MODEL 6
REMARK VINA RESULT:    -5.914      1.707      2.337
REMARK INTER + INTRA:          -9.024
REMARK INTER:                  -7.755
REMARK INTRA:                  -1.269
REMARK UNBOUND:                -1.381
REMARK  Name = 
REMARK  6 active torsions:
REMARK  status: ('A' for Active; 'I' for Inactive)
REMARK    1  A    between atoms: C_1  and  N_2
REMARK    2  A    between atoms: N_2  and  C_15
REMARK    3  A    between atoms: C_3  and  C_5
REMARK    4  A    between atoms: C_18  and  C_19
REMARK    5  A    between atoms: C_19  and  N_20
REMARK    6  A    between atoms: C_21  and  C_23
REMARK                            x       y       z     vdW  Elec       q    Type
REMARK                         _______ _______ _______ _____ _____    ______ ____
ROOT
ATOM      1  C   UNL     1      48.510   7.455  13.860  0.00  0.00    +0.000 A 
ATOM      2  C   UNL     1      47.995   6.368  13.158  0.00  0.00    +0.000 A 
ATOM      3  C   UNL     1      46.733   6.464  12.566  0.00  0.00    +0.000 A 
ATOM      4  C   UNL     1      45.991   7.653  12.649  0.00  0.00    +0.000 A 
ATOM      5  C   UNL     1      46.496   8.719  13.409  0.00  0.00    +0.000 A 
ATOM      6  C   UNL     1      47.740   8.610  14.038  0.00  0.00    +0.000 A 
ENDROOT
BRANCH   1   8
ATOM      7  C   UNL     1      50.804   8.091  13.414  0.00  0.00    +0.000 C 
ATOM      8  N   UNL     1      49.846   7.447  14.311  0.00  0.00    +0.000 N 
ATOM      9  C   UNL     1      50.271   7.008  15.586  0.00  0.00    +0.000 C 
ATOM     10  O   UNL     1      51.462   7.058  15.890  0.00  0.00    +0.000 OA
BRANCH   9  11
ATOM     11  C   UNL     1      49.298   6.441  16.559  0.00  0.00    +0.000 A 
ATOM     12  C   UNL     1      48.843   5.132  16.569  0.00  0.00    +0.000 A 
ATOM     13  S   UNL     1      47.707   4.776  17.784  0.00  0.00    +0.000 S 
ATOM     14  C   UNL     1      47.929   6.300  18.484  0.00  0.00    +0.000 A 
ATOM     15  N   UNL     1      47.315   6.601  19.655  0.00  0.00    +0.000 NA
ATOM     16  C   UNL     1      47.626   7.768  20.127  0.00  0.00    +0.000 A 
ATOM     17  N   UNL     1      48.456   8.659  19.511  0.00  0.00    +0.000 N 
ATOM     18  C   UNL     1      48.992   8.453  18.252  0.00  0.00    +0.000 A 
ATOM     19  O   UNL     1      49.537   9.372  17.658  0.00  0.00    +0.000 OA
ATOM     20  C   UNL     1      48.770   7.111  17.735  0.00  0.00    +0.000 A 
ATOM     21  H   UNL     1      48.608   9.575  19.905  0.00  0.00    +0.000 HD
ENDBRANCH   9  11
ENDBRANCH   1   8
BRANCH   4  22
ATOM     22  C   UNL     1      44.646   7.765  11.978  0.00  0.00    +0.000 C 
BRANCH  22  23
ATOM     23  N   UNL     1      44.301   6.506  11.363  0.00  0.00    +0.000 N 
ATOM     24  C   UNL     1      43.515   5.567  12.000  0.00  0.00    +0.000 C 
ATOM     25  O   UNL     1      43.086   5.712  13.139  0.00  0.00    +0.000 OA
ATOM     26  H   UNL     1      44.469   6.417  10.367  0.00  0.00    +0.000 HD
BRANCH  24  27
ATOM     27  C   UNL     1      43.208   4.368  11.117  0.00  0.00    +0.000 C 
ATOM     28  C   UNL     1      43.666   3.035  11.666  0.00  0.00    +0.000 C 
ATOM     29  C   UNL     1      44.933   2.725  10.902  0.00  0.00    +0.000 C 
ATOM     30  O   UNL     1      44.853   3.415   9.654  0.00  0.00    +0.000 OA
ATOM     31  C   UNL     1      43.908   4.481   9.773  0.00  0.00    +0.000 C 
ENDBRANCH  24  27
ENDBRANCH  22  23
ENDBRANCH   4  22
TORSDOF 5
ENDMDL
MODEL 7
REMARK VINA RESULT:    -5.700      2.954      8.410
REMARK INTER + INTRA:          -8.747
REMARK INTER:                  -8.532
REMARK INTRA:                  -0.215
REMARK UNBOUND:                -1.381
REMARK  Name = 
REMARK  6 active torsions:
REMARK  status: ('A' for Active; 'I' for Inactive)
REMARK    1  A    between atoms: C_1  and  N_2
REMARK    2  A    between atoms: N_2  and  C_15
REMARK    3  A    between atoms: C_3  and  C_5
REMARK    4  A    between atoms: C_18  and  C_19
REMARK    5  A    between atoms: C_19  and  N_20
REMARK    6  A    between atoms: C_21  and  C_23
REMARK                            x       y       z     vdW  Elec       q    Type
REMARK                         _______ _______ _______ _____ _____    ______ ____
ROOT
ATOM      1  C   UNL     1      46.027   6.404  13.107  0.00  0.00    +0.000 A 
ATOM      2  C   UNL     1      45.651   5.177  13.650  0.00  0.00    +0.000 A 
ATOM      3  C   UNL     1      46.491   4.542  14.567  0.00  0.00    +0.000 A 
ATOM      4  C   UNL     1      47.698   5.139  14.967  0.00  0.00    +0.000 A 
ATOM      5  C   UNL     1      48.092   6.345  14.367  0.00  0.00    +0.000 A 
ATOM      6  C   UNL     1      47.273   6.962  13.417  0.00  0.00    +0.000 A 
ENDROOT
BRANCH   1   8
ATOM      7  C   UNL     1      45.293   8.596  12.385  0.00  0.00    +0.000 C 
ATOM      8  N   UNL     1      45.120   7.146  12.322  0.00  0.00    +0.000 N 
ATOM      9  C   UNL     1      44.197   6.593  11.405  0.00  0.00    +0.000 C 
ATOM     10  O   UNL     1      43.459   7.330  10.752  0.00  0.00    +0.000 OA
BRANCH   9  11
ATOM     11  C   UNL     1      44.072   5.118  11.247  0.00  0.00    +0.000 A 
ATOM     12  C   UNL     1      43.243   4.298  11.994  0.00  0.00    +0.000 A 
ATOM     13  S   UNL     1      43.333   2.643  11.610  0.00  0.00    +0.000 S 
ATOM     14  C   UNL     1      44.330   2.973  10.284  0.00  0.00    +0.000 A 
ATOM     15  N   UNL     1      44.685   1.970   9.441  0.00  0.00    +0.000 NA
ATOM     16  C   UNL     1      45.385   2.363   8.423  0.00  0.00    +0.000 A 
ATOM     17  N   UNL     1      45.785   3.650   8.205  0.00  0.00    +0.000 N 
ATOM     18  C   UNL     1      45.566   4.677   9.106  0.00  0.00    +0.000 A 
ATOM     19  O   UNL     1      46.138   5.748   8.968  0.00  0.00    +0.000 OA
ATOM     20  C   UNL     1      44.684   4.311  10.203  0.00  0.00    +0.000 A 
ATOM     21  H   UNL     1      46.379   3.876   7.422  0.00  0.00    +0.000 HD
ENDBRANCH   9  11
ENDBRANCH   1   8
BRANCH   4  22
ATOM     22  C   UNL     1      48.585   4.467  15.984  0.00  0.00    +0.000 C 
BRANCH  22  23
ATOM     23  N   UNL     1      48.636   5.261  17.188  0.00  0.00    +0.000 N 
ATOM     24  C   UNL     1      47.670   5.171  18.170  0.00  0.00    +0.000 C 
ATOM     25  O   UNL     1      46.686   4.447  18.078  0.00  0.00    +0.000 OA
ATOM     26  H   UNL     1      49.512   5.728  17.396  0.00  0.00    +0.000 HD
BRANCH  24  27
ATOM     27  C   UNL     1      47.990   6.029  19.383  0.00  0.00    +0.000 C 
ATOM     28  C   UNL     1      47.542   7.470  19.283  0.00  0.00    +0.000 C 
ATOM     29  C   UNL     1      48.801   8.237  18.951  0.00  0.00    +0.000 C 
ATOM     30  O   UNL     1      49.903   7.476  19.445  0.00  0.00    +0.000 OA
ATOM     31  C   UNL     1      49.490   6.117  19.614  0.00  0.00    +0.000 C 
ENDBRANCH  24  27
ENDBRANCH  22  23
ENDBRANCH   4  22
TORSDOF 5
ENDMDL
MODEL 8
REMARK VINA RESULT:    -5.560      2.899      5.387
REMARK INTER + INTRA:          -8.567
REMARK INTER:                  -6.990
REMARK INTRA:                  -1.577
REMARK UNBOUND:                -1.381
REMARK  Name = 
REMARK  6 active torsions:
REMARK  status: ('A' for Active; 'I' for Inactive)
REMARK    1  A    between atoms: C_1  and  N_2
REMARK    2  A    between atoms: N_2  and  C_15
REMARK    3  A    between atoms: C_3  and  C_5
REMARK    4  A    between atoms: C_18  and  C_19
REMARK    5  A    between atoms: C_19  and  N_20
REMARK    6  A    between atoms: C_21  and  C_23
REMARK                            x       y       z     vdW  Elec       q    Type
REMARK                         _______ _______ _______ _____ _____    ______ ____
ROOT
ATOM      1  C   UNL     1      50.996   4.558  18.990  0.00  0.00    +0.000 A 
ATOM      2  C   UNL     1      51.122   3.749  17.863  0.00  0.00    +0.000 A 
ATOM      3  C   UNL     1      49.975   3.288  17.213  0.00  0.00    +0.000 A 
ATOM      4  C   UNL     1      48.697   3.653  17.668  0.00  0.00    +0.000 A 
ATOM      5  C   UNL     1      48.584   4.419  18.838  0.00  0.00    +0.000 A 
ATOM      6  C   UNL     1      49.730   4.847  19.515  0.00  0.00    +0.000 A 
ENDROOT
BRANCH   1   8
ATOM      7  C   UNL     1      52.986   4.299  20.345  0.00  0.00    +0.000 C 
ATOM      8  N   UNL     1      52.129   5.180  19.554  0.00  0.00    +0.000 N 
ATOM      9  C   UNL     1      52.547   6.504  19.287  0.00  0.00    +0.000 C 
ATOM     10  O   UNL     1      53.565   6.948  19.818  0.00  0.00    +0.000 OA
BRANCH   9  11
ATOM     11  C   UNL     1      51.745   7.392  18.402  0.00  0.00    +0.000 A 
ATOM     12  C   UNL     1      50.811   8.320  18.830  0.00  0.00    +0.000 A 
ATOM     13  S   UNL     1      50.024   9.173  17.585  0.00  0.00    +0.000 S 
ATOM     14  C   UNL     1      51.048   8.490  16.426  0.00  0.00    +0.000 A 
ATOM     15  N   UNL     1      50.974   8.900  15.134  0.00  0.00    +0.000 NA
ATOM     16  C   UNL     1      51.861   8.358  14.360  0.00  0.00    +0.000 A 
ATOM     17  N   UNL     1      52.775   7.425  14.757  0.00  0.00    +0.000 N 
ATOM     18  C   UNL     1      52.797   6.877  16.027  0.00  0.00    +0.000 A 
ATOM     19  O   UNL     1      53.482   5.891  16.259  0.00  0.00    +0.000 OA
ATOM     20  C   UNL     1      51.900   7.537  16.964  0.00  0.00    +0.000 A 
ATOM     21  H   UNL     1      53.399   7.002  14.088  0.00  0.00    +0.000 HD
ENDBRANCH   9  11
ENDBRANCH   1   8
BRANCH   4  22
ATOM     22  C   UNL     1      47.462   3.183  16.942  0.00  0.00    +0.000 C 
BRANCH  22  23
ATOM     23  N   UNL     1      46.964   4.237  16.093  0.00  0.00    +0.000 N 
ATOM     24  C   UNL     1      46.948   4.128  14.717  0.00  0.00    +0.000 C 
ATOM     25  O   UNL     1      47.387   3.154  14.117  0.00  0.00    +0.000 OA
ATOM     26  H   UNL     1      46.425   4.973  16.537  0.00  0.00    +0.000 HD
BRANCH  24  27
ATOM     27  C   UNL     1      46.289   5.322  14.045  0.00  0.00    +0.000 C 
ATOM     28  C   UNL     1      45.021   5.006  13.282  0.00  0.00    +0.000 C 
ATOM     29  C   UNL     1      45.448   4.978  11.833  0.00  0.00    +0.000 C 
ATOM     30  O   UNL     1      46.606   5.804  11.716  0.00  0.00    +0.000 OA
ATOM     31  C   UNL     1      47.207   5.945  13.007  0.00  0.00    +0.000 C 
ENDBRANCH  24  27
ENDBRANCH  22  23
ENDBRANCH   4  22
TORSDOF 5
ENDMDL
MODEL 9
REMARK VINA RESULT:    -5.362      3.849      6.068
REMARK INTER + INTRA:          -8.311
REMARK INTER:                  -6.925
REMARK INTRA:                  -1.386
REMARK UNBOUND:                -1.381
REMARK  Name = 
REMARK  6 active torsions:
REMARK  status: ('A' for Active; 'I' for Inactive)
REMARK    1  A    between atoms: C_1  and  N_2
REMARK    2  A    between atoms: N_2  and  C_15
REMARK    3  A    between atoms: C_3  and  C_5
REMARK    4  A    between atoms: C_18  and  C_19
REMARK    5  A    between atoms: C_19  and  N_20
REMARK    6  A    between atoms: C_21  and  C_23
REMARK                            x       y       z     vdW  Elec       q    Type
REMARK                         _______ _______ _______ _____ _____    ______ ____
ROOT
ATOM      1  C   UNL     1      50.432   8.882  12.035  0.00  0.00    +0.000 A 
ATOM      2  C   UNL     1      49.813   7.753  11.501  0.00  0.00    +0.000 A 
ATOM      3  C   UNL     1      49.114   6.886  12.343  0.00  0.00    +0.000 A 
ATOM      4  C   UNL     1      49.006   7.154  13.718  0.00  0.00    +0.000 A 
ATOM      5  C   UNL     1      49.684   8.261  14.251  0.00  0.00    +0.000 A 
ATOM      6  C   UNL     1      50.419   9.107  13.416  0.00  0.00    +0.000 A 
ENDROOT
BRANCH   1   8
ATOM      7  C   UNL     1      50.046  10.877  10.717  0.00  0.00    +0.000 C 
ATOM      8  N   UNL     1      50.987   9.861  11.185  0.00  0.00    +0.000 N 
ATOM      9  C   UNL     1      52.364  10.000  10.897  0.00  0.00    +0.000 C 
ATOM     10  O   UNL     1      52.751  10.903  10.154  0.00  0.00    +0.000 OA
BRANCH   9  11
ATOM     11  C   UNL     1      53.358   9.037  11.445  0.00  0.00    +0.000 A 
ATOM     12  C   UNL     1      54.062   9.195  12.627  0.00  0.00    +0.000 A 
ATOM     13  S   UNL     1      55.155   7.942  12.986  0.00  0.00    +0.000 S 
ATOM     14  C   UNL     1      54.584   7.028  11.682  0.00  0.00    +0.000 A 
ATOM     15  N   UNL     1      55.040   5.764  11.493  0.00  0.00    +0.000 NA
ATOM     16  C   UNL     1      54.471   5.142  10.509  0.00  0.00    +0.000 A 
ATOM     17  N   UNL     1      53.526   5.686   9.687  0.00  0.00    +0.000 N 
ATOM     18  C   UNL     1      53.135   7.011   9.754  0.00  0.00    +0.000 A 
ATOM     19  O   UNL     1      52.462   7.500   8.858  0.00  0.00    +0.000 OA
ATOM     20  C   UNL     1      53.656   7.716  10.915  0.00  0.00    +0.000 A 
ATOM     21  H   UNL     1      53.168   5.164   8.903  0.00  0.00    +0.000 HD
ENDBRANCH   9  11
ENDBRANCH   1   8
BRANCH   4  22
ATOM     22  C   UNL     1      48.220   6.234  14.618  0.00  0.00    +0.000 C 
BRANCH  22  23
ATOM     23  N   UNL     1      46.962   5.902  13.997  0.00  0.00    +0.000 N 
ATOM     24  C   UNL     1      46.545   4.597  13.829  0.00  0.00    +0.000 C 
ATOM     25  O   UNL     1      47.223   3.630  14.155  0.00  0.00    +0.000 OA
ATOM     26  H   UNL     1      46.291   6.655  13.882  0.00  0.00    +0.000 HD
BRANCH  24  27
ATOM     27  C   UNL     1      45.146   4.502  13.242  0.00  0.00    +0.000 C 
ATOM     28  C   UNL     1      45.045   3.718  11.952  0.00  0.00    +0.000 C 
ATOM     29  C   UNL     1      44.956   4.771  10.873  0.00  0.00    +0.000 C 
ATOM     30  O   UNL     1      44.411   5.946  11.473  0.00  0.00    +0.000 OA
ATOM     31  C   UNL     1      44.604   5.877  12.888  0.00  0.00    +0.000 C 
ENDBRANCH  24  27
ENDBRANCH  22  23
ENDBRANCH   4  22
TORSDOF 5
ENDMDL
