MODEL 1
REMARK VINA RESULT:    -7.892      0.000      0.000
REMARK INTER + INTRA:         -10.954
REMARK INTER:                 -10.199
REMARK INTRA:                  -0.755
REMARK UNBOUND:                -0.755
REMARK  Name = 
REMARK  5 active torsions:
REMARK  status: ('A' for Active; 'I' for Inactive)
REMARK    1  A    between atoms: C_2  and  C_17
REMARK    2  A    between atoms: N_3  and  C_4
REMARK    3  A    between atoms: C_4  and  C_5
REMARK    4  A    between atoms: C_8  and  C_9
REMARK    5  A    between atoms: C_9  and  N_10
REMARK                            x       y       z     vdW  Elec       q    Type
REMARK                         _______ _______ _______ _____ _____    ______ ____
ROOT
ATOM      1  O   UNL     1      48.151   7.129  12.334  0.00  0.00    +0.000 OA
ATOM      2  C   UNL     1      47.495   6.724  13.293  0.00  0.00    +0.000 C 
ATOM      3  N   UNL     1      46.126   6.624  13.217  0.00  0.00    +0.000 N 
ATOM      4  H   UNL     1      45.588   6.207  13.971  0.00  0.00    +0.000 HD
ENDROOT
BRANCH   2   5
ATOM      5  C   UNL     1      48.150   6.386  14.565  0.00  0.00    +0.000 A 
ATOM      6  C   UNL     1      49.138   7.231  15.056  0.00  0.00    +0.000 A 
ATOM      7  S   UNL     1      49.741   6.778  16.583  0.00  0.00    +0.000 S 
ATOM      8  C   UNL     1      48.708   5.430  16.646  0.00  0.00    +0.000 A 
ATOM      9  N   UNL     1      48.685   4.625  17.741  0.00  0.00    +0.000 NA
ATOM     10  C   UNL     1      47.876   3.623  17.651  0.00  0.00    +0.000 A 
ATOM     11  N   UNL     1      47.103   3.343  16.554  0.00  0.00    +0.000 N 
ATOM     12  C   UNL     1      47.085   4.135  15.428  0.00  0.00    +0.000 A 
ATOM     13  O   UNL     1      46.381   3.854  14.463  0.00  0.00    +0.000 OA
ATOM     14  C   UNL     1      47.951   5.297  15.493  0.00  0.00    +0.000 A 
ATOM     15  H   UNL     1      46.510   2.527  16.537  0.00  0.00    +0.000 HD
ENDBRANCH   2   5
BRANCH   3  16
ATOM     16  C   UNL     1      45.445   7.063  12.021  0.00  0.00    +0.000 C 
BRANCH  16  17
ATOM     17  C   UNL     1      45.278   5.982  10.997  0.00  0.00    +0.000 A 
ATOM     18  C   UNL     1      44.335   4.962  11.143  0.00  0.00    +0.000 A 
ATOM     19  C   UNL     1      44.165   4.019  10.127  0.00  0.00    +0.000 A 
ATOM     20  C   UNL     1      44.964   4.103   8.988  0.00  0.00    +0.000 A 
ATOM     21  N   UNL     1      45.907   5.067   8.840  0.00  0.00    +0.000 NA
ATOM     22  C   UNL     1      46.040   5.975   9.835  0.00  0.00    +0.000 A 
BRANCH  20  23
ATOM     23  C   UNL     1      44.830   3.100   7.870  0.00  0.00    +0.000 C 
BRANCH  23  24
ATOM     24  N   UNL     1      46.115   2.626   7.386  0.00  0.00    +0.000 N 
ATOM     25  C   UNL     1      46.824   3.143   6.332  0.00  0.00    +0.000 A 
ATOM     26  C   UNL     1      47.867   2.268   6.144  0.00  0.00    +0.000 A 
ATOM     27  N   UNL     1      47.817   1.246   7.056  0.00  0.00    +0.000 NA
ATOM     28  C   UNL     1      46.751   1.485   7.787  0.00  0.00    +0.000 A 
ENDBRANCH  23  24
ENDBRANCH  20  23
ENDBRANCH  16  17
ENDBRANCH   3  16
TORSDOF 5
ENDMDL
MODEL 2
REMARK VINA RESULT:    -7.708      1.555      2.118
REMARK INTER + INTRA:         -10.716
REMARK INTER:                 -10.072
REMARK INTRA:                  -0.644
REMARK UNBOUND:                -0.755
REMARK  Name = 
REMARK  5 active torsions:
REMARK  status: ('A' for Active; 'I' for Inactive)
REMARK    1  A    between atoms: C_2  and  C_17
REMARK    2  A    between atoms: N_3  and  C_4
REMARK    3  A    between atoms: C_4  and  C_5
REMARK    4  A    between atoms: C_8  and  C_9
REMARK    5  A    between atoms: C_9  and  N_10
REMARK                            x       y       z     vdW  Elec       q    Type
REMARK                         _______ _______ _______ _____ _____    ______ ____
ROOT
ATOM      1  O   UNL     1      46.524   3.585  13.890  0.00  0.00    +0.000 OA
ATOM      2  C   UNL     1      46.444   4.807  14.009  0.00  0.00    +0.000 C 
ATOM      3  N   UNL     1      45.294   5.474  13.658  0.00  0.00    +0.000 N 
ATOM      4  H   UNL     1      45.190   6.469  13.837  0.00  0.00    +0.000 HD
ENDROOT
BRANCH   2   5
ATOM      5  C   UNL     1      47.593   5.594  14.479  0.00  0.00    +0.000 A 
ATOM      6  C   UNL     1      48.189   6.498  13.606  0.00  0.00    +0.000 A 
ATOM      7  S   UNL     1      49.440   7.416  14.308  0.00  0.00    +0.000 S 
ATOM      8  C   UNL     1      49.239   6.637  15.805  0.00  0.00    +0.000 A 
ATOM      9  N   UNL     1      49.985   7.002  16.881  0.00  0.00    +0.000 NA
ATOM     10  C   UNL     1      49.752   6.316  17.950  0.00  0.00    +0.000 A 
ATOM     11  N   UNL     1      48.854   5.284  18.031  0.00  0.00    +0.000 N 
ATOM     12  C   UNL     1      48.069   4.888  16.973  0.00  0.00    +0.000 A 
ATOM     13  O   UNL     1      47.274   3.959  17.081  0.00  0.00    +0.000 OA
ATOM     14  C   UNL     1      48.266   5.653  15.756  0.00  0.00    +0.000 A 
ATOM     15  H   UNL     1      48.738   4.770  18.892  0.00  0.00    +0.000 HD
ENDBRANCH   2   5
BRANCH   3  16
ATOM     16  C   UNL     1      44.193   4.741  13.081  0.00  0.00    +0.000 C 
BRANCH  16  17
ATOM     17  C   UNL     1      44.380   4.422  11.629  0.00  0.00    +0.000 A 
ATOM     18  C   UNL     1      45.123   5.245  10.780  0.00  0.00    +0.000 A 
ATOM     19  C   UNL     1      45.331   4.868   9.451  0.00  0.00    +0.000 A 
ATOM     20  C   UNL     1      44.767   3.680   8.990  0.00  0.00    +0.000 A 
ATOM     21  N   UNL     1      44.015   2.883   9.790  0.00  0.00    +0.000 NA
ATOM     22  C   UNL     1      43.842   3.266  11.077  0.00  0.00    +0.000 A 
BRANCH  20  23
ATOM     23  C   UNL     1      44.950   3.237   7.560  0.00  0.00    +0.000 C 
BRANCH  23  24
ATOM     24  N   UNL     1      46.260   2.658   7.317  0.00  0.00    +0.000 N 
ATOM     25  C   UNL     1      47.274   3.226   6.589  0.00  0.00    +0.000 A 
ATOM     26  C   UNL     1      48.231   2.244   6.489  0.00  0.00    +0.000 A 
ATOM     27  N   UNL     1      47.833   1.106   7.141  0.00  0.00    +0.000 NA
ATOM     28  C   UNL     1      46.642   1.382   7.625  0.00  0.00    +0.000 A 
ENDBRANCH  23  24
ENDBRANCH  20  23
ENDBRANCH  16  17
ENDBRANCH   3  16
TORSDOF 5
ENDMDL
MODEL 3
REMARK VINA RESULT:    -7.680      1.696      3.101
REMARK INTER + INTRA:         -10.679
REMARK INTER:                  -9.971
REMARK INTRA:                  -0.708
REMARK UNBOUND:                -0.755
REMARK  Name = 
REMARK  5 active torsions:
REMARK  status: ('A' for Active; 'I' for Inactive)
REMARK    1  A    between atoms: C_2  and  C_17
REMARK    2  A    between atoms: N_3  and  C_4
REMARK    3  A    between atoms: C_4  and  C_5
REMARK    4  A    between atoms: C_8  and  C_9
REMARK    5  A    between atoms: C_9  and  N_10
REMARK                            x       y       z     vdW  Elec       q    Type
REMARK                         _______ _______ _______ _____ _____    ______ ____
ROOT
ATOM      1  O   UNL     1      46.970   3.679  14.495  0.00  0.00    +0.000 OA
ATOM      2  C   UNL     1      46.873   4.890  14.301  0.00  0.00    +0.000 C 
ATOM      3  N   UNL     1      45.761   5.416  13.687  0.00  0.00    +0.000 N 
ATOM      4  H   UNL     1      45.634   6.421  13.605  0.00  0.00    +0.000 HD
ENDROOT
BRANCH   2   5
ATOM      5  C   UNL     1      47.964   5.803  14.672  0.00  0.00    +0.000 A 
ATOM      6  C   UNL     1      48.453   5.770  15.973  0.00  0.00    +0.000 A 
ATOM      7  S   UNL     1      49.780   6.803  16.240  0.00  0.00    +0.000 S 
ATOM      8  C   UNL     1      49.750   7.340  14.628  0.00  0.00    +0.000 A 
ATOM      9  N   UNL     1      50.682   8.219  14.173  0.00  0.00    +0.000 NA
ATOM     10  C   UNL     1      50.531   8.566  12.939  0.00  0.00    +0.000 A 
ATOM     11  N   UNL     1      49.520   8.127  12.125  0.00  0.00    +0.000 N 
ATOM     12  C   UNL     1      48.562   7.229  12.538  0.00  0.00    +0.000 A 
ATOM     13  O   UNL     1      47.670   6.856  11.782  0.00  0.00    +0.000 OA
ATOM     14  C   UNL     1      48.708   6.779  13.909  0.00  0.00    +0.000 A 
ATOM     15  H   UNL     1      49.444   8.458  11.175  0.00  0.00    +0.000 HD
ENDBRANCH   2   5
BRANCH   3  16
ATOM     16  C   UNL     1      44.727   4.531  13.204  0.00  0.00    +0.000 C 
BRANCH  16  17
ATOM     17  C   UNL     1      44.762   4.323  11.721  0.00  0.00    +0.000 A 
ATOM     18  C   UNL     1      45.345   5.251  10.855  0.00  0.00    +0.000 A 
ATOM     19  C   UNL     1      45.418   4.977   9.488  0.00  0.00    +0.000 A 
ATOM     20  C   UNL     1      44.882   3.783   9.008  0.00  0.00    +0.000 A 
ATOM     21  N   UNL     1      44.284   2.883   9.828  0.00  0.00    +0.000 NA
ATOM     22  C   UNL     1      44.239   3.168  11.151  0.00  0.00    +0.000 A 
BRANCH  20  23
ATOM     23  C   UNL     1      44.923   3.449   7.538  0.00  0.00    +0.000 C 
BRANCH  23  24
ATOM     24  N   UNL     1      46.178   2.834   7.139  0.00  0.00    +0.000 N 
ATOM     25  C   UNL     1      46.912   3.144   6.023  0.00  0.00    +0.000 A 
ATOM     26  C   UNL     1      47.902   2.192   5.976  0.00  0.00    +0.000 A 
ATOM     27  N   UNL     1      47.797   1.325   7.032  0.00  0.00    +0.000 NA
ATOM     28  C   UNL     1      46.749   1.732   7.712  0.00  0.00    +0.000 A 
ENDBRANCH  23  24
ENDBRANCH  20  23
ENDBRANCH  16  17
ENDBRANCH   3  16
TORSDOF 5
ENDMDL
MODEL 4
REMARK VINA RESULT:    -7.451      1.730      2.399
REMARK INTER + INTRA:         -10.383
REMARK INTER:                  -9.906
REMARK INTRA:                  -0.477
REMARK UNBOUND:                -0.755
REMARK  Name = 
REMARK  5 active torsions:
REMARK  status: ('A' for Active; 'I' for Inactive)
REMARK    1  A    between atoms: C_2  and  C_17
REMARK    2  A    between atoms: N_3  and  C_4
REMARK    3  A    between atoms: C_4  and  C_5
REMARK    4  A    between atoms: C_8  and  C_9
REMARK    5  A    between atoms: C_9  and  N_10
REMARK                            x       y       z     vdW  Elec       q    Type
REMARK                         _______ _______ _______ _____ _____    ______ ____
ROOT
ATOM      1  O   UNL     1      48.312   6.034  13.692  0.00  0.00    +0.000 OA
ATOM      2  C   UNL     1      47.448   5.485  14.374  0.00  0.00    +0.000 C 
ATOM      3  N   UNL     1      46.129   5.499  13.984  0.00  0.00    +0.000 N 
ATOM      4  H   UNL     1      45.426   4.972  14.494  0.00  0.00    +0.000 HD
ENDROOT
BRANCH   2   5
ATOM      5  C   UNL     1      47.791   4.845  15.652  0.00  0.00    +0.000 A 
ATOM      6  C   UNL     1      47.498   3.497  15.826  0.00  0.00    +0.000 A 
ATOM      7  S   UNL     1      48.039   2.857  17.309  0.00  0.00    +0.000 S 
ATOM      8  C   UNL     1      48.680   4.359  17.780  0.00  0.00    +0.000 A 
ATOM      9  N   UNL     1      49.346   4.489  18.958  0.00  0.00    +0.000 NA
ATOM     10  C   UNL     1      49.760   5.686  19.208  0.00  0.00    +0.000 A 
ATOM     11  N   UNL     1      49.550   6.768  18.393  0.00  0.00    +0.000 N 
ATOM     12  C   UNL     1      48.893   6.682  17.187  0.00  0.00    +0.000 A 
ATOM     13  O   UNL     1      48.723   7.671  16.482  0.00  0.00    +0.000 OA
ATOM     14  C   UNL     1      48.439   5.349  16.841  0.00  0.00    +0.000 A 
ATOM     15  H   UNL     1      49.878   7.684  18.660  0.00  0.00    +0.000 HD
ENDBRANCH   2   5
BRANCH   3  16
ATOM     16  C   UNL     1      45.746   6.223  12.795  0.00  0.00    +0.000 C 
BRANCH  16  17
ATOM     17  C   UNL     1      45.508   5.340  11.607  0.00  0.00    +0.000 A 
ATOM     18  C   UNL     1      45.757   5.771  10.302  0.00  0.00    +0.000 A 
ATOM     19  C   UNL     1      45.591   4.888   9.233  0.00  0.00    +0.000 A 
ATOM     20  C   UNL     1      45.153   3.590   9.492  0.00  0.00    +0.000 A 
ATOM     21  N   UNL     1      44.876   3.161  10.748  0.00  0.00    +0.000 NA
ATOM     22  C   UNL     1      45.059   4.035  11.766  0.00  0.00    +0.000 A 
BRANCH  20  23
ATOM     23  C   UNL     1      44.944   2.604   8.370  0.00  0.00    +0.000 C 
BRANCH  23  24
ATOM     24  N   UNL     1      46.158   2.352   7.612  0.00  0.00    +0.000 N 
ATOM     25  C   UNL     1      46.638   3.113   6.578  0.00  0.00    +0.000 A 
ATOM     26  C   UNL     1      47.692   2.393   6.068  0.00  0.00    +0.000 A 
ATOM     27  N   UNL     1      47.870   1.228   6.768  0.00  0.00    +0.000 NA
ATOM     28  C   UNL     1      46.931   1.227   7.687  0.00  0.00    +0.000 A 
ENDBRANCH  23  24
ENDBRANCH  20  23
ENDBRANCH  16  17
ENDBRANCH   3  16
TORSDOF 5
ENDMDL
MODEL 5
REMARK VINA RESULT:    -7.168      1.170      1.464
REMARK INTER + INTRA:         -10.018
REMARK INTER:                  -9.392
REMARK INTRA:                  -0.626
REMARK UNBOUND:                -0.755
REMARK  Name = 
REMARK  5 active torsions:
REMARK  status: ('A' for Active; 'I' for Inactive)
REMARK    1  A    between atoms: C_2  and  C_17
REMARK    2  A    between atoms: N_3  and  C_4
REMARK    3  A    between atoms: C_4  and  C_5
REMARK    4  A    between atoms: C_8  and  C_9
REMARK    5  A    between atoms: C_9  and  N_10
REMARK                            x       y       z     vdW  Elec       q    Type
REMARK                         _______ _______ _______ _____ _____    ______ ____
ROOT
ATOM      1  O   UNL     1      49.002   6.693  13.199  0.00  0.00    +0.000 OA
ATOM      2  C   UNL     1      48.287   6.528  14.186  0.00  0.00    +0.000 C 
ATOM      3  N   UNL     1      46.923   6.678  14.100  0.00  0.00    +0.000 N 
ATOM      4  H   UNL     1      46.320   6.456  14.887  0.00  0.00    +0.000 HD
ENDROOT
BRANCH   2   5
ATOM      5  C   UNL     1      48.874   6.218  15.498  0.00  0.00    +0.000 A 
ATOM      6  C   UNL     1      49.977   6.947  15.928  0.00  0.00    +0.000 A 
ATOM      7  S   UNL     1      50.492   6.557  17.504  0.00  0.00    +0.000 S 
ATOM      8  C   UNL     1      49.264   5.394  17.671  0.00  0.00    +0.000 A 
ATOM      9  N   UNL     1      49.110   4.712  18.837  0.00  0.00    +0.000 NA
ATOM     10  C   UNL     1      48.157   3.841  18.825  0.00  0.00    +0.000 A 
ATOM     11  N   UNL     1      47.358   3.578  17.742  0.00  0.00    +0.000 N 
ATOM     12  C   UNL     1      47.469   4.250  16.547  0.00  0.00    +0.000 A 
ATOM     13  O   UNL     1      46.737   3.988  15.598  0.00  0.00    +0.000 OA
ATOM     14  C   UNL     1      48.503   5.267  16.521  0.00  0.00    +0.000 A 
ATOM     15  H   UNL     1      46.647   2.864  17.791  0.00  0.00    +0.000 HD
ENDBRANCH   2   5
BRANCH   3  16
ATOM     16  C   UNL     1      46.330   7.099  12.852  0.00  0.00    +0.000 C 
BRANCH  16  17
ATOM     17  C   UNL     1      45.890   5.959  11.984  0.00  0.00    +0.000 A 
ATOM     18  C   UNL     1      45.765   4.658  12.476  0.00  0.00    +0.000 A 
ATOM     19  C   UNL     1      45.280   3.644  11.648  0.00  0.00    +0.000 A 
ATOM     20  C   UNL     1      44.950   3.949  10.329  0.00  0.00    +0.000 A 
ATOM     21  N   UNL     1      45.094   5.200   9.822  0.00  0.00    +0.000 NA
ATOM     22  C   UNL     1      45.553   6.166  10.652  0.00  0.00    +0.000 A 
BRANCH  20  23
ATOM     23  C   UNL     1      44.437   2.886   9.391  0.00  0.00    +0.000 C 
BRANCH  23  24
ATOM     24  N   UNL     1      45.421   2.496   8.395  0.00  0.00    +0.000 N 
ATOM     25  C   UNL     1      46.108   1.310   8.358  0.00  0.00    +0.000 A 
ATOM     26  C   UNL     1      47.039   1.472   7.360  0.00  0.00    +0.000 A 
ATOM     27  N   UNL     1      46.930   2.712   6.787  0.00  0.00    +0.000 NA
ATOM     28  C   UNL     1      45.953   3.308   7.432  0.00  0.00    +0.000 A 
ENDBRANCH  23  24
ENDBRANCH  20  23
ENDBRANCH  16  17
ENDBRANCH   3  16
TORSDOF 5
ENDMDL
MODEL 6
REMARK VINA RESULT:    -6.801      2.701      3.438
REMARK INTER + INTRA:          -9.544
REMARK INTER:                  -9.112
REMARK INTRA:                  -0.432
REMARK UNBOUND:                -0.755
REMARK  Name = 
REMARK  5 active torsions:
REMARK  status: ('A' for Active; 'I' for Inactive)
REMARK    1  A    between atoms: C_2  and  C_17
REMARK    2  A    between atoms: N_3  and  C_4
REMARK    3  A    between atoms: C_4  and  C_5
REMARK    4  A    between atoms: C_8  and  C_9
REMARK    5  A    between atoms: C_9  and  N_10
REMARK                            x       y       z     vdW  Elec       q    Type
REMARK                         _______ _______ _______ _____ _____    ______ ____
ROOT
ATOM      1  O   UNL     1      45.197   8.922  12.784  0.00  0.00    +0.000 OA
ATOM      2  C   UNL     1      46.246   8.286  12.875  0.00  0.00    +0.000 C 
ATOM      3  N   UNL     1      46.231   6.914  12.969  0.00  0.00    +0.000 N 
ATOM      4  H   UNL     1      47.095   6.378  12.954  0.00  0.00    +0.000 HD
ENDROOT
BRANCH   2   5
ATOM      5  C   UNL     1      47.543   8.976  12.937  0.00  0.00    +0.000 A 
ATOM      6  C   UNL     1      47.649  10.254  12.401  0.00  0.00    +0.000 A 
ATOM      7  S   UNL     1      49.174  10.977  12.630  0.00  0.00    +0.000 S 
ATOM      8  C   UNL     1      49.755   9.608  13.452  0.00  0.00    +0.000 A 
ATOM      9  N   UNL     1      51.010   9.593  13.973  0.00  0.00    +0.000 NA
ATOM     10  C   UNL     1      51.336   8.485  14.550  0.00  0.00    +0.000 A 
ATOM     11  N   UNL     1      50.525   7.383  14.633  0.00  0.00    +0.000 N 
ATOM     12  C   UNL     1      49.245   7.356  14.131  0.00  0.00    +0.000 A 
ATOM     13  O   UNL     1      48.546   6.351  14.223  0.00  0.00    +0.000 OA
ATOM     14  C   UNL     1      48.815   8.591  13.504  0.00  0.00    +0.000 A 
ATOM     15  H   UNL     1      50.852   6.537  15.075  0.00  0.00    +0.000 HD
ENDBRANCH   2   5
BRANCH   3  16
ATOM     16  C   UNL     1      44.968   6.218  13.030  0.00  0.00    +0.000 C 
BRANCH  16  17
ATOM     17  C   UNL     1      44.818   5.157  11.983  0.00  0.00    +0.000 A 
ATOM     18  C   UNL     1      44.260   5.426  10.731  0.00  0.00    +0.000 A 
ATOM     19  C   UNL     1      44.208   4.422   9.761  0.00  0.00    +0.000 A 
ATOM     20  C   UNL     1      44.699   3.156  10.074  0.00  0.00    +0.000 A 
ATOM     21  N   UNL     1      45.217   2.866  11.294  0.00  0.00    +0.000 NA
ATOM     22  C   UNL     1      45.266   3.862  12.209  0.00  0.00    +0.000 A 
BRANCH  20  23
ATOM     23  C   UNL     1      44.652   2.035   9.066  0.00  0.00    +0.000 C 
BRANCH  23  24
ATOM     24  N   UNL     1      45.865   1.948   8.269  0.00  0.00    +0.000 N 
ATOM     25  C   UNL     1      46.483   2.985   7.620  0.00  0.00    +0.000 A 
ATOM     26  C   UNL     1      47.468   2.394   6.866  0.00  0.00    +0.000 A 
ATOM     27  N   UNL     1      47.472   1.035   7.047  0.00  0.00    +0.000 NA
ATOM     28  C   UNL     1      46.495   0.795   7.892  0.00  0.00    +0.000 A 
ENDBRANCH  23  24
ENDBRANCH  20  23
ENDBRANCH  16  17
ENDBRANCH   3  16
TORSDOF 5
ENDMDL
MODEL 7
REMARK VINA RESULT:    -6.666      3.980      8.629
REMARK INTER + INTRA:          -9.369
REMARK INTER:                  -8.660
REMARK INTRA:                  -0.709
REMARK UNBOUND:                -0.755
REMARK  Name = 
REMARK  5 active torsions:
REMARK  status: ('A' for Active; 'I' for Inactive)
REMARK    1  A    between atoms: C_2  and  C_17
REMARK    2  A    between atoms: N_3  and  C_4
REMARK    3  A    between atoms: C_4  and  C_5
REMARK    4  A    between atoms: C_8  and  C_9
REMARK    5  A    between atoms: C_9  and  N_10
REMARK                            x       y       z     vdW  Elec       q    Type
REMARK                         _______ _______ _______ _____ _____    ______ ____
ROOT
ATOM      1  O   UNL     1      47.147   3.091  13.988  0.00  0.00    +0.000 OA
ATOM      2  C   UNL     1      46.858   4.183  14.476  0.00  0.00    +0.000 C 
ATOM      3  N   UNL     1      46.977   4.403  15.828  0.00  0.00    +0.000 N 
ATOM      4  H   UNL     1      46.827   5.327  16.224  0.00  0.00    +0.000 HD
ENDROOT
BRANCH   2   5
ATOM      5  C   UNL     1      46.328   5.267  13.636  0.00  0.00    +0.000 A 
ATOM      6  C   UNL     1      47.134   6.369  13.376  0.00  0.00    +0.000 A 
ATOM      7  S   UNL     1      46.438   7.500  12.310  0.00  0.00    +0.000 S 
ATOM      8  C   UNL     1      45.028   6.563  12.158  0.00  0.00    +0.000 A 
ATOM      9  N   UNL     1      44.025   6.951  11.326  0.00  0.00    +0.000 NA
ATOM     10  C   UNL     1      43.000   6.165  11.322  0.00  0.00    +0.000 A 
ATOM     11  N   UNL     1      42.883   5.037  12.091  0.00  0.00    +0.000 N 
ATOM     12  C   UNL     1      43.876   4.599  12.937  0.00  0.00    +0.000 A 
ATOM     13  O   UNL     1      43.737   3.583  13.611  0.00  0.00    +0.000 OA
ATOM     14  C   UNL     1      45.066   5.428  12.951  0.00  0.00    +0.000 A 
ATOM     15  H   UNL     1      42.043   4.479  12.060  0.00  0.00    +0.000 HD
ENDBRANCH   2   5
BRANCH   3  16
ATOM     16  C   UNL     1      47.381   3.321  16.693  0.00  0.00    +0.000 C 
BRANCH  16  17
ATOM     17  C   UNL     1      48.759   3.489  17.259  0.00  0.00    +0.000 A 
ATOM     18  C   UNL     1      49.758   2.531  17.074  0.00  0.00    +0.000 A 
ATOM     19  C   UNL     1      51.047   2.767  17.558  0.00  0.00    +0.000 A 
ATOM     20  C   UNL     1      51.305   3.954  18.241  0.00  0.00    +0.000 A 
ATOM     21  N   UNL     1      50.341   4.883  18.459  0.00  0.00    +0.000 NA
ATOM     22  C   UNL     1      49.104   4.634  17.967  0.00  0.00    +0.000 A 
BRANCH  20  23
ATOM     23  C   UNL     1      52.676   4.248  18.796  0.00  0.00    +0.000 C 
BRANCH  23  24
ATOM     24  N   UNL     1      53.657   4.504  17.755  0.00  0.00    +0.000 N 
ATOM     25  C   UNL     1      54.810   3.795  17.537  0.00  0.00    +0.000 A 
ATOM     26  C   UNL     1      55.489   4.508  16.578  0.00  0.00    +0.000 A 
ATOM     27  N   UNL     1      54.779   5.619  16.202  0.00  0.00    +0.000 NA
ATOM     28  C   UNL     1      53.684   5.594  16.930  0.00  0.00    +0.000 A 
ENDBRANCH  23  24
ENDBRANCH  20  23
ENDBRANCH  16  17
ENDBRANCH   3  16
TORSDOF 5
ENDMDL
MODEL 8
REMARK VINA RESULT:    -6.637      3.692      7.765
REMARK INTER + INTRA:          -9.332
REMARK INTER:                  -8.666
REMARK INTRA:                  -0.666
REMARK UNBOUND:                -0.755
REMARK  Name = 
REMARK  5 active torsions:
REMARK  status: ('A' for Active; 'I' for Inactive)
REMARK    1  A    between atoms: C_2  and  C_17
REMARK    2  A    between atoms: N_3  and  C_4
REMARK    3  A    between atoms: C_4  and  C_5
REMARK    4  A    between atoms: C_8  and  C_9
REMARK    5  A    between atoms: C_9  and  N_10
REMARK                            x       y       z     vdW  Elec       q    Type
REMARK                         _______ _______ _______ _____ _____    ______ ____
ROOT
ATOM      1  O   UNL     1      48.081   6.912  11.823  0.00  0.00    +0.000 OA
ATOM      2  C   UNL     1      47.157   6.973  12.633  0.00  0.00    +0.000 C 
ATOM      3  N   UNL     1      47.359   7.483  13.894  0.00  0.00    +0.000 N 
ATOM      4  H   UNL     1      46.582   7.620  14.535  0.00  0.00    +0.000 HD
ENDROOT
BRANCH   2   5
ATOM      5  C   UNL     1      45.823   6.455  12.295  0.00  0.00    +0.000 A 
ATOM      6  C   UNL     1      44.880   7.327  11.764  0.00  0.00    +0.000 A 
ATOM      7  S   UNL     1      43.415   6.578  11.324  0.00  0.00    +0.000 S 
ATOM      8  C   UNL     1      43.983   5.058  11.830  0.00  0.00    +0.000 A 
ATOM      9  N   UNL     1      43.216   3.946  11.676  0.00  0.00    +0.000 NA
ATOM     10  C   UNL     1      43.753   2.861  12.124  0.00  0.00    +0.000 A 
ATOM     11  N   UNL     1      44.980   2.794  12.731  0.00  0.00    +0.000 N 
ATOM     12  C   UNL     1      45.795   3.890  12.898  0.00  0.00    +0.000 A 
ATOM     13  O   UNL     1      46.889   3.793  13.446  0.00  0.00    +0.000 OA
ATOM     14  C   UNL     1      45.253   5.130  12.377  0.00  0.00    +0.000 A 
ATOM     15  H   UNL     1      45.331   1.916  13.084  0.00  0.00    +0.000 HD
ENDBRANCH   2   5
BRANCH   3  16
ATOM     16  C   UNL     1      48.686   7.890  14.293  0.00  0.00    +0.000 C 
BRANCH  16  17
ATOM     17  C   UNL     1      49.293   7.005  15.340  0.00  0.00    +0.000 A 
ATOM     18  C   UNL     1      50.649   7.067  15.667  0.00  0.00    +0.000 A 
ATOM     19  C   UNL     1      51.154   6.275  16.700  0.00  0.00    +0.000 A 
ATOM     20  C   UNL     1      50.290   5.414  17.374  0.00  0.00    +0.000 A 
ATOM     21  N   UNL     1      48.976   5.315  17.051  0.00  0.00    +0.000 NA
ATOM     22  C   UNL     1      48.512   6.105  16.054  0.00  0.00    +0.000 A 
BRANCH  20  23
ATOM     23  C   UNL     1      50.790   4.527  18.486  0.00  0.00    +0.000 C 
BRANCH  23  24
ATOM     24  N   UNL     1      51.098   3.181  18.033  0.00  0.00    +0.000 N 
ATOM     25  C   UNL     1      52.332   2.585  18.047  0.00  0.00    +0.000 A 
ATOM     26  C   UNL     1      52.162   1.403  17.365  0.00  0.00    +0.000 A 
ATOM     27  N   UNL     1      50.864   1.262  16.949  0.00  0.00    +0.000 NA
ATOM     28  C   UNL     1      50.248   2.348  17.360  0.00  0.00    +0.000 A 
ENDBRANCH  23  24
ENDBRANCH  20  23
ENDBRANCH  16  17
ENDBRANCH   3  16
TORSDOF 5
ENDMDL
MODEL 9
REMARK VINA RESULT:    -6.629      2.911      4.101
REMARK INTER + INTRA:          -9.321
REMARK INTER:                  -8.534
REMARK INTRA:                  -0.788
REMARK UNBOUND:                -0.755
REMARK  Name = 
REMARK  5 active torsions:
REMARK  status: ('A' for Active; 'I' for Inactive)
REMARK    1  A    between atoms: C_2  and  C_17
REMARK    2  A    between atoms: N_3  and  C_4
REMARK    3  A    between atoms: C_4  and  C_5
REMARK    4  A    between atoms: C_8  and  C_9
REMARK    5  A    between atoms: C_9  and  N_10
REMARK                            x       y       z     vdW  Elec       q    Type
REMARK                         _______ _______ _______ _____ _____    ______ ____
ROOT
ATOM      1  O   UNL     1      50.135   5.999  16.053  0.00  0.00    +0.000 OA
ATOM      2  C   UNL     1      48.981   6.189  16.435  0.00  0.00    +0.000 C 
ATOM      3  N   UNL     1      47.976   6.451  15.533  0.00  0.00    +0.000 N 
ATOM      4  H   UNL     1      47.007   6.519  15.832  0.00  0.00    +0.000 HD
ENDROOT
BRANCH   2   5
ATOM      5  C   UNL     1      48.651   6.193  17.867  0.00  0.00    +0.000 A 
ATOM      6  C   UNL     1      48.850   5.032  18.605  0.00  0.00    +0.000 A 
ATOM      7  S   UNL     1      48.525   5.203  20.267  0.00  0.00    +0.000 S 
ATOM      8  C   UNL     1      48.101   6.836  20.067  0.00  0.00    +0.000 A 
ATOM      9  N   UNL     1      47.763   7.601  21.139  0.00  0.00    +0.000 NA
ATOM     10  C   UNL     1      47.438   8.816  20.847  0.00  0.00    +0.000 A 
ATOM     11  N   UNL     1      47.400   9.327  19.576  0.00  0.00    +0.000 N 
ATOM     12  C   UNL     1      47.745   8.595  18.463  0.00  0.00    +0.000 A 
ATOM     13  O   UNL     1      47.700   9.085  17.339  0.00  0.00    +0.000 OA
ATOM     14  C   UNL     1      48.154   7.232  18.741  0.00  0.00    +0.000 A 
ATOM     15  H   UNL     1      47.111  10.280  19.414  0.00  0.00    +0.000 HD
ENDBRANCH   2   5
BRANCH   3  16
ATOM     16  C   UNL     1      48.293   6.571  14.129  0.00  0.00    +0.000 C 
BRANCH  16  17
ATOM     17  C   UNL     1      47.172   6.156  13.225  0.00  0.00    +0.000 A 
ATOM     18  C   UNL     1      46.974   6.741  11.973  0.00  0.00    +0.000 A 
ATOM     19  C   UNL     1      45.961   6.270  11.135  0.00  0.00    +0.000 A 
ATOM     20  C   UNL     1      45.146   5.230  11.580  0.00  0.00    +0.000 A 
ATOM     21  N   UNL     1      45.301   4.669  12.806  0.00  0.00    +0.000 NA
ATOM     22  C   UNL     1      46.300   5.137  13.590  0.00  0.00    +0.000 A 
BRANCH  20  23
ATOM     23  C   UNL     1      44.029   4.697  10.720  0.00  0.00    +0.000 C 
BRANCH  23  24
ATOM     24  N   UNL     1      44.500   3.770   9.704  0.00  0.00    +0.000 N 
ATOM     25  C   UNL     1      44.826   2.453   9.899  0.00  0.00    +0.000 A 
ATOM     26  C   UNL     1      45.380   2.046   8.709  0.00  0.00    +0.000 A 
ATOM     27  N   UNL     1      45.390   3.070   7.798  0.00  0.00    +0.000 NA
ATOM     28  C   UNL     1      44.858   4.096   8.426  0.00  0.00    +0.000 A 
ENDBRANCH  23  24
ENDBRANCH  20  23
ENDBRANCH  16  17
ENDBRANCH   3  16
TORSDOF 5
ENDMDL
