MODEL 1
REMARK VINA RESULT:    -7.004      0.000      0.000
REMARK INTER + INTRA:         -11.270
REMARK INTER:                 -10.279
REMARK INTRA:                  -0.991
REMARK UNBOUND:                -0.991
REMARK  Name = 
REMARK  9 active torsions:
REMARK  status: ('A' for Active; 'I' for Inactive)
REMARK    1  A    between atoms: C_1  and  O_2
REMARK    2  A    between atoms: O_2  and  C_3
REMARK    3  A    between atoms: C_10  and  C_11
REMARK    4  A    between atoms: N_13  and  C_14
REMARK    5  A    between atoms: C_14  and  C_15
REMARK    6  A    between atoms: C_18  and  C_19
REMARK    7  A    between atoms: C_19  and  N_20
REMARK    8  A    between atoms: N_20  and  C_21
REMARK    9  A    between atoms: C_21  and  C_22
REMARK                            x       y       z     vdW  Elec       q    Type
REMARK                         _______ _______ _______ _____ _____    ______ ____
ROOT
ATOM      1  C   UNL     1      46.508   6.798  12.904  0.00  0.00    +0.000 A 
ATOM      2  C   UNL     1      45.566   7.180  11.942  0.00  0.00    +0.000 A 
ATOM      3  C   UNL     1      44.568   6.294  11.533  0.00  0.00    +0.000 A 
ATOM      4  C   UNL     1      44.490   5.001  12.068  0.00  0.00    +0.000 A 
ATOM      5  C   UNL     1      45.405   4.632  13.060  0.00  0.00    +0.000 A 
ATOM      6  C   UNL     1      46.409   5.516  13.467  0.00  0.00    +0.000 A 
ENDROOT
BRANCH   1   7
ATOM      7  C   UNL     1      47.585   7.766  13.326  0.00  0.00    +0.000 C 
BRANCH   7  10
ATOM      8  C   UNL     1      48.864   7.236  15.371  0.00  0.00    +0.000 C 
ATOM      9  O   UNL     1      49.775   6.698  14.730  0.00  0.00    +0.000 OA
ATOM     10  N   UNL     1      47.776   7.773  14.754  0.00  0.00    +0.000 N 
ATOM     11  H   UNL     1      47.050   8.198  15.309  0.00  0.00    +0.000 HD
BRANCH   8  19
ATOM     12  C   UNL     1      48.926   4.861  17.850  0.00  0.00    +0.000 A 
ATOM     13  N   UNL     1      48.989   4.154  18.992  0.00  0.00    +0.000 NA
ATOM     14  C   UNL     1      49.055   4.823  20.139  0.00  0.00    +0.000 A 
ATOM     15  N   UNL     1      49.049   6.143  20.296  0.00  0.00    +0.000 NA
ATOM     16  C   UNL     1      48.986   6.815  19.133  0.00  0.00    +0.000 A 
ATOM     17  S   UNL     1      48.970   8.513  19.141  0.00  0.00    +0.000 S 
ATOM     18  C   UNL     1      48.907   8.571  17.444  0.00  0.00    +0.000 A 
ATOM     19  C   UNL     1      48.902   7.320  16.839  0.00  0.00    +0.000 A 
ATOM     20  C   UNL     1      48.932   6.268  17.856  0.00  0.00    +0.000 A 
BRANCH  12  22
ATOM     21  C   UNL     1      47.637   3.691  16.308  0.00  0.00    +0.000 C 
ATOM     22  O   UNL     1      48.937   4.152  16.668  0.00  0.00    +0.000 OA
ENDBRANCH  12  22
ENDBRANCH   8  19
ENDBRANCH   7  10
ENDBRANCH   1   7
BRANCH   4  23
ATOM     23  C   UNL     1      43.422   4.015  11.652  0.00  0.00    +0.000 C 
BRANCH  23  24
ATOM     24  N   UNL     1      43.980   2.721  11.243  0.00  0.00    +0.000 NA
ATOM     25  H   UNL     1      43.227   2.135  10.879  0.00  0.00    +0.000 HD
BRANCH  24  26
ATOM     26  C   UNL     1      45.016   2.902  10.235  0.00  0.00    +0.000 C 
BRANCH  26  27
ATOM     27  C   UNL     1      44.551   2.459   8.829  0.00  0.00    +0.000 C 
ATOM     28  C   UNL     1      45.211   1.177   8.290  0.00  0.00    +0.000 C 
ATOM     29  C   UNL     1      46.697   1.376   7.994  0.00  0.00    +0.000 C 
ATOM     30  N   UNL     1      46.909   2.472   7.042  0.00  0.00    +0.000 NA
ATOM     31  C   UNL     1      46.334   3.726   7.534  0.00  0.00    +0.000 C 
ATOM     32  C   UNL     1      44.835   3.596   7.831  0.00  0.00    +0.000 C 
ATOM     33  H   UNL     1      46.460   2.228   6.159  0.00  0.00    +0.000 HD
ENDBRANCH  26  27
ENDBRANCH  24  26
ENDBRANCH  23  24
ENDBRANCH   4  23
TORSDOF 8
ENDMDL
MODEL 2
REMARK VINA RESULT:    -6.884      3.270      4.872
REMARK INTER + INTRA:         -11.095
REMARK INTER:                  -9.859
REMARK INTRA:                  -1.236
REMARK UNBOUND:                -0.991
REMARK  Name = 
REMARK  9 active torsions:
REMARK  status: ('A' for Active; 'I' for Inactive)
REMARK    1  A    between atoms: C_1  and  O_2
REMARK    2  A    between atoms: O_2  and  C_3
REMARK    3  A    between atoms: C_10  and  C_11
REMARK    4  A    between atoms: N_13  and  C_14
REMARK    5  A    between atoms: C_14  and  C_15
REMARK    6  A    between atoms: C_18  and  C_19
REMARK    7  A    between atoms: C_19  and  N_20
REMARK    8  A    between atoms: N_20  and  C_21
REMARK    9  A    between atoms: C_21  and  C_22
REMARK                            x       y       z     vdW  Elec       q    Type
REMARK                         _______ _______ _______ _____ _____    ______ ____
ROOT
ATOM      1  C   UNL     1      47.543   4.295  16.034  0.00  0.00    +0.000 A 
ATOM      2  C   UNL     1      48.100   5.570  15.878  0.00  0.00    +0.000 A 
ATOM      3  C   UNL     1      47.954   6.268  14.678  0.00  0.00    +0.000 A 
ATOM      4  C   UNL     1      47.254   5.707  13.600  0.00  0.00    +0.000 A 
ATOM      5  C   UNL     1      46.661   4.451  13.770  0.00  0.00    +0.000 A 
ATOM      6  C   UNL     1      46.812   3.748  14.968  0.00  0.00    +0.000 A 
ENDROOT
BRANCH   1   7
ATOM      7  C   UNL     1      47.721   3.553  17.336  0.00  0.00    +0.000 C 
BRANCH   7  10
ATOM      8  C   UNL     1      49.866   2.387  16.974  0.00  0.00    +0.000 C 
ATOM      9  O   UNL     1      49.402   1.694  16.060  0.00  0.00    +0.000 OA
ATOM     10  N   UNL     1      49.108   3.305  17.631  0.00  0.00    +0.000 N 
ATOM     11  H   UNL     1      49.520   3.848  18.375  0.00  0.00    +0.000 HD
BRANCH   8  19
ATOM     12  C   UNL     1      52.343   4.674  17.625  0.00  0.00    +0.000 A 
ATOM     13  N   UNL     1      53.457   5.342  17.969  0.00  0.00    +0.000 NA
ATOM     14  C   UNL     1      54.516   4.637  18.356  0.00  0.00    +0.000 A 
ATOM     15  N   UNL     1      54.611   3.313  18.429  0.00  0.00    +0.000 NA
ATOM     16  C   UNL     1      53.478   2.681  18.078  0.00  0.00    +0.000 A 
ATOM     17  S   UNL     1      53.415   0.984  18.112  0.00  0.00    +0.000 S 
ATOM     18  C   UNL     1      51.793   0.982  17.603  0.00  0.00    +0.000 A 
ATOM     19  C   UNL     1      51.267   2.253  17.403  0.00  0.00    +0.000 A 
ATOM     20  C   UNL     1      52.285   3.269  17.672  0.00  0.00    +0.000 A 
BRANCH  12  22
ATOM     21  C   UNL     1      51.572   6.588  16.553  0.00  0.00    +0.000 C 
ATOM     22  O   UNL     1      51.232   5.424  17.302  0.00  0.00    +0.000 OA
ENDBRANCH  12  22
ENDBRANCH   8  19
ENDBRANCH   7  10
ENDBRANCH   1   7
BRANCH   4  23
ATOM     23  C   UNL     1      47.072   6.433  12.287  0.00  0.00    +0.000 C 
BRANCH  23  24
ATOM     24  N   UNL     1      45.699   6.344  11.780  0.00  0.00    +0.000 NA
ATOM     25  H   UNL     1      45.367   7.282  11.554  0.00  0.00    +0.000 HD
BRANCH  24  26
ATOM     26  C   UNL     1      45.637   5.486  10.605  0.00  0.00    +0.000 C 
BRANCH  26  27
ATOM     27  C   UNL     1      44.186   5.122  10.219  0.00  0.00    +0.000 C 
ATOM     28  C   UNL     1      43.310   4.594  11.370  0.00  0.00    +0.000 C 
ATOM     29  C   UNL     1      43.772   3.223  11.863  0.00  0.00    +0.000 C 
ATOM     30  N   UNL     1      43.789   2.241  10.772  0.00  0.00    +0.000 NA
ATOM     31  C   UNL     1      44.646   2.683   9.670  0.00  0.00    +0.000 C 
ATOM     32  C   UNL     1      44.220   4.048   9.116  0.00  0.00    +0.000 C 
ATOM     33  H   UNL     1      42.837   2.127  10.422  0.00  0.00    +0.000 HD
ENDBRANCH  26  27
ENDBRANCH  24  26
ENDBRANCH  23  24
ENDBRANCH   4  23
TORSDOF 8
ENDMDL
MODEL 3
REMARK VINA RESULT:    -6.883      4.707      9.242
REMARK INTER + INTRA:         -11.093
REMARK INTER:                 -10.037
REMARK INTRA:                  -1.056
REMARK UNBOUND:                -0.991
REMARK  Name = 
REMARK  9 active torsions:
REMARK  status: ('A' for Active; 'I' for Inactive)
REMARK    1  A    between atoms: C_1  and  O_2
REMARK    2  A    between atoms: O_2  and  C_3
REMARK    3  A    between atoms: C_10  and  C_11
REMARK    4  A    between atoms: N_13  and  C_14
REMARK    5  A    between atoms: C_14  and  C_15
REMARK    6  A    between atoms: C_18  and  C_19
REMARK    7  A    between atoms: C_19  and  N_20
REMARK    8  A    between atoms: N_20  and  C_21
REMARK    9  A    between atoms: C_21  and  C_22
REMARK                            x       y       z     vdW  Elec       q    Type
REMARK                         _______ _______ _______ _____ _____    ______ ____
ROOT
ATOM      1  C   UNL     1      48.838   3.436  17.296  0.00  0.00    +0.000 A 
ATOM      2  C   UNL     1      49.547   4.559  17.736  0.00  0.00    +0.000 A 
ATOM      3  C   UNL     1      50.917   4.481  17.991  0.00  0.00    +0.000 A 
ATOM      4  C   UNL     1      51.613   3.276  17.820  0.00  0.00    +0.000 A 
ATOM      5  C   UNL     1      50.914   2.163  17.339  0.00  0.00    +0.000 A 
ATOM      6  C   UNL     1      49.540   2.238  17.090  0.00  0.00    +0.000 A 
ENDROOT
BRANCH   1   7
ATOM      7  C   UNL     1      47.355   3.538  17.036  0.00  0.00    +0.000 C 
BRANCH   7  10
ATOM      8  C   UNL     1      47.129   4.312  14.703  0.00  0.00    +0.000 C 
ATOM      9  O   UNL     1      47.477   3.217  14.245  0.00  0.00    +0.000 OA
ATOM     10  N   UNL     1      47.048   4.534  16.043  0.00  0.00    +0.000 N 
ATOM     11  H   UNL     1      46.767   5.442  16.380  0.00  0.00    +0.000 HD
BRANCH   8  19
ATOM     12  C   UNL     1      44.558   4.857  12.493  0.00  0.00    +0.000 A 
ATOM     13  N   UNL     1      43.662   5.332  11.611  0.00  0.00    +0.000 NA
ATOM     14  C   UNL     1      43.853   6.553  11.120  0.00  0.00    +0.000 A 
ATOM     15  N   UNL     1      44.861   7.375  11.393  0.00  0.00    +0.000 NA
ATOM     16  C   UNL     1      45.735   6.867  12.279  0.00  0.00    +0.000 A 
ATOM     17  S   UNL     1      47.087   7.781  12.748  0.00  0.00    +0.000 S 
ATOM     18  C   UNL     1      47.616   6.554  13.799  0.00  0.00    +0.000 A 
ATOM     19  C   UNL     1      46.787   5.439  13.822  0.00  0.00    +0.000 A 
ATOM     20  C   UNL     1      45.668   5.623  12.896  0.00  0.00    +0.000 A 
BRANCH  12  22
ATOM     21  C   UNL     1      43.373   2.869  12.275  0.00  0.00    +0.000 C 
ATOM     22  O   UNL     1      44.302   3.623  13.050  0.00  0.00    +0.000 OA
ENDBRANCH  12  22
ENDBRANCH   8  19
ENDBRANCH   7  10
ENDBRANCH   1   7
BRANCH   4  23
ATOM     23  C   UNL     1      53.097   3.153  18.082  0.00  0.00    +0.000 C 
BRANCH  23  24
ATOM     24  N   UNL     1      53.399   2.230  19.181  0.00  0.00    +0.000 NA
ATOM     25  H   UNL     1      52.533   1.788  19.491  0.00  0.00    +0.000 HD
BRANCH  24  26
ATOM     26  C   UNL     1      54.361   1.221  18.757  0.00  0.00    +0.000 C 
BRANCH  26  27
ATOM     27  C   UNL     1      53.679  -0.006  18.111  0.00  0.00    +0.000 C 
ATOM     28  C   UNL     1      54.149  -1.374  18.638  0.00  0.00    +0.000 C 
ATOM     29  C   UNL     1      55.595  -1.676  18.246  0.00  0.00    +0.000 C 
ATOM     30  N   UNL     1      55.775  -1.624  16.790  0.00  0.00    +0.000 NA
ATOM     31  C   UNL     1      55.381  -0.322  16.249  0.00  0.00    +0.000 C 
ATOM     32  C   UNL     1      53.927   0.030  16.593  0.00  0.00    +0.000 C 
ATOM     33  H   UNL     1      55.194  -2.347  16.365  0.00  0.00    +0.000 HD
ENDBRANCH  26  27
ENDBRANCH  24  26
ENDBRANCH  23  24
ENDBRANCH   4  23
TORSDOF 8
ENDMDL
MODEL 4
REMARK VINA RESULT:    -6.837      3.781      8.908
REMARK INTER + INTRA:         -11.025
REMARK INTER:                  -9.691
REMARK INTRA:                  -1.334
REMARK UNBOUND:                -0.991
REMARK  Name = 
REMARK  9 active torsions:
REMARK  status: ('A' for Active; 'I' for Inactive)
REMARK    1  A    between atoms: C_1  and  O_2
REMARK    2  A    between atoms: O_2  and  C_3
REMARK    3  A    between atoms: C_10  and  C_11
REMARK    4  A    between atoms: N_13  and  C_14
REMARK    5  A    between atoms: C_14  and  C_15
REMARK    6  A    between atoms: C_18  and  C_19
REMARK    7  A    between atoms: C_19  and  N_20
REMARK    8  A    between atoms: N_20  and  C_21
REMARK    9  A    between atoms: C_21  and  C_22
REMARK                            x       y       z     vdW  Elec       q    Type
REMARK                         _______ _______ _______ _____ _____    ______ ____
ROOT
ATOM      1  C   UNL     1      48.691   3.361  17.156  0.00  0.00    +0.000 A 
ATOM      2  C   UNL     1      49.354   2.143  16.968  0.00  0.00    +0.000 A 
ATOM      3  C   UNL     1      50.721   2.030  17.228  0.00  0.00    +0.000 A 
ATOM      4  C   UNL     1      51.462   3.132  17.676  0.00  0.00    +0.000 A 
ATOM      5  C   UNL     1      50.792   4.339  17.905  0.00  0.00    +0.000 A 
ATOM      6  C   UNL     1      49.424   4.456  17.638  0.00  0.00    +0.000 A 
ENDROOT
BRANCH   1   7
ATOM      7  C   UNL     1      47.215   3.466  16.859  0.00  0.00    +0.000 C 
BRANCH   7  10
ATOM      8  C   UNL     1      46.961   4.236  14.527  0.00  0.00    +0.000 C 
ATOM      9  O   UNL     1      47.231   3.120  14.068  0.00  0.00    +0.000 OA
ATOM     10  N   UNL     1      46.934   4.472  15.867  0.00  0.00    +0.000 N 
ATOM     11  H   UNL     1      46.715   5.397  16.204  0.00  0.00    +0.000 HD
BRANCH   8  19
ATOM     12  C   UNL     1      44.195   5.090  12.680  0.00  0.00    +0.000 A 
ATOM     13  N   UNL     1      43.254   5.666  11.911  0.00  0.00    +0.000 NA
ATOM     14  C   UNL     1      43.541   6.830  11.337  0.00  0.00    +0.000 A 
ATOM     15  N   UNL     1      44.685   7.501  11.421  0.00  0.00    +0.000 NA
ATOM     16  C   UNL     1      45.599   6.896  12.198  0.00  0.00    +0.000 A 
ATOM     17  S   UNL     1      47.122   7.613  12.423  0.00  0.00    +0.000 S 
ATOM     18  C   UNL     1      47.622   6.354  13.449  0.00  0.00    +0.000 A 
ATOM     19  C   UNL     1      46.655   5.375  13.647  0.00  0.00    +0.000 A 
ATOM     20  C   UNL     1      45.449   5.694  12.881  0.00  0.00    +0.000 A 
BRANCH  12  22
ATOM     21  C   UNL     1      43.639   2.847  12.420  0.00  0.00    +0.000 C 
ATOM     22  O   UNL     1      43.851   3.924  13.330  0.00  0.00    +0.000 OA
ENDBRANCH  12  22
ENDBRANCH   8  19
ENDBRANCH   7  10
ENDBRANCH   1   7
BRANCH   4  23
ATOM     23  C   UNL     1      52.942   3.047  17.972  0.00  0.00    +0.000 C 
BRANCH  23  24
ATOM     24  N   UNL     1      53.523   4.350  18.313  0.00  0.00    +0.000 NA
ATOM     25  H   UNL     1      54.017   4.271  19.203  0.00  0.00    +0.000 HD
BRANCH  24  26
ATOM     26  C   UNL     1      54.430   4.800  17.266  0.00  0.00    +0.000 C 
BRANCH  26  27
ATOM     27  C   UNL     1      54.575   6.338  17.235  0.00  0.00    +0.000 C 
ATOM     28  C   UNL     1      53.252   7.124  17.186  0.00  0.00    +0.000 C 
ATOM     29  C   UNL     1      52.517   6.932  15.859  0.00  0.00    +0.000 C 
ATOM     30  N   UNL     1      53.360   7.320  14.721  0.00  0.00    +0.000 NA
ATOM     31  C   UNL     1      54.614   6.564  14.703  0.00  0.00    +0.000 C 
ATOM     32  C   UNL     1      55.409   6.733  16.004  0.00  0.00    +0.000 C 
ATOM     33  H   UNL     1      53.575   8.313  14.800  0.00  0.00    +0.000 HD
ENDBRANCH  26  27
ENDBRANCH  24  26
ENDBRANCH  23  24
ENDBRANCH   4  23
TORSDOF 8
ENDMDL
MODEL 5
REMARK VINA RESULT:    -6.798      1.723      2.730
REMARK INTER + INTRA:         -10.967
REMARK INTER:                  -9.823
REMARK INTRA:                  -1.144
REMARK UNBOUND:                -0.991
REMARK  Name = 
REMARK  9 active torsions:
REMARK  status: ('A' for Active; 'I' for Inactive)
REMARK    1  A    between atoms: C_1  and  O_2
REMARK    2  A    between atoms: O_2  and  C_3
REMARK    3  A    between atoms: C_10  and  C_11
REMARK    4  A    between atoms: N_13  and  C_14
REMARK    5  A    between atoms: C_14  and  C_15
REMARK    6  A    between atoms: C_18  and  C_19
REMARK    7  A    between atoms: C_19  and  N_20
REMARK    8  A    between atoms: N_20  and  C_21
REMARK    9  A    between atoms: C_21  and  C_22
REMARK                            x       y       z     vdW  Elec       q    Type
REMARK                         _______ _______ _______ _____ _____    ______ ____
ROOT
ATOM      1  C   UNL     1      46.662   5.947  12.714  0.00  0.00    +0.000 A 
ATOM      2  C   UNL     1      46.108   4.712  13.072  0.00  0.00    +0.000 A 
ATOM      3  C   UNL     1      45.206   4.065  12.226  0.00  0.00    +0.000 A 
ATOM      4  C   UNL     1      44.829   4.637  11.003  0.00  0.00    +0.000 A 
ATOM      5  C   UNL     1      45.415   5.851  10.624  0.00  0.00    +0.000 A 
ATOM      6  C   UNL     1      46.313   6.504  11.474  0.00  0.00    +0.000 A 
ENDROOT
BRANCH   1   7
ATOM      7  C   UNL     1      47.627   6.636  13.647  0.00  0.00    +0.000 C 
BRANCH   7  10
ATOM      8  C   UNL     1      48.797   6.022  15.732  0.00  0.00    +0.000 C 
ATOM      9  O   UNL     1      49.819   6.639  15.408  0.00  0.00    +0.000 OA
ATOM     10  N   UNL     1      47.701   5.981  14.927  0.00  0.00    +0.000 N 
ATOM     11  H   UNL     1      46.888   5.463  15.222  0.00  0.00    +0.000 HD
BRANCH   8  19
ATOM     12  C   UNL     1      49.116   6.997  19.009  0.00  0.00    +0.000 A 
ATOM     13  N   UNL     1      49.158   7.113  20.348  0.00  0.00    +0.000 NA
ATOM     14  C   UNL     1      48.946   6.022  21.078  0.00  0.00    +0.000 A 
ATOM     15  N   UNL     1      48.708   4.794  20.628  0.00  0.00    +0.000 NA
ATOM     16  C   UNL     1      48.672   4.718  19.287  0.00  0.00    +0.000 A 
ATOM     17  S   UNL     1      48.377   3.224  18.535  0.00  0.00    +0.000 S 
ATOM     18  C   UNL     1      48.465   3.927  16.989  0.00  0.00    +0.000 A 
ATOM     19  C   UNL     1      48.712   5.294  17.008  0.00  0.00    +0.000 A 
ATOM     20  C   UNL     1      48.853   5.763  18.387  0.00  0.00    +0.000 A 
BRANCH  12  22
ATOM     21  C   UNL     1      48.028   8.855  18.131  0.00  0.00    +0.000 C 
ATOM     22  O   UNL     1      49.261   8.152  18.272  0.00  0.00    +0.000 OA
ENDBRANCH  12  22
ENDBRANCH   8  19
ENDBRANCH   7  10
ENDBRANCH   1   7
BRANCH   4  23
ATOM     23  C   UNL     1      43.858   3.966  10.059  0.00  0.00    +0.000 C 
BRANCH  23  24
ATOM     24  N   UNL     1      44.088   4.336   8.658  0.00  0.00    +0.000 NA
ATOM     25  H   UNL     1      44.693   5.158   8.627  0.00  0.00    +0.000 HD
BRANCH  24  26
ATOM     26  C   UNL     1      44.693   3.232   7.926  0.00  0.00    +0.000 C 
BRANCH  26  27
ATOM     27  C   UNL     1      46.229   3.186   8.094  0.00  0.00    +0.000 C 
ATOM     28  C   UNL     1      47.037   3.813   6.943  0.00  0.00    +0.000 C 
ATOM     29  C   UNL     1      46.919   3.004   5.651  0.00  0.00    +0.000 C 
ATOM     30  N   UNL     1      47.347   1.615   5.850  0.00  0.00    +0.000 NA
ATOM     31  C   UNL     1      46.574   0.964   6.909  0.00  0.00    +0.000 C 
ATOM     32  C   UNL     1      46.669   1.719   8.241  0.00  0.00    +0.000 C 
ATOM     33  H   UNL     1      48.333   1.613   6.113  0.00  0.00    +0.000 HD
ENDBRANCH  26  27
ENDBRANCH  24  26
ENDBRANCH  23  24
ENDBRANCH   4  23
TORSDOF 8
ENDMDL
MODEL 6
REMARK VINA RESULT:    -6.473      1.916      2.160
REMARK INTER + INTRA:         -10.491
REMARK INTER:                  -9.446
REMARK INTRA:                  -1.045
REMARK UNBOUND:                -0.991
REMARK  Name = 
REMARK  9 active torsions:
REMARK  status: ('A' for Active; 'I' for Inactive)
REMARK    1  A    between atoms: C_1  and  O_2
REMARK    2  A    between atoms: O_2  and  C_3
REMARK    3  A    between atoms: C_10  and  C_11
REMARK    4  A    between atoms: N_13  and  C_14
REMARK    5  A    between atoms: C_14  and  C_15
REMARK    6  A    between atoms: C_18  and  C_19
REMARK    7  A    between atoms: C_19  and  N_20
REMARK    8  A    between atoms: N_20  and  C_21
REMARK    9  A    between atoms: C_21  and  C_22
REMARK                            x       y       z     vdW  Elec       q    Type
REMARK                         _______ _______ _______ _____ _____    ______ ____
ROOT
ATOM      1  C   UNL     1      47.152   7.492  13.342  0.00  0.00    +0.000 A 
ATOM      2  C   UNL     1      46.340   7.999  12.321  0.00  0.00    +0.000 A 
ATOM      3  C   UNL     1      45.558   7.143  11.543  0.00  0.00    +0.000 A 
ATOM      4  C   UNL     1      45.572   5.758  11.760  0.00  0.00    +0.000 A 
ATOM      5  C   UNL     1      46.350   5.255  12.809  0.00  0.00    +0.000 A 
ATOM      6  C   UNL     1      47.140   6.109  13.584  0.00  0.00    +0.000 A 
ENDROOT
BRANCH   1   7
ATOM      7  C   UNL     1      47.998   8.432  14.165  0.00  0.00    +0.000 C 
BRANCH   7  10
ATOM      8  C   UNL     1      49.210   7.782  16.215  0.00  0.00    +0.000 C 
ATOM      9  O   UNL     1      48.446   8.430  16.941  0.00  0.00    +0.000 OA
ATOM     10  N   UNL     1      49.049   7.739  14.865  0.00  0.00    +0.000 N 
ATOM     11  H   UNL     1      49.695   7.205  14.304  0.00  0.00    +0.000 HD
BRANCH   8  19
ATOM     12  C   UNL     1      49.672   4.453  16.918  0.00  0.00    +0.000 A 
ATOM     13  N   UNL     1      50.120   3.229  17.247  0.00  0.00    +0.000 NA
ATOM     14  C   UNL     1      51.362   3.120  17.709  0.00  0.00    +0.000 A 
ATOM     15  N   UNL     1      52.231   4.108  17.905  0.00  0.00    +0.000 NA
ATOM     16  C   UNL     1      51.748   5.314  17.563  0.00  0.00    +0.000 A 
ATOM     17  S   UNL     1      52.722   6.694  17.745  0.00  0.00    +0.000 S 
ATOM     18  C   UNL     1      51.498   7.701  17.131  0.00  0.00    +0.000 A 
ATOM     19  C   UNL     1      50.339   7.023  16.773  0.00  0.00    +0.000 A 
ATOM     20  C   UNL     1      50.486   5.593  17.050  0.00  0.00    +0.000 A 
BRANCH  12  22
ATOM     21  C   UNL     1      47.570   3.466  16.794  0.00  0.00    +0.000 C 
ATOM     22  O   UNL     1      48.411   4.536  16.368  0.00  0.00    +0.000 OA
ENDBRANCH  12  22
ENDBRANCH   8  19
ENDBRANCH   7  10
ENDBRANCH   1   7
BRANCH   4  23
ATOM     23  C   UNL     1      44.736   4.801  10.942  0.00  0.00    +0.000 C 
BRANCH  23  24
ATOM     24  N   UNL     1      44.689   5.168   9.523  0.00  0.00    +0.000 NA
ATOM     25  H   UNL     1      44.756   6.183   9.440  0.00  0.00    +0.000 HD
BRANCH  24  26
ATOM     26  C   UNL     1      45.770   4.524   8.788  0.00  0.00    +0.000 C 
BRANCH  26  27
ATOM     27  C   UNL     1      45.249   3.632   7.639  0.00  0.00    +0.000 C 
ATOM     28  C   UNL     1      44.808   2.216   8.051  0.00  0.00    +0.000 C 
ATOM     29  C   UNL     1      45.988   1.354   8.500  0.00  0.00    +0.000 C 
ATOM     30  N   UNL     1      47.012   1.262   7.452  0.00  0.00    +0.000 NA
ATOM     31  C   UNL     1      47.493   2.588   7.058  0.00  0.00    +0.000 C 
ATOM     32  C   UNL     1      46.354   3.496   6.576  0.00  0.00    +0.000 C 
ATOM     33  H   UNL     1      46.603   0.805   6.637  0.00  0.00    +0.000 HD
ENDBRANCH  26  27
ENDBRANCH  24  26
ENDBRANCH  23  24
ENDBRANCH   4  23
TORSDOF 8
ENDMDL
MODEL 7
REMARK VINA RESULT:    -6.414      4.884      9.148
REMARK INTER + INTRA:         -10.404
REMARK INTER:                  -9.309
REMARK INTRA:                  -1.095
REMARK UNBOUND:                -0.991
REMARK  Name = 
REMARK  9 active torsions:
REMARK  status: ('A' for Active; 'I' for Inactive)
REMARK    1  A    between atoms: C_1  and  O_2
REMARK    2  A    between atoms: O_2  and  C_3
REMARK    3  A    between atoms: C_10  and  C_11
REMARK    4  A    between atoms: N_13  and  C_14
REMARK    5  A    between atoms: C_14  and  C_15
REMARK    6  A    between atoms: C_18  and  C_19
REMARK    7  A    between atoms: C_19  and  N_20
REMARK    8  A    between atoms: N_20  and  C_21
REMARK    9  A    between atoms: C_21  and  C_22
REMARK                            x       y       z     vdW  Elec       q    Type
REMARK                         _______ _______ _______ _____ _____    ______ ____
ROOT
ATOM      1  C   UNL     1      48.672   3.508  17.223  0.00  0.00    +0.000 A 
ATOM      2  C   UNL     1      49.200   2.239  16.958  0.00  0.00    +0.000 A 
ATOM      3  C   UNL     1      50.535   1.951  17.243  0.00  0.00    +0.000 A 
ATOM      4  C   UNL     1      51.380   2.924  17.795  0.00  0.00    +0.000 A 
ATOM      5  C   UNL     1      50.843   4.180  18.100  0.00  0.00    +0.000 A 
ATOM      6  C   UNL     1      49.507   4.473  17.808  0.00  0.00    +0.000 A 
ENDROOT
BRANCH   1   7
ATOM      7  C   UNL     1      47.229   3.805  16.898  0.00  0.00    +0.000 C 
BRANCH   7  10
ATOM      8  C   UNL     1      47.113   4.295  14.481  0.00  0.00    +0.000 C 
ATOM      9  O   UNL     1      47.236   3.102  14.175  0.00  0.00    +0.000 OA
ATOM     10  N   UNL     1      47.100   4.702  15.779  0.00  0.00    +0.000 N 
ATOM     11  H   UNL     1      47.004   5.684  15.991  0.00  0.00    +0.000 HD
BRANCH   8  19
ATOM     12  C   UNL     1      48.880   7.163  13.817  0.00  0.00    +0.000 A 
ATOM     13  N   UNL     1      49.407   8.298  13.326  0.00  0.00    +0.000 NA
ATOM     14  C   UNL     1      48.844   8.835  12.248  0.00  0.00    +0.000 A 
ATOM     15  N   UNL     1      47.782   8.379  11.590  0.00  0.00    +0.000 NA
ATOM     16  C   UNL     1      47.284   7.244  12.110  0.00  0.00    +0.000 A 
ATOM     17  S   UNL     1      45.926   6.515  11.396  0.00  0.00    +0.000 S 
ATOM     18  C   UNL     1      45.948   5.246  12.526  0.00  0.00    +0.000 A 
ATOM     19  C   UNL     1      46.977   5.341  13.456  0.00  0.00    +0.000 A 
ATOM     20  C   UNL     1      47.766   6.550  13.214  0.00  0.00    +0.000 A 
BRANCH  12  22
ATOM     21  C   UNL     1      50.588   7.391  15.377  0.00  0.00    +0.000 C 
ATOM     22  O   UNL     1      49.524   6.580  14.887  0.00  0.00    +0.000 OA
ENDBRANCH  12  22
ENDBRANCH   8  19
ENDBRANCH   7  10
ENDBRANCH   1   7
BRANCH   4  23
ATOM     23  C   UNL     1      52.830   2.648  18.121  0.00  0.00    +0.000 C 
BRANCH  23  24
ATOM     24  N   UNL     1      53.061   1.256  18.522  0.00  0.00    +0.000 NA
ATOM     25  H   UNL     1      52.183   0.856  18.853  0.00  0.00    +0.000 HD
BRANCH  24  26
ATOM     26  C   UNL     1      53.586   0.479  17.407  0.00  0.00    +0.000 C 
BRANCH  26  27
ATOM     27  C   UNL     1      55.048   0.034  17.637  0.00  0.00    +0.000 C 
ATOM     28  C   UNL     1      55.676  -0.783  16.494  0.00  0.00    +0.000 C 
ATOM     29  C   UNL     1      55.032  -2.162  16.350  0.00  0.00    +0.000 C 
ATOM     30  N   UNL     1      55.119  -2.924  17.602  0.00  0.00    +0.000 NA
ATOM     31  C   UNL     1      54.494  -2.202  18.711  0.00  0.00    +0.000 C 
ATOM     32  C   UNL     1      55.113  -0.814  18.920  0.00  0.00    +0.000 C 
ATOM     33  H   UNL     1      56.103  -3.077  17.822  0.00  0.00    +0.000 HD
ENDBRANCH  26  27
ENDBRANCH  24  26
ENDBRANCH  23  24
ENDBRANCH   4  23
TORSDOF 8
ENDMDL
MODEL 8
REMARK VINA RESULT:    -6.389      2.696      4.261
REMARK INTER + INTRA:         -10.368
REMARK INTER:                  -9.248
REMARK INTRA:                  -1.120
REMARK UNBOUND:                -0.991
REMARK  Name = 
REMARK  9 active torsions:
REMARK  status: ('A' for Active; 'I' for Inactive)
REMARK    1  A    between atoms: C_1  and  O_2
REMARK    2  A    between atoms: O_2  and  C_3
REMARK    3  A    between atoms: C_10  and  C_11
REMARK    4  A    between atoms: N_13  and  C_14
REMARK    5  A    between atoms: C_14  and  C_15
REMARK    6  A    between atoms: C_18  and  C_19
REMARK    7  A    between atoms: C_19  and  N_20
REMARK    8  A    between atoms: N_20  and  C_21
REMARK    9  A    between atoms: C_21  and  C_22
REMARK                            x       y       z     vdW  Elec       q    Type
REMARK                         _______ _______ _______ _____ _____    ______ ____
ROOT
ATOM      1  C   UNL     1      48.861   7.749  15.797  0.00  0.00    +0.000 A 
ATOM      2  C   UNL     1      48.675   6.479  15.240  0.00  0.00    +0.000 A 
ATOM      3  C   UNL     1      47.941   6.319  14.064  0.00  0.00    +0.000 A 
ATOM      4  C   UNL     1      47.368   7.423  13.417  0.00  0.00    +0.000 A 
ATOM      5  C   UNL     1      47.590   8.698  13.950  0.00  0.00    +0.000 A 
ATOM      6  C   UNL     1      48.319   8.859  15.132  0.00  0.00    +0.000 A 
ENDROOT
BRANCH   1   7
ATOM      7  C   UNL     1      49.649   7.901  17.076  0.00  0.00    +0.000 C 
BRANCH   7  10
ATOM      8  C   UNL     1      50.668   6.235  18.587  0.00  0.00    +0.000 C 
ATOM      9  O   UNL     1      50.138   6.734  19.587  0.00  0.00    +0.000 OA
ATOM     10  N   UNL     1      50.472   6.749  17.342  0.00  0.00    +0.000 N 
ATOM     11  H   UNL     1      50.925   6.320  16.550  0.00  0.00    +0.000 HD
BRANCH   8  19
ATOM     12  C   UNL     1      50.415   3.022  17.403  0.00  0.00    +0.000 A 
ATOM     13  N   UNL     1      50.582   1.739  17.037  0.00  0.00    +0.000 NA
ATOM     14  C   UNL     1      51.698   1.121  17.411  0.00  0.00    +0.000 A 
ATOM     15  N   UNL     1      52.688   1.631  18.138  0.00  0.00    +0.000 NA
ATOM     16  C   UNL     1      52.486   2.914  18.483  0.00  0.00    +0.000 A 
ATOM     17  S   UNL     1      53.651   3.730  19.412  0.00  0.00    +0.000 S 
ATOM     18  C   UNL     1      52.736   5.162  19.394  0.00  0.00    +0.000 A 
ATOM     19  C   UNL     1      51.544   5.058  18.688  0.00  0.00    +0.000 A 
ATOM     20  C   UNL     1      51.389   3.703  18.157  0.00  0.00    +0.000 A 
BRANCH  12  22
ATOM     21  C   UNL     1      48.160   3.443  17.780  0.00  0.00    +0.000 C 
ATOM     22  O   UNL     1      49.289   3.668  16.940  0.00  0.00    +0.000 OA
ENDBRANCH  12  22
ENDBRANCH   8  19
ENDBRANCH   7  10
ENDBRANCH   1   7
BRANCH   4  23
ATOM     23  C   UNL     1      46.571   7.290  12.140  0.00  0.00    +0.000 C 
BRANCH  23  24
ATOM     24  N   UNL     1      45.395   6.429  12.298  0.00  0.00    +0.000 NA
ATOM     25  H   UNL     1      44.553   6.980  12.125  0.00  0.00    +0.000 HD
BRANCH  24  26
ATOM     26  C   UNL     1      45.458   5.297  11.383  0.00  0.00    +0.000 C 
BRANCH  26  27
ATOM     27  C   UNL     1      44.098   5.013  10.706  0.00  0.00    +0.000 C 
ATOM     28  C   UNL     1      43.053   4.313  11.594  0.00  0.00    +0.000 C 
ATOM     29  C   UNL     1      43.453   2.875  11.929  0.00  0.00    +0.000 C 
ATOM     30  N   UNL     1      43.670   2.084  10.712  0.00  0.00    +0.000 NA
ATOM     31  C   UNL     1      44.690   2.692   9.855  0.00  0.00    +0.000 C 
ATOM     32  C   UNL     1      44.336   4.133   9.466  0.00  0.00    +0.000 C 
ATOM     33  H   UNL     1      42.792   2.036  10.195  0.00  0.00    +0.000 HD
ENDBRANCH  26  27
ENDBRANCH  24  26
ENDBRANCH  23  24
ENDBRANCH   4  23
TORSDOF 8
ENDMDL
MODEL 9
REMARK VINA RESULT:    -6.366      2.045      3.165
REMARK INTER + INTRA:         -10.334
REMARK INTER:                  -8.994
REMARK INTRA:                  -1.340
REMARK UNBOUND:                -0.991
REMARK  Name = 
REMARK  9 active torsions:
REMARK  status: ('A' for Active; 'I' for Inactive)
REMARK    1  A    between atoms: C_1  and  O_2
REMARK    2  A    between atoms: O_2  and  C_3
REMARK    3  A    between atoms: C_10  and  C_11
REMARK    4  A    between atoms: N_13  and  C_14
REMARK    5  A    between atoms: C_14  and  C_15
REMARK    6  A    between atoms: C_18  and  C_19
REMARK    7  A    between atoms: C_19  and  N_20
REMARK    8  A    between atoms: N_20  and  C_21
REMARK    9  A    between atoms: C_21  and  C_22
REMARK                            x       y       z     vdW  Elec       q    Type
REMARK                         _______ _______ _______ _____ _____    ______ ____
ROOT
ATOM      1  C   UNL     1      48.114   7.929  13.166  0.00  0.00    +0.000 A 
ATOM      2  C   UNL     1      47.990   7.193  11.981  0.00  0.00    +0.000 A 
ATOM      3  C   UNL     1      46.780   7.164  11.286  0.00  0.00    +0.000 A 
ATOM      4  C   UNL     1      45.661   7.863  11.758  0.00  0.00    +0.000 A 
ATOM      5  C   UNL     1      45.796   8.634  12.919  0.00  0.00    +0.000 A 
ATOM      6  C   UNL     1      47.005   8.658  13.621  0.00  0.00    +0.000 A 
ENDROOT
BRANCH   1   7
ATOM      7  C   UNL     1      49.427   7.939  13.909  0.00  0.00    +0.000 C 
BRANCH   7  10
ATOM      8  C   UNL     1      49.386   7.284  16.289  0.00  0.00    +0.000 C 
ATOM      9  O   UNL     1      49.289   8.457  16.670  0.00  0.00    +0.000 OA
ATOM     10  N   UNL     1      49.456   6.964  14.968  0.00  0.00    +0.000 N 
ATOM     11  H   UNL     1      49.541   5.997  14.695  0.00  0.00    +0.000 HD
BRANCH   8  19
ATOM     12  C   UNL     1      47.505   4.435  16.658  0.00  0.00    +0.000 A 
ATOM     13  N   UNL     1      46.962   3.254  16.999  0.00  0.00    +0.000 NA
ATOM     14  C   UNL     1      47.492   2.594  18.025  0.00  0.00    +0.000 A 
ATOM     15  N   UNL     1      48.512   2.983  18.783  0.00  0.00    +0.000 NA
ATOM     16  C   UNL     1      49.029   4.166  18.410  0.00  0.00    +0.000 A 
ATOM     17  S   UNL     1      50.342   4.819  19.267  0.00  0.00    +0.000 S 
ATOM     18  C   UNL     1      50.396   6.179  18.249  0.00  0.00    +0.000 A 
ATOM     19  C   UNL     1      49.435   6.167  17.245  0.00  0.00    +0.000 A 
ATOM     20  C   UNL     1      48.605   4.966  17.356  0.00  0.00    +0.000 A 
BRANCH  12  22
ATOM     21  C   UNL     1      47.125   4.271  14.370  0.00  0.00    +0.000 C 
ATOM     22  O   UNL     1      46.992   5.067  15.545  0.00  0.00    +0.000 OA
ENDBRANCH  12  22
ENDBRANCH   8  19
ENDBRANCH   7  10
ENDBRANCH   1   7
BRANCH   4  23
ATOM     23  C   UNL     1      44.336   7.858  11.031  0.00  0.00    +0.000 C 
BRANCH  23  24
ATOM     24  N   UNL     1      43.335   7.015  11.692  0.00  0.00    +0.000 NA
ATOM     25  H   UNL     1      42.428   7.483  11.652  0.00  0.00    +0.000 HD
BRANCH  24  26
ATOM     26  C   UNL     1      43.261   5.707  11.056  0.00  0.00    +0.000 C 
BRANCH  26  27
ATOM     27  C   UNL     1      44.551   4.882  11.259  0.00  0.00    +0.000 C 
ATOM     28  C   UNL     1      45.105   4.202   9.993  0.00  0.00    +0.000 C 
ATOM     29  C   UNL     1      44.189   3.086   9.492  0.00  0.00    +0.000 C 
ATOM     30  N   UNL     1      43.963   2.074  10.531  0.00  0.00    +0.000 NA
ATOM     31  C   UNL     1      43.395   2.670  11.741  0.00  0.00    +0.000 C 
ATOM     32  C   UNL     1      44.281   3.788  12.307  0.00  0.00    +0.000 C 
ATOM     33  H   UNL     1      44.857   1.643  10.765  0.00  0.00    +0.000 HD
ENDBRANCH  26  27
ENDBRANCH  24  26
ENDBRANCH  23  24
ENDBRANCH   4  23
TORSDOF 8
ENDMDL
