MODEL 1
REMARK VINA RESULT:    -8.404      0.000      0.000
REMARK INTER + INTRA:         -13.594
REMARK INTER:                 -12.335
REMARK INTRA:                  -1.259
REMARK UNBOUND:                -1.259
REMARK  Name = 
REMARK  8 active torsions:
REMARK  status: ('A' for Active; 'I' for Inactive)
REMARK    1  A    between atoms: C_2  and  C_21
REMARK    2  A    between atoms: N_3  and  C_4
REMARK    3  A    between atoms: C_4  and  C_5
REMARK    4  A    between atoms: C_8  and  C_9
REMARK    5  A    between atoms: C_9  and  C_10
REMARK    6  A    between atoms: C_10  and  N_11
REMARK    7  A    between atoms: N_11  and  C_12
REMARK    8  A    between atoms: C_12  and  C_13
REMARK                            x       y       z     vdW  Elec       q    Type
REMARK                         _______ _______ _______ _____ _____    ______ ____
ROOT
ATOM      1  C   UNL     1      46.183   7.245  12.429  0.00  0.00    +0.000 A 
ATOM      2  C   UNL     1      44.849   7.070  12.781  0.00  0.00    +0.000 A 
ATOM      3  C   UNL     1      44.053   6.218  12.018  0.00  0.00    +0.000 A 
ATOM      4  C   UNL     1      44.592   5.576  10.899  0.00  0.00    +0.000 A 
ATOM      5  C   UNL     1      45.926   5.835  10.607  0.00  0.00    +0.000 A 
ATOM      6  N   UNL     1      46.724   6.652  11.335  0.00  0.00    +0.000 NA
ENDROOT
BRANCH   1   7
ATOM      7  C   UNL     1      47.077   8.124  13.271  0.00  0.00    +0.000 C 
BRANCH   7  10
ATOM      8  O   UNL     1      49.379   6.614  13.617  0.00  0.00    +0.000 OA
ATOM      9  C   UNL     1      48.662   6.819  14.594  0.00  0.00    +0.000 C 
ATOM     10  N   UNL     1      47.467   7.488  14.504  0.00  0.00    +0.000 N 
ATOM     11  H   UNL     1      47.070   7.889  15.348  0.00  0.00    +0.000 HD
BRANCH   9  12
ATOM     12  C   UNL     1      49.004   6.299  15.922  0.00  0.00    +0.000 A 
ATOM     13  C   UNL     1      49.960   6.935  16.702  0.00  0.00    +0.000 A 
ATOM     14  S   UNL     1      50.232   6.156  18.198  0.00  0.00    +0.000 S 
ATOM     15  C   UNL     1      49.054   4.978  17.862  0.00  0.00    +0.000 A 
ATOM     16  N   UNL     1      48.764   3.990  18.758  0.00  0.00    +0.000 NA
ATOM     17  C   UNL     1      47.829   3.185  18.378  0.00  0.00    +0.000 A 
ATOM     18  N   UNL     1      47.157   3.269  17.186  0.00  0.00    +0.000 N 
ATOM     19  C   UNL     1      47.450   4.212  16.235  0.00  0.00    +0.000 A 
ATOM     20  O   UNL     1      46.898   4.202  15.144  0.00  0.00    +0.000 OA
ATOM     21  C   UNL     1      48.476   5.160  16.623  0.00  0.00    +0.000 A 
ATOM     22  H   UNL     1      46.447   2.598  16.936  0.00  0.00    +0.000 HD
ENDBRANCH   9  12
ENDBRANCH   7  10
ENDBRANCH   1   7
BRANCH   4  23
ATOM     23  C   UNL     1      43.784   4.617  10.063  0.00  0.00    +0.000 C 
BRANCH  23  24
ATOM     24  C   UNL     1      43.749   3.200  10.654  0.00  0.00    +0.000 C 
BRANCH  24  25
ATOM     25  N   UNL     1      44.975   2.459  10.330  0.00  0.00    +0.000 NA
ATOM     26  H   UNL     1      45.195   1.804  11.086  0.00  0.00    +0.000 HD
BRANCH  25  27
ATOM     27  C   UNL     1      44.797   1.703   9.087  0.00  0.00    +0.000 C 
BRANCH  27  28
ATOM     28  C   UNL     1      45.900   1.978   8.103  0.00  0.00    +0.000 A 
ATOM     29  C   UNL     1      46.034   3.227   7.488  0.00  0.00    +0.000 A 
ATOM     30  C   UNL     1      47.045   3.436   6.554  0.00  0.00    +0.000 A 
ATOM     31  C   UNL     1      47.892   2.381   6.260  0.00  0.00    +0.000 A 
ATOM     32  N   UNL     1      47.797   1.160   6.828  0.00  0.00    +0.000 NA
ATOM     33  C   UNL     1      46.805   0.988   7.733  0.00  0.00    +0.000 A 
ENDBRANCH  27  28
ENDBRANCH  25  27
ENDBRANCH  24  25
ENDBRANCH  23  24
ENDBRANCH   4  23
TORSDOF 8
ENDMDL
MODEL 2
REMARK VINA RESULT:    -8.168      2.870      3.722
REMARK INTER + INTRA:         -13.248
REMARK INTER:                 -12.408
REMARK INTRA:                  -0.840
REMARK UNBOUND:                -1.259
REMARK  Name = 
REMARK  8 active torsions:
REMARK  status: ('A' for Active; 'I' for Inactive)
REMARK    1  A    between atoms: C_2  and  C_21
REMARK    2  A    between atoms: N_3  and  C_4
REMARK    3  A    between atoms: C_4  and  C_5
REMARK    4  A    between atoms: C_8  and  C_9
REMARK    5  A    between atoms: C_9  and  C_10
REMARK    6  A    between atoms: C_10  and  N_11
REMARK    7  A    between atoms: N_11  and  C_12
REMARK    8  A    between atoms: C_12  and  C_13
REMARK                            x       y       z     vdW  Elec       q    Type
REMARK                         _______ _______ _______ _____ _____    ______ ____
ROOT
ATOM      1  C   UNL     1      47.192   4.779  15.140  0.00  0.00    +0.000 A 
ATOM      2  C   UNL     1      47.818   5.914  14.637  0.00  0.00    +0.000 A 
ATOM      3  C   UNL     1      47.481   6.365  13.362  0.00  0.00    +0.000 A 
ATOM      4  C   UNL     1      46.546   5.660  12.598  0.00  0.00    +0.000 A 
ATOM      5  C   UNL     1      45.995   4.520  13.172  0.00  0.00    +0.000 A 
ATOM      6  N   UNL     1      46.299   4.064  14.411  0.00  0.00    +0.000 NA
ENDROOT
BRANCH   1   7
ATOM      7  C   UNL     1      47.505   4.301  16.539  0.00  0.00    +0.000 C 
BRANCH   7  10
ATOM      8  O   UNL     1      48.913   5.188  18.759  0.00  0.00    +0.000 OA
ATOM      9  C   UNL     1      49.511   4.527  17.914  0.00  0.00    +0.000 C 
ATOM     10  N   UNL     1      48.919   4.111  16.748  0.00  0.00    +0.000 N 
ATOM     11  H   UNL     1      49.336   3.338  16.240  0.00  0.00    +0.000 HD
BRANCH   9  12
ATOM     12  C   UNL     1      50.931   4.190  18.063  0.00  0.00    +0.000 A 
ATOM     13  C   UNL     1      51.830   5.128  18.552  0.00  0.00    +0.000 A 
ATOM     14  S   UNL     1      53.435   4.550  18.620  0.00  0.00    +0.000 S 
ATOM     15  C   UNL     1      52.967   3.022  18.040  0.00  0.00    +0.000 A 
ATOM     16  N   UNL     1      53.877   2.019  17.872  0.00  0.00    +0.000 NA
ATOM     17  C   UNL     1      53.372   0.907  17.451  0.00  0.00    +0.000 A 
ATOM     18  N   UNL     1      52.045   0.702  17.178  0.00  0.00    +0.000 N 
ATOM     19  C   UNL     1      51.104   1.694  17.283  0.00  0.00    +0.000 A 
ATOM     20  O   UNL     1      49.945   1.505  16.941  0.00  0.00    +0.000 OA
ATOM     21  C   UNL     1      51.615   2.957  17.778  0.00  0.00    +0.000 A 
ATOM     22  H   UNL     1      51.711  -0.185  16.833  0.00  0.00    +0.000 HD
ENDBRANCH   9  12
ENDBRANCH   7  10
ENDBRANCH   1   7
BRANCH   4  23
ATOM     23  C   UNL     1      46.119   6.126  11.230  0.00  0.00    +0.000 C 
BRANCH  23  24
ATOM     24  C   UNL     1      45.249   5.095  10.497  0.00  0.00    +0.000 C 
BRANCH  24  25
ATOM     25  N   UNL     1      45.349   5.255   9.040  0.00  0.00    +0.000 NA
ATOM     26  H   UNL     1      46.333   5.288   8.761  0.00  0.00    +0.000 HD
BRANCH  25  27
ATOM     27  C   UNL     1      44.702   4.128   8.361  0.00  0.00    +0.000 C 
BRANCH  27  28
ATOM     28  C   UNL     1      45.697   3.082   7.943  0.00  0.00    +0.000 A 
ATOM     29  C   UNL     1      46.677   3.351   6.982  0.00  0.00    +0.000 A 
ATOM     30  C   UNL     1      47.560   2.348   6.592  0.00  0.00    +0.000 A 
ATOM     31  C   UNL     1      47.430   1.099   7.175  0.00  0.00    +0.000 A 
ATOM     32  N   UNL     1      46.498   0.796   8.103  0.00  0.00    +0.000 NA
ATOM     33  C   UNL     1      45.655   1.792   8.463  0.00  0.00    +0.000 A 
ENDBRANCH  27  28
ENDBRANCH  25  27
ENDBRANCH  24  25
ENDBRANCH  23  24
ENDBRANCH   4  23
TORSDOF 8
ENDMDL
MODEL 3
REMARK VINA RESULT:    -8.126      1.492      1.779
REMARK INTER + INTRA:         -13.185
REMARK INTER:                 -12.147
REMARK INTRA:                  -1.038
REMARK UNBOUND:                -1.259
REMARK  Name = 
REMARK  8 active torsions:
REMARK  status: ('A' for Active; 'I' for Inactive)
REMARK    1  A    between atoms: C_2  and  C_21
REMARK    2  A    between atoms: N_3  and  C_4
REMARK    3  A    between atoms: C_4  and  C_5
REMARK    4  A    between atoms: C_8  and  C_9
REMARK    5  A    between atoms: C_9  and  C_10
REMARK    6  A    between atoms: C_10  and  N_11
REMARK    7  A    between atoms: N_11  and  C_12
REMARK    8  A    between atoms: C_12  and  C_13
REMARK                            x       y       z     vdW  Elec       q    Type
REMARK                         _______ _______ _______ _____ _____    ______ ____
ROOT
ATOM      1  C   UNL     1      46.968   6.405  12.917  0.00  0.00    +0.000 A 
ATOM      2  C   UNL     1      46.660   6.717  11.597  0.00  0.00    +0.000 A 
ATOM      3  C   UNL     1      45.574   6.091  10.989  0.00  0.00    +0.000 A 
ATOM      4  C   UNL     1      44.829   5.144  11.697  0.00  0.00    +0.000 A 
ATOM      5  C   UNL     1      45.229   4.874  13.001  0.00  0.00    +0.000 A 
ATOM      6  N   UNL     1      46.276   5.472  13.618  0.00  0.00    +0.000 NA
ENDROOT
BRANCH   1   7
ATOM      7  C   UNL     1      48.111   7.107  13.612  0.00  0.00    +0.000 C 
BRANCH   7  10
ATOM      8  O   UNL     1      50.211   6.615  15.358  0.00  0.00    +0.000 OA
ATOM      9  C   UNL     1      49.106   6.873  15.831  0.00  0.00    +0.000 C 
ATOM     10  N   UNL     1      47.993   7.054  15.048  0.00  0.00    +0.000 N 
ATOM     11  H   UNL     1      47.199   7.549  15.440  0.00  0.00    +0.000 HD
BRANCH   9  12
ATOM     12  C   UNL     1      48.885   6.939  17.279  0.00  0.00    +0.000 A 
ATOM     13  C   UNL     1      48.630   8.155  17.898  0.00  0.00    +0.000 A 
ATOM     14  S   UNL     1      48.431   8.019  19.589  0.00  0.00    +0.000 S 
ATOM     15  C   UNL     1      48.638   6.333  19.534  0.00  0.00    +0.000 A 
ATOM     16  N   UNL     1      48.568   5.574  20.666  0.00  0.00    +0.000 NA
ATOM     17  C   UNL     1      48.716   4.306  20.465  0.00  0.00    +0.000 A 
ATOM     18  N   UNL     1      48.932   3.724  19.244  0.00  0.00    +0.000 N 
ATOM     19  C   UNL     1      49.060   4.452  18.088  0.00  0.00    +0.000 A 
ATOM     20  O   UNL     1      49.346   3.911  17.029  0.00  0.00    +0.000 OA
ATOM     21  C   UNL     1      48.875   5.880  18.253  0.00  0.00    +0.000 A 
ATOM     22  H   UNL     1      49.059   2.728  19.152  0.00  0.00    +0.000 HD
ENDBRANCH   9  12
ENDBRANCH   7  10
ENDBRANCH   1   7
BRANCH   4  23
ATOM     23  C   UNL     1      43.623   4.468  11.098  0.00  0.00    +0.000 C 
BRANCH  23  24
ATOM     24  C   UNL     1      43.672   2.938  11.234  0.00  0.00    +0.000 C 
BRANCH  24  25
ATOM     25  N   UNL     1      44.861   2.384  10.573  0.00  0.00    +0.000 NA
ATOM     26  H   UNL     1      45.198   1.569  11.092  0.00  0.00    +0.000 HD
BRANCH  25  27
ATOM     27  C   UNL     1      44.534   1.971   9.205  0.00  0.00    +0.000 C 
BRANCH  27  28
ATOM     28  C   UNL     1      45.711   2.114   8.281  0.00  0.00    +0.000 A 
ATOM     29  C   UNL     1      46.036   3.343   7.697  0.00  0.00    +0.000 A 
ATOM     30  C   UNL     1      47.111   3.432   6.819  0.00  0.00    +0.000 A 
ATOM     31  C   UNL     1      47.829   2.280   6.546  0.00  0.00    +0.000 A 
ATOM     32  N   UNL     1      47.549   1.074   7.084  0.00  0.00    +0.000 NA
ATOM     33  C   UNL     1      46.499   1.020   7.936  0.00  0.00    +0.000 A 
ENDBRANCH  27  28
ENDBRANCH  25  27
ENDBRANCH  24  25
ENDBRANCH  23  24
ENDBRANCH   4  23
TORSDOF 8
ENDMDL
MODEL 4
REMARK VINA RESULT:    -7.692      2.453      3.065
REMARK INTER + INTRA:         -12.548
REMARK INTER:                 -11.444
REMARK INTRA:                  -1.104
REMARK UNBOUND:                -1.259
REMARK  Name = 
REMARK  8 active torsions:
REMARK  status: ('A' for Active; 'I' for Inactive)
REMARK    1  A    between atoms: C_2  and  C_21
REMARK    2  A    between atoms: N_3  and  C_4
REMARK    3  A    between atoms: C_4  and  C_5
REMARK    4  A    between atoms: C_8  and  C_9
REMARK    5  A    between atoms: C_9  and  C_10
REMARK    6  A    between atoms: C_10  and  N_11
REMARK    7  A    between atoms: N_11  and  C_12
REMARK    8  A    between atoms: C_12  and  C_13
REMARK                            x       y       z     vdW  Elec       q    Type
REMARK                         _______ _______ _______ _____ _____    ______ ____
ROOT
ATOM      1  C   UNL     1      47.565   6.412  13.287  0.00  0.00    +0.000 A 
ATOM      2  C   UNL     1      47.379   6.954  12.020  0.00  0.00    +0.000 A 
ATOM      3  C   UNL     1      46.352   6.461  11.217  0.00  0.00    +0.000 A 
ATOM      4  C   UNL     1      45.547   5.416  11.678  0.00  0.00    +0.000 A 
ATOM      5  C   UNL     1      45.827   4.917  12.944  0.00  0.00    +0.000 A 
ATOM      6  N   UNL     1      46.812   5.382  13.749  0.00  0.00    +0.000 NA
ENDROOT
BRANCH   1   7
ATOM      7  C   UNL     1      48.639   6.964  14.195  0.00  0.00    +0.000 C 
BRANCH   7  10
ATOM      8  O   UNL     1      50.127   5.905  16.284  0.00  0.00    +0.000 OA
ATOM      9  C   UNL     1      49.075   6.482  16.549  0.00  0.00    +0.000 C 
ATOM     10  N   UNL     1      48.236   6.970  15.579  0.00  0.00    +0.000 N 
ATOM     11  H   UNL     1      47.560   7.682  15.834  0.00  0.00    +0.000 HD
BRANCH   9  12
ATOM     12  C   UNL     1      48.607   6.632  17.931  0.00  0.00    +0.000 A 
ATOM     13  C   UNL     1      48.636   5.555  18.806  0.00  0.00    +0.000 A 
ATOM     14  S   UNL     1      48.021   5.930  20.355  0.00  0.00    +0.000 S 
ATOM     15  C   UNL     1      47.739   7.547  19.912  0.00  0.00    +0.000 A 
ATOM     16  N   UNL     1      47.222   8.444  20.800  0.00  0.00    +0.000 NA
ATOM     17  C   UNL     1      47.089   9.641  20.331  0.00  0.00    +0.000 A 
ATOM     18  N   UNL     1      47.420  10.025  19.059  0.00  0.00    +0.000 N 
ATOM     19  C   UNL     1      47.894   9.147  18.118  0.00  0.00    +0.000 A 
ATOM     20  O   UNL     1      48.090   9.503  16.964  0.00  0.00    +0.000 OA
ATOM     21  C   UNL     1      48.088   7.794  18.601  0.00  0.00    +0.000 A 
ATOM     22  H   UNL     1      47.276  10.973  18.743  0.00  0.00    +0.000 HD
ENDBRANCH   9  12
ENDBRANCH   7  10
ENDBRANCH   1   7
BRANCH   4  23
ATOM     23  C   UNL     1      44.401   4.873  10.863  0.00  0.00    +0.000 C 
BRANCH  23  24
ATOM     24  C   UNL     1      44.047   3.425  11.230  0.00  0.00    +0.000 C 
BRANCH  24  25
ATOM     25  N   UNL     1      44.907   2.470  10.519  0.00  0.00    +0.000 NA
ATOM     26  H   UNL     1      44.813   1.540  10.935  0.00  0.00    +0.000 HD
BRANCH  25  27
ATOM     27  C   UNL     1      44.522   2.397   9.106  0.00  0.00    +0.000 C 
BRANCH  27  28
ATOM     28  C   UNL     1      45.722   2.335   8.202  0.00  0.00    +0.000 A 
ATOM     29  C   UNL     1      46.171   3.463   7.508  0.00  0.00    +0.000 A 
ATOM     30  C   UNL     1      47.264   3.362   6.652  0.00  0.00    +0.000 A 
ATOM     31  C   UNL     1      47.873   2.126   6.512  0.00  0.00    +0.000 A 
ATOM     32  N   UNL     1      47.471   1.012   7.160  0.00  0.00    +0.000 NA
ATOM     33  C   UNL     1      46.407   1.143   7.987  0.00  0.00    +0.000 A 
ENDBRANCH  27  28
ENDBRANCH  25  27
ENDBRANCH  24  25
ENDBRANCH  23  24
ENDBRANCH   4  23
TORSDOF 8
ENDMDL
MODEL 5
REMARK VINA RESULT:    -7.445      2.527      3.129
REMARK INTER + INTRA:         -12.186
REMARK INTER:                 -11.223
REMARK INTRA:                  -0.962
REMARK UNBOUND:                -1.259
REMARK  Name = 
REMARK  8 active torsions:
REMARK  status: ('A' for Active; 'I' for Inactive)
REMARK    1  A    between atoms: C_2  and  C_21
REMARK    2  A    between atoms: N_3  and  C_4
REMARK    3  A    between atoms: C_4  and  C_5
REMARK    4  A    between atoms: C_8  and  C_9
REMARK    5  A    between atoms: C_9  and  C_10
REMARK    6  A    between atoms: C_10  and  N_11
REMARK    7  A    between atoms: N_11  and  C_12
REMARK    8  A    between atoms: C_12  and  C_13
REMARK                            x       y       z     vdW  Elec       q    Type
REMARK                         _______ _______ _______ _____ _____    ______ ____
ROOT
ATOM      1  C   UNL     1      48.273   6.879  14.462  0.00  0.00    +0.000 A 
ATOM      2  C   UNL     1      48.017   7.663  13.342  0.00  0.00    +0.000 A 
ATOM      3  C   UNL     1      47.223   7.146  12.321  0.00  0.00    +0.000 A 
ATOM      4  C   UNL     1      46.721   5.845  12.419  0.00  0.00    +0.000 A 
ATOM      5  C   UNL     1      47.055   5.126  13.561  0.00  0.00    +0.000 A 
ATOM      6  N   UNL     1      47.817   5.606  14.572  0.00  0.00    +0.000 NA
ENDROOT
BRANCH   1   7
ATOM      7  C   UNL     1      49.090   7.438  15.604  0.00  0.00    +0.000 C 
BRANCH   7  10
ATOM      8  O   UNL     1      49.516   6.489  18.177  0.00  0.00    +0.000 OA
ATOM      9  C   UNL     1      50.249   6.087  17.277  0.00  0.00    +0.000 C 
ATOM     10  N   UNL     1      50.164   6.557  15.990  0.00  0.00    +0.000 N 
ATOM     11  H   UNL     1      50.563   6.000  15.241  0.00  0.00    +0.000 HD
BRANCH   9  12
ATOM     12  C   UNL     1      51.320   5.118  17.531  0.00  0.00    +0.000 A 
ATOM     13  C   UNL     1      52.585   5.548  17.909  0.00  0.00    +0.000 A 
ATOM     14  S   UNL     1      53.693   4.268  18.127  0.00  0.00    +0.000 S 
ATOM     15  C   UNL     1      52.507   3.105  17.765  0.00  0.00    +0.000 A 
ATOM     16  N   UNL     1      52.793   1.771  17.786  0.00  0.00    +0.000 NA
ATOM     17  C   UNL     1      51.786   1.007  17.517  0.00  0.00    +0.000 A 
ATOM     18  N   UNL     1      50.522   1.449  17.225  0.00  0.00    +0.000 N 
ATOM     19  C   UNL     1      50.202   2.780  17.143  0.00  0.00    +0.000 A 
ATOM     20  O   UNL     1      49.089   3.141  16.787  0.00  0.00    +0.000 OA
ATOM     21  C   UNL     1      51.291   3.682  17.462  0.00  0.00    +0.000 A 
ATOM     22  H   UNL     1      49.779   0.804  17.004  0.00  0.00    +0.000 HD
ENDBRANCH   9  12
ENDBRANCH   7  10
ENDBRANCH   1   7
BRANCH   4  23
ATOM     23  C   UNL     1      45.828   5.253  11.359  0.00  0.00    +0.000 C 
BRANCH  23  24
ATOM     24  C   UNL     1      44.884   4.175  11.914  0.00  0.00    +0.000 C 
BRANCH  24  25
ATOM     25  N   UNL     1      45.113   2.881  11.258  0.00  0.00    +0.000 NA
ATOM     26  H   UNL     1      44.795   2.122  11.867  0.00  0.00    +0.000 HD
BRANCH  25  27
ATOM     27  C   UNL     1      44.372   2.814   9.995  0.00  0.00    +0.000 C 
BRANCH  27  28
ATOM     28  C   UNL     1      45.294   2.763   8.808  0.00  0.00    +0.000 A 
ATOM     29  C   UNL     1      45.979   1.593   8.467  0.00  0.00    +0.000 A 
ATOM     30  C   UNL     1      46.852   1.591   7.384  0.00  0.00    +0.000 A 
ATOM     31  C   UNL     1      47.018   2.769   6.675  0.00  0.00    +0.000 A 
ATOM     32  N   UNL     1      46.380   3.921   6.972  0.00  0.00    +0.000 NA
ATOM     33  C   UNL     1      45.536   3.891   8.029  0.00  0.00    +0.000 A 
ENDBRANCH  27  28
ENDBRANCH  25  27
ENDBRANCH  24  25
ENDBRANCH  23  24
ENDBRANCH   4  23
TORSDOF 8
ENDMDL
MODEL 6
REMARK VINA RESULT:    -7.431      3.139      4.324
REMARK INTER + INTRA:         -12.166
REMARK INTER:                 -11.037
REMARK INTRA:                  -1.128
REMARK UNBOUND:                -1.259
REMARK  Name = 
REMARK  8 active torsions:
REMARK  status: ('A' for Active; 'I' for Inactive)
REMARK    1  A    between atoms: C_2  and  C_21
REMARK    2  A    between atoms: N_3  and  C_4
REMARK    3  A    between atoms: C_4  and  C_5
REMARK    4  A    between atoms: C_8  and  C_9
REMARK    5  A    between atoms: C_9  and  C_10
REMARK    6  A    between atoms: C_10  and  N_11
REMARK    7  A    between atoms: N_11  and  C_12
REMARK    8  A    between atoms: C_12  and  C_13
REMARK                            x       y       z     vdW  Elec       q    Type
REMARK                         _______ _______ _______ _____ _____    ______ ____
ROOT
ATOM      1  C   UNL     1      48.586   5.931  16.384  0.00  0.00    +0.000 A 
ATOM      2  C   UNL     1      47.830   4.763  16.383  0.00  0.00    +0.000 A 
ATOM      3  C   UNL     1      47.126   4.413  15.233  0.00  0.00    +0.000 A 
ATOM      4  C   UNL     1      47.162   5.247  14.112  0.00  0.00    +0.000 A 
ATOM      5  C   UNL     1      47.919   6.409  14.216  0.00  0.00    +0.000 A 
ATOM      6  N   UNL     1      48.619   6.769  15.318  0.00  0.00    +0.000 NA
ENDROOT
BRANCH   1   7
ATOM      7  C   UNL     1      49.397   6.304  17.602  0.00  0.00    +0.000 C 
BRANCH   7  10
ATOM      8  O   UNL     1      51.927   6.053  16.491  0.00  0.00    +0.000 OA
ATOM      9  C   UNL     1      51.609   5.288  17.398  0.00  0.00    +0.000 C 
ATOM     10  N   UNL     1      50.355   5.286  17.955  0.00  0.00    +0.000 N 
ATOM     11  H   UNL     1      50.231   4.868  18.872  0.00  0.00    +0.000 HD
BRANCH   9  12
ATOM     12  C   UNL     1      52.533   4.269  17.906  0.00  0.00    +0.000 A 
ATOM     13  C   UNL     1      53.728   4.639  18.509  0.00  0.00    +0.000 A 
ATOM     14  S   UNL     1      54.673   3.305  19.004  0.00  0.00    +0.000 S 
ATOM     15  C   UNL     1      53.497   2.202  18.464  0.00  0.00    +0.000 A 
ATOM     16  N   UNL     1      53.673   0.856  18.603  0.00  0.00    +0.000 NA
ATOM     17  C   UNL     1      52.685   0.144  18.173  0.00  0.00    +0.000 A 
ATOM     18  N   UNL     1      51.540   0.647  17.614  0.00  0.00    +0.000 N 
ATOM     19  C   UNL     1      51.342   1.988  17.408  0.00  0.00    +0.000 A 
ATOM     20  O   UNL     1      50.351   2.398  16.821  0.00  0.00    +0.000 OA
ATOM     21  C   UNL     1      52.411   2.836  17.898  0.00  0.00    +0.000 A 
ATOM     22  H   UNL     1      50.808   0.039  17.279  0.00  0.00    +0.000 HD
ENDBRANCH   9  12
ENDBRANCH   7  10
ENDBRANCH   1   7
BRANCH   4  23
ATOM     23  C   UNL     1      46.448   4.896  12.832  0.00  0.00    +0.000 C 
BRANCH  23  24
ATOM     24  C   UNL     1      45.104   4.195  13.076  0.00  0.00    +0.000 C 
BRANCH  24  25
ATOM     25  N   UNL     1      45.028   2.922  12.347  0.00  0.00    +0.000 NA
ATOM     26  H   UNL     1      44.703   2.181  12.973  0.00  0.00    +0.000 HD
BRANCH  25  27
ATOM     27  C   UNL     1      44.092   3.037  11.224  0.00  0.00    +0.000 C 
BRANCH  27  28
ATOM     28  C   UNL     1      44.809   3.211   9.914  0.00  0.00    +0.000 A 
ATOM     29  C   UNL     1      45.230   2.109   9.161  0.00  0.00    +0.000 A 
ATOM     30  C   UNL     1      45.923   2.307   7.971  0.00  0.00    +0.000 A 
ATOM     31  C   UNL     1      46.180   3.607   7.571  0.00  0.00    +0.000 A 
ATOM     32  N   UNL     1      45.795   4.698   8.268  0.00  0.00    +0.000 NA
ATOM     33  C   UNL     1      45.121   4.474   9.421  0.00  0.00    +0.000 A 
ENDBRANCH  27  28
ENDBRANCH  25  27
ENDBRANCH  24  25
ENDBRANCH  23  24
ENDBRANCH   4  23
TORSDOF 8
ENDMDL
MODEL 7
REMARK VINA RESULT:    -7.236      3.209      7.844
REMARK INTER + INTRA:         -11.880
REMARK INTER:                 -10.393
REMARK INTRA:                  -1.487
REMARK UNBOUND:                -1.259
REMARK  Name = 
REMARK  8 active torsions:
REMARK  status: ('A' for Active; 'I' for Inactive)
REMARK    1  A    between atoms: C_2  and  C_21
REMARK    2  A    between atoms: N_3  and  C_4
REMARK    3  A    between atoms: C_4  and  C_5
REMARK    4  A    between atoms: C_8  and  C_9
REMARK    5  A    between atoms: C_9  and  C_10
REMARK    6  A    between atoms: C_10  and  N_11
REMARK    7  A    between atoms: N_11  and  C_12
REMARK    8  A    between atoms: C_12  and  C_13
REMARK                            x       y       z     vdW  Elec       q    Type
REMARK                         _______ _______ _______ _____ _____    ______ ____
ROOT
ATOM      1  C   UNL     1      48.529   7.866  13.785  0.00  0.00    +0.000 A 
ATOM      2  C   UNL     1      48.003   8.828  14.641  0.00  0.00    +0.000 A 
ATOM      3  C   UNL     1      48.247   8.725  16.009  0.00  0.00    +0.000 A 
ATOM      4  C   UNL     1      48.989   7.649  16.505  0.00  0.00    +0.000 A 
ATOM      5  C   UNL     1      49.448   6.720  15.578  0.00  0.00    +0.000 A 
ATOM      6  N   UNL     1      49.232   6.800  14.243  0.00  0.00    +0.000 NA
ENDROOT
BRANCH   1   7
ATOM      7  C   UNL     1      48.319   7.986  12.294  0.00  0.00    +0.000 C 
BRANCH   7  10
ATOM      8  O   UNL     1      45.589   7.923  11.805  0.00  0.00    +0.000 OA
ATOM      9  C   UNL     1      46.263   6.949  11.479  0.00  0.00    +0.000 C 
ATOM     10  N   UNL     1      47.605   6.857  11.750  0.00  0.00    +0.000 N 
ATOM     11  H   UNL     1      48.166   6.202  11.214  0.00  0.00    +0.000 HD
BRANCH   9  12
ATOM     12  C   UNL     1      45.662   5.778  10.833  0.00  0.00    +0.000 A 
ATOM     13  C   UNL     1      45.854   5.545   9.478  0.00  0.00    +0.000 A 
ATOM     14  S   UNL     1      45.047   4.149   8.915  0.00  0.00    +0.000 S 
ATOM     15  C   UNL     1      44.455   3.797  10.469  0.00  0.00    +0.000 A 
ATOM     16  N   UNL     1      43.683   2.696  10.700  0.00  0.00    +0.000 NA
ATOM     17  C   UNL     1      43.330   2.543  11.934  0.00  0.00    +0.000 A 
ATOM     18  N   UNL     1      43.671   3.387  12.958  0.00  0.00    +0.000 N 
ATOM     19  C   UNL     1      44.402   4.531  12.763  0.00  0.00    +0.000 A 
ATOM     20  O   UNL     1      44.609   5.313  13.682  0.00  0.00    +0.000 OA
ATOM     21  C   UNL     1      44.847   4.737  11.399  0.00  0.00    +0.000 A 
ATOM     22  H   UNL     1      43.350   3.226  13.900  0.00  0.00    +0.000 HD
ENDBRANCH   9  12
ENDBRANCH   7  10
ENDBRANCH   1   7
BRANCH   4  23
ATOM     23  C   UNL     1      49.312   7.511  17.970  0.00  0.00    +0.000 C 
BRANCH  23  24
ATOM     24  C   UNL     1      48.094   7.099  18.810  0.00  0.00    +0.000 C 
BRANCH  24  25
ATOM     25  N   UNL     1      48.185   5.693  19.224  0.00  0.00    +0.000 NA
ATOM     26  H   UNL     1      47.651   5.550  20.086  0.00  0.00    +0.000 HD
BRANCH  25  27
ATOM     27  C   UNL     1      47.638   4.821  18.180  0.00  0.00    +0.000 C 
BRANCH  27  28
ATOM     28  C   UNL     1      48.648   3.810  17.712  0.00  0.00    +0.000 A 
ATOM     29  C   UNL     1      49.971   3.836  18.165  0.00  0.00    +0.000 A 
ATOM     30  C   UNL     1      50.888   2.908  17.683  0.00  0.00    +0.000 A 
ATOM     31  C   UNL     1      50.452   1.980  16.752  0.00  0.00    +0.000 A 
ATOM     32  N   UNL     1      49.187   1.921  16.286  0.00  0.00    +0.000 NA
ATOM     33  C   UNL     1      48.317   2.836  16.775  0.00  0.00    +0.000 A 
ENDBRANCH  27  28
ENDBRANCH  25  27
ENDBRANCH  24  25
ENDBRANCH  23  24
ENDBRANCH   4  23
TORSDOF 8
ENDMDL
MODEL 8
REMARK VINA RESULT:    -7.020      2.763      8.365
REMARK INTER + INTRA:         -11.562
REMARK INTER:                  -9.939
REMARK INTRA:                  -1.623
REMARK UNBOUND:                -1.259
REMARK  Name = 
REMARK  8 active torsions:
REMARK  status: ('A' for Active; 'I' for Inactive)
REMARK    1  A    between atoms: C_2  and  C_21
REMARK    2  A    between atoms: N_3  and  C_4
REMARK    3  A    between atoms: C_4  and  C_5
REMARK    4  A    between atoms: C_8  and  C_9
REMARK    5  A    between atoms: C_9  and  C_10
REMARK    6  A    between atoms: C_10  and  N_11
REMARK    7  A    between atoms: N_11  and  C_12
REMARK    8  A    between atoms: C_12  and  C_13
REMARK                            x       y       z     vdW  Elec       q    Type
REMARK                         _______ _______ _______ _____ _____    ______ ____
ROOT
ATOM      1  C   UNL     1      48.015   7.666  13.570  0.00  0.00    +0.000 A 
ATOM      2  C   UNL     1      47.965   8.889  14.231  0.00  0.00    +0.000 A 
ATOM      3  C   UNL     1      48.478   8.981  15.523  0.00  0.00    +0.000 A 
ATOM      4  C   UNL     1      49.006   7.846  16.146  0.00  0.00    +0.000 A 
ATOM      5  C   UNL     1      48.985   6.661  15.419  0.00  0.00    +0.000 A 
ATOM      6  N   UNL     1      48.499   6.545  14.160  0.00  0.00    +0.000 NA
ENDROOT
BRANCH   1   7
ATOM      7  C   UNL     1      47.510   7.555  12.150  0.00  0.00    +0.000 C 
BRANCH   7  10
ATOM      8  O   UNL     1      44.751   7.263  12.116  0.00  0.00    +0.000 OA
ATOM      9  C   UNL     1      45.445   6.286  11.846  0.00  0.00    +0.000 C 
ATOM     10  N   UNL     1      46.815   6.314  11.912  0.00  0.00    +0.000 N 
ATOM     11  H   UNL     1      47.341   5.609  11.405  0.00  0.00    +0.000 HD
BRANCH   9  12
ATOM     12  C   UNL     1      44.849   4.992  11.497  0.00  0.00    +0.000 A 
ATOM     13  C   UNL     1      44.082   4.297  12.422  0.00  0.00    +0.000 A 
ATOM     14  S   UNL     1      43.507   2.802  11.831  0.00  0.00    +0.000 S 
ATOM     15  C   UNL     1      44.231   3.060  10.314  0.00  0.00    +0.000 A 
ATOM     16  N   UNL     1      44.111   2.148   9.307  0.00  0.00    +0.000 NA
ATOM     17  C   UNL     1      44.689   2.493   8.205  0.00  0.00    +0.000 A 
ATOM     18  N   UNL     1      45.380   3.660   8.014  0.00  0.00    +0.000 N 
ATOM     19  C   UNL     1      45.569   4.582   9.011  0.00  0.00    +0.000 A 
ATOM     20  O   UNL     1      46.271   5.569   8.835  0.00  0.00    +0.000 OA
ATOM     21  C   UNL     1      44.917   4.256  10.264  0.00  0.00    +0.000 A 
ATOM     22  H   UNL     1      45.828   3.867   7.133  0.00  0.00    +0.000 HD
ENDBRANCH   9  12
ENDBRANCH   7  10
ENDBRANCH   1   7
BRANCH   4  23
ATOM     23  C   UNL     1      49.606   7.901  17.528  0.00  0.00    +0.000 C 
BRANCH  23  24
ATOM     24  C   UNL     1      48.544   7.885  18.637  0.00  0.00    +0.000 C 
BRANCH  24  25
ATOM     25  N   UNL     1      48.708   6.718  19.513  0.00  0.00    +0.000 NA
ATOM     26  H   UNL     1      48.728   7.018  20.491  0.00  0.00    +0.000 HD
BRANCH  25  27
ATOM     27  C   UNL     1      47.592   5.785  19.328  0.00  0.00    +0.000 C 
BRANCH  27  28
ATOM     28  C   UNL     1      47.956   4.654  18.408  0.00  0.00    +0.000 A 
ATOM     29  C   UNL     1      49.187   3.997  18.511  0.00  0.00    +0.000 A 
ATOM     30  C   UNL     1      49.507   2.978  17.619  0.00  0.00    +0.000 A 
ATOM     31  C   UNL     1      48.582   2.649  16.642  0.00  0.00    +0.000 A 
ATOM     32  N   UNL     1      47.385   3.258  16.505  0.00  0.00    +0.000 NA
ATOM     33  C   UNL     1      47.102   4.244  17.389  0.00  0.00    +0.000 A 
ENDBRANCH  27  28
ENDBRANCH  25  27
ENDBRANCH  24  25
ENDBRANCH  23  24
ENDBRANCH   4  23
TORSDOF 8
ENDMDL
MODEL 9
REMARK VINA RESULT:    -6.823      3.884      8.930
REMARK INTER + INTRA:         -11.274
REMARK INTER:                  -9.007
REMARK INTRA:                  -2.266
REMARK UNBOUND:                -1.259
REMARK  Name = 
REMARK  8 active torsions:
REMARK  status: ('A' for Active; 'I' for Inactive)
REMARK    1  A    between atoms: C_2  and  C_21
REMARK    2  A    between atoms: N_3  and  C_4
REMARK    3  A    between atoms: C_4  and  C_5
REMARK    4  A    between atoms: C_8  and  C_9
REMARK    5  A    between atoms: C_9  and  C_10
REMARK    6  A    between atoms: C_10  and  N_11
REMARK    7  A    between atoms: N_11  and  C_12
REMARK    8  A    between atoms: C_12  and  C_13
REMARK                            x       y       z     vdW  Elec       q    Type
REMARK                         _______ _______ _______ _____ _____    ______ ____
ROOT
ATOM      1  C   UNL     1      48.524   3.734  17.487  0.00  0.00    +0.000 A 
ATOM      2  C   UNL     1      48.631   4.509  18.636  0.00  0.00    +0.000 A 
ATOM      3  C   UNL     1      49.891   4.736  19.186  0.00  0.00    +0.000 A 
ATOM      4  C   UNL     1      51.022   4.164  18.597  0.00  0.00    +0.000 A 
ATOM      5  C   UNL     1      50.815   3.378  17.469  0.00  0.00    +0.000 A 
ATOM      6  N   UNL     1      49.603   3.147  16.910  0.00  0.00    +0.000 NA
ENDROOT
BRANCH   1   7
ATOM      7  C   UNL     1      47.174   3.515  16.846  0.00  0.00    +0.000 C 
BRANCH   7  10
ATOM      8  O   UNL     1      47.274   3.115  14.102  0.00  0.00    +0.000 OA
ATOM      9  C   UNL     1      46.881   4.201  14.520  0.00  0.00    +0.000 C 
ATOM     10  N   UNL     1      46.869   4.518  15.856  0.00  0.00    +0.000 N 
ATOM     11  H   UNL     1      46.273   5.276  16.171  0.00  0.00    +0.000 HD
BRANCH   9  12
ATOM     12  C   UNL     1      46.455   5.269  13.609  0.00  0.00    +0.000 A 
ATOM     13  C   UNL     1      47.315   6.314  13.298  0.00  0.00    +0.000 A 
ATOM     14  S   UNL     1      46.619   7.466  12.246  0.00  0.00    +0.000 S 
ATOM     15  C   UNL     1      45.171   6.581  12.145  0.00  0.00    +0.000 A 
ATOM     16  N   UNL     1      44.130   7.012  11.375  0.00  0.00    +0.000 NA
ATOM     17  C   UNL     1      43.107   6.223  11.374  0.00  0.00    +0.000 A 
ATOM     18  N   UNL     1      43.022   5.048  12.073  0.00  0.00    +0.000 N 
ATOM     19  C   UNL     1      44.023   4.602  12.899  0.00  0.00    +0.000 A 
ATOM     20  O   UNL     1      43.877   3.597  13.582  0.00  0.00    +0.000 OA
ATOM     21  C   UNL     1      45.207   5.438  12.915  0.00  0.00    +0.000 A 
ATOM     22  H   UNL     1      42.188   4.481  12.048  0.00  0.00    +0.000 HD
ENDBRANCH   9  12
ENDBRANCH   7  10
ENDBRANCH   1   7
BRANCH   4  23
ATOM     23  C   UNL     1      52.410   4.409  19.130  0.00  0.00    +0.000 C 
BRANCH  23  24
ATOM     24  C   UNL     1      52.638   5.872  19.540  0.00  0.00    +0.000 C 
BRANCH  24  25
ATOM     25  N   UNL     1      53.310   6.624  18.473  0.00  0.00    +0.000 NA
ATOM     26  H   UNL     1      53.294   6.084  17.604  0.00  0.00    +0.000 HD
BRANCH  25  27
ATOM     27  C   UNL     1      52.627   7.902  18.247  0.00  0.00    +0.000 C 
BRANCH  27  28
ATOM     28  C   UNL     1      51.300   7.714  17.568  0.00  0.00    +0.000 A 
ATOM     29  C   UNL     1      51.188   6.998  16.371  0.00  0.00    +0.000 A 
ATOM     30  C   UNL     1      49.948   6.874  15.750  0.00  0.00    +0.000 A 
ATOM     31  C   UNL     1      48.854   7.478  16.347  0.00  0.00    +0.000 A 
ATOM     32  N   UNL     1      48.918   8.179  17.498  0.00  0.00    +0.000 NA
ATOM     33  C   UNL     1      50.137   8.281  18.080  0.00  0.00    +0.000 A 
ENDBRANCH  27  28
ENDBRANCH  25  27
ENDBRANCH  24  25
ENDBRANCH  23  24
ENDBRANCH   4  23
TORSDOF 8
ENDMDL
