MODEL 1
REMARK VINA RESULT:    -7.323      0.000      0.000
REMARK INTER + INTRA:          -9.894
REMARK INTER:                  -9.250
REMARK INTRA:                  -0.644
REMARK UNBOUND:                -0.644
REMARK  Name = 
REMARK  5 active torsions:
REMARK  status: ('A' for Active; 'I' for Inactive)
REMARK    1  A    between atoms: N_1  and  C_2
REMARK    2  A    between atoms: C_2  and  C_3
REMARK    3  A    between atoms: C_6  and  O_7
REMARK    4  A    between atoms: O_7  and  C_8
REMARK    5  A    between atoms: C_8  and  C_9
REMARK                            x       y       z     vdW  Elec       q    Type
REMARK                         _______ _______ _______ _____ _____    ______ ____
ROOT
ATOM      1  C   UNL     1      46.583   2.331   7.613  0.00  0.00    +0.000 A 
ATOM      2  C   UNL     1      46.489   3.730   7.612  0.00  0.00    +0.000 A 
ATOM      3  C   UNL     1      45.514   4.377   8.373  0.00  0.00    +0.000 A 
ATOM      4  C   UNL     1      44.610   3.635   9.135  0.00  0.00    +0.000 A 
ATOM      5  C   UNL     1      44.743   2.248   9.195  0.00  0.00    +0.000 A 
ATOM      6  C   UNL     1      45.714   1.599   8.429  0.00  0.00    +0.000 A 
ENDROOT
BRANCH   1   7
ATOM      7  C   UNL     1      47.575   1.617   6.730  0.00  0.00    +0.000 C 
BRANCH   7   8
ATOM      8  N   UNL     1      48.645   2.498   6.292  0.00  0.00    +0.000 NA
ATOM      9  H   UNL     1      49.430   1.933   5.972  0.00  0.00    +0.000 HD
ATOM     10  H   UNL     1      48.984   3.029   7.095  0.00  0.00    +0.000 HD
ENDBRANCH   7   8
ENDBRANCH   1   7
BRANCH   4  11
ATOM     11  O   UNL     1      43.629   4.353   9.769  0.00  0.00    +0.000 OA
BRANCH  11  12
ATOM     12  C   UNL     1      43.459   4.036  11.151  0.00  0.00    +0.000 C 
BRANCH  12  13
ATOM     13  C   UNL     1      44.627   4.558  11.945  0.00  0.00    +0.000 A 
ATOM     14  C   UNL     1      44.846   5.935  12.070  0.00  0.00    +0.000 A 
ATOM     15  C   UNL     1      45.886   6.373  12.874  0.00  0.00    +0.000 A 
ATOM     16  N   UNL     1      46.709   5.548  13.555  0.00  0.00    +0.000 NA
ATOM     17  C   UNL     1      46.482   4.227  13.414  0.00  0.00    +0.000 A 
ATOM     18  F   UNL     1      47.279   3.385  14.089  0.00  0.00    +0.000 F 
ATOM     19  C   UNL     1      45.470   3.689  12.638  0.00  0.00    +0.000 A 
ENDBRANCH  12  13
ENDBRANCH  11  12
ENDBRANCH   4  11
TORSDOF 5
ENDMDL
MODEL 2
REMARK VINA RESULT:    -7.258      2.117      5.773
REMARK INTER + INTRA:          -9.811
REMARK INTER:                  -9.247
REMARK INTRA:                  -0.564
REMARK UNBOUND:                -0.644
REMARK  Name = 
REMARK  5 active torsions:
REMARK  status: ('A' for Active; 'I' for Inactive)
REMARK    1  A    between atoms: N_1  and  C_2
REMARK    2  A    between atoms: C_2  and  C_3
REMARK    3  A    between atoms: C_6  and  O_7
REMARK    4  A    between atoms: O_7  and  C_8
REMARK    5  A    between atoms: C_8  and  C_9
REMARK                            x       y       z     vdW  Elec       q    Type
REMARK                         _______ _______ _______ _____ _____    ______ ____
ROOT
ATOM      1  C   UNL     1      46.576   5.629  12.743  0.00  0.00    +0.000 A 
ATOM      2  C   UNL     1      46.214   6.193  11.510  0.00  0.00    +0.000 A 
ATOM      3  C   UNL     1      45.459   5.463  10.590  0.00  0.00    +0.000 A 
ATOM      4  C   UNL     1      45.068   4.156  10.882  0.00  0.00    +0.000 A 
ATOM      5  C   UNL     1      45.364   3.616  12.133  0.00  0.00    +0.000 A 
ATOM      6  C   UNL     1      46.124   4.342  13.052  0.00  0.00    +0.000 A 
ENDROOT
BRANCH   1   7
ATOM      7  C   UNL     1      47.462   6.375  13.708  0.00  0.00    +0.000 C 
BRANCH   7   8
ATOM      8  N   UNL     1      47.715   5.607  14.918  0.00  0.00    +0.000 NA
ATOM      9  H   UNL     1      48.532   5.991  15.389  0.00  0.00    +0.000 HD
ATOM     10  H   UNL     1      47.959   4.651  14.656  0.00  0.00    +0.000 HD
ENDBRANCH   7   8
ENDBRANCH   1   7
BRANCH   4  11
ATOM     11  O   UNL     1      44.415   3.486   9.878  0.00  0.00    +0.000 OA
BRANCH  11  12
ATOM     12  C   UNL     1      44.752   3.918   8.560  0.00  0.00    +0.000 C 
BRANCH  12  13
ATOM     13  C   UNL     1      45.778   2.992   7.963  0.00  0.00    +0.000 A 
ATOM     14  C   UNL     1      46.843   3.498   7.209  0.00  0.00    +0.000 A 
ATOM     15  C   UNL     1      47.807   2.617   6.745  0.00  0.00    +0.000 A 
ATOM     16  N   UNL     1      47.786   1.288   6.977  0.00  0.00    +0.000 NA
ATOM     17  C   UNL     1      46.748   0.823   7.700  0.00  0.00    +0.000 A 
ATOM     18  F   UNL     1      46.709  -0.492   7.955  0.00  0.00    +0.000 F 
ATOM     19  C   UNL     1      45.736   1.619   8.211  0.00  0.00    +0.000 A 
ENDBRANCH  12  13
ENDBRANCH  11  12
ENDBRANCH   4  11
TORSDOF 5
ENDMDL
MODEL 3
REMARK VINA RESULT:    -7.213      1.211      1.655
REMARK INTER + INTRA:          -9.755
REMARK INTER:                  -9.110
REMARK INTRA:                  -0.645
REMARK UNBOUND:                -0.644
REMARK  Name = 
REMARK  5 active torsions:
REMARK  status: ('A' for Active; 'I' for Inactive)
REMARK    1  A    between atoms: N_1  and  C_2
REMARK    2  A    between atoms: C_2  and  C_3
REMARK    3  A    between atoms: C_6  and  O_7
REMARK    4  A    between atoms: O_7  and  C_8
REMARK    5  A    between atoms: C_8  and  C_9
REMARK                            x       y       z     vdW  Elec       q    Type
REMARK                         _______ _______ _______ _____ _____    ______ ____
ROOT
ATOM      1  C   UNL     1      46.650   2.351   7.511  0.00  0.00    +0.000 A 
ATOM      2  C   UNL     1      46.406   3.732   7.484  0.00  0.00    +0.000 A 
ATOM      3  C   UNL     1      45.432   4.297   8.310  0.00  0.00    +0.000 A 
ATOM      4  C   UNL     1      44.680   3.489   9.164  0.00  0.00    +0.000 A 
ATOM      5  C   UNL     1      44.966   2.127   9.246  0.00  0.00    +0.000 A 
ATOM      6  C   UNL     1      45.935   1.559   8.416  0.00  0.00    +0.000 A 
ENDROOT
BRANCH   1   7
ATOM      7  C   UNL     1      47.637   1.717   6.564  0.00  0.00    +0.000 C 
BRANCH   7   8
ATOM      8  N   UNL     1      48.738   2.613   6.246  0.00  0.00    +0.000 NA
ATOM      9  H   UNL     1      48.361   3.486   5.881  0.00  0.00    +0.000 HD
ATOM     10  H   UNL     1      49.289   2.202   5.492  0.00  0.00    +0.000 HD
ENDBRANCH   7   8
ENDBRANCH   1   7
BRANCH   4  11
ATOM     11  O   UNL     1      43.682   4.120   9.862  0.00  0.00    +0.000 OA
BRANCH  11  12
ATOM     12  C   UNL     1      43.557   3.708  11.223  0.00  0.00    +0.000 C 
BRANCH  12  13
ATOM     13  C   UNL     1      44.555   4.445  12.076  0.00  0.00    +0.000 A 
ATOM     14  C   UNL     1      45.571   3.753  12.744  0.00  0.00    +0.000 A 
ATOM     15  C   UNL     1      46.514   4.479  13.455  0.00  0.00    +0.000 A 
ATOM     16  N   UNL     1      46.517   5.825  13.543  0.00  0.00    +0.000 NA
ATOM     17  C   UNL     1      45.525   6.469  12.896  0.00  0.00    +0.000 A 
ATOM     18  F   UNL     1      45.511   7.808  12.958  0.00  0.00    +0.000 F 
ATOM     19  C   UNL     1      44.538   5.838  12.158  0.00  0.00    +0.000 A 
ENDBRANCH  12  13
ENDBRANCH  11  12
ENDBRANCH   4  11
TORSDOF 5
ENDMDL
MODEL 4
REMARK VINA RESULT:    -6.078      2.576      6.095
REMARK INTER + INTRA:          -8.321
REMARK INTER:                  -7.829
REMARK INTRA:                  -0.492
REMARK UNBOUND:                -0.644
REMARK  Name = 
REMARK  5 active torsions:
REMARK  status: ('A' for Active; 'I' for Inactive)
REMARK    1  A    between atoms: N_1  and  C_2
REMARK    2  A    between atoms: C_2  and  C_3
REMARK    3  A    between atoms: C_6  and  O_7
REMARK    4  A    between atoms: O_7  and  C_8
REMARK    5  A    between atoms: C_8  and  C_9
REMARK                            x       y       z     vdW  Elec       q    Type
REMARK                         _______ _______ _______ _____ _____    ______ ____
ROOT
ATOM      1  C   UNL     1      45.182   7.827  11.991  0.00  0.00    +0.000 A 
ATOM      2  C   UNL     1      43.962   7.178  11.747  0.00  0.00    +0.000 A 
ATOM      3  C   UNL     1      43.931   5.816  11.440  0.00  0.00    +0.000 A 
ATOM      4  C   UNL     1      45.118   5.087  11.360  0.00  0.00    +0.000 A 
ATOM      5  C   UNL     1      46.327   5.710  11.671  0.00  0.00    +0.000 A 
ATOM      6  C   UNL     1      46.360   7.073  11.972  0.00  0.00    +0.000 A 
ENDROOT
BRANCH   1   7
ATOM      7  C   UNL     1      45.236   9.313  12.239  0.00  0.00    +0.000 C 
BRANCH   7   8
ATOM      8  N   UNL     1      44.021   9.982  11.801  0.00  0.00    +0.000 NA
ATOM      9  H   UNL     1      43.834   9.730  10.832  0.00  0.00    +0.000 HD
ATOM     10  H   UNL     1      44.181  10.991  11.808  0.00  0.00    +0.000 HD
ENDBRANCH   7   8
ENDBRANCH   1   7
BRANCH   4  11
ATOM     11  O   UNL     1      44.994   3.782  10.956  0.00  0.00    +0.000 OA
BRANCH  11  12
ATOM     12  C   UNL     1      44.361   3.610   9.688  0.00  0.00    +0.000 C 
BRANCH  12  13
ATOM     13  C   UNL     1      45.350   3.068   8.690  0.00  0.00    +0.000 A 
ATOM     14  C   UNL     1      46.046   3.932   7.836  0.00  0.00    +0.000 A 
ATOM     15  C   UNL     1      47.003   3.399   6.987  0.00  0.00    +0.000 A 
ATOM     16  N   UNL     1      47.312   2.086   6.933  0.00  0.00    +0.000 NA
ATOM     17  C   UNL     1      46.625   1.274   7.760  0.00  0.00    +0.000 A 
ATOM     18  F   UNL     1      46.921  -0.033   7.733  0.00  0.00    +0.000 F 
ATOM     19  C   UNL     1      45.653   1.707   8.645  0.00  0.00    +0.000 A 
ENDBRANCH  12  13
ENDBRANCH  11  12
ENDBRANCH   4  11
TORSDOF 5
ENDMDL
MODEL 5
REMARK VINA RESULT:    -5.450      4.197      7.888
REMARK INTER + INTRA:          -7.527
REMARK INTER:                  -7.136
REMARK INTRA:                  -0.391
REMARK UNBOUND:                -0.644
REMARK  Name = 
REMARK  5 active torsions:
REMARK  status: ('A' for Active; 'I' for Inactive)
REMARK    1  A    between atoms: N_1  and  C_2
REMARK    2  A    between atoms: C_2  and  C_3
REMARK    3  A    between atoms: C_6  and  O_7
REMARK    4  A    between atoms: O_7  and  C_8
REMARK    5  A    between atoms: C_8  and  C_9
REMARK                            x       y       z     vdW  Elec       q    Type
REMARK                         _______ _______ _______ _____ _____    ______ ____
ROOT
ATOM      1  C   UNL     1      48.320   4.613  18.431  0.00  0.00    +0.000 A 
ATOM      2  C   UNL     1      48.066   3.272  18.106  0.00  0.00    +0.000 A 
ATOM      3  C   UNL     1      47.718   2.911  16.803  0.00  0.00    +0.000 A 
ATOM      4  C   UNL     1      47.605   3.885  15.810  0.00  0.00    +0.000 A 
ATOM      5  C   UNL     1      47.925   5.209  16.111  0.00  0.00    +0.000 A 
ATOM      6  C   UNL     1      48.267   5.573  17.415  0.00  0.00    +0.000 A 
ENDROOT
BRANCH   1   7
ATOM      7  C   UNL     1      48.613   5.027  19.851  0.00  0.00    +0.000 C 
BRANCH   7   8
ATOM      8  N   UNL     1      48.568   3.898  20.767  0.00  0.00    +0.000 NA
ATOM      9  H   UNL     1      49.488   3.463  20.803  0.00  0.00    +0.000 HD
ATOM     10  H   UNL     1      47.934   3.193  20.389  0.00  0.00    +0.000 HD
ENDBRANCH   7   8
ENDBRANCH   1   7
BRANCH   4  11
ATOM     11  O   UNL     1      47.163   3.448  14.587  0.00  0.00    +0.000 OA
BRANCH  11  12
ATOM     12  C   UNL     1      46.937   4.484  13.632  0.00  0.00    +0.000 C 
BRANCH  12  13
ATOM     13  C   UNL     1      45.570   4.330  13.021  0.00  0.00    +0.000 A 
ATOM     14  C   UNL     1      44.552   5.245  13.312  0.00  0.00    +0.000 A 
ATOM     15  C   UNL     1      43.333   5.111  12.666  0.00  0.00    +0.000 A 
ATOM     16  N   UNL     1      43.062   4.146  11.762  0.00  0.00    +0.000 NA
ATOM     17  C   UNL     1      44.056   3.274  11.503  0.00  0.00    +0.000 A 
ATOM     18  F   UNL     1      43.817   2.311  10.600  0.00  0.00    +0.000 F 
ATOM     19  C   UNL     1      45.309   3.323  12.092  0.00  0.00    +0.000 A 
ENDBRANCH  12  13
ENDBRANCH  11  12
ENDBRANCH   4  11
TORSDOF 5
ENDMDL
MODEL 6
REMARK VINA RESULT:    -5.234      4.159      7.507
REMARK INTER + INTRA:          -7.254
REMARK INTER:                  -6.916
REMARK INTRA:                  -0.339
REMARK UNBOUND:                -0.644
REMARK  Name = 
REMARK  5 active torsions:
REMARK  status: ('A' for Active; 'I' for Inactive)
REMARK    1  A    between atoms: N_1  and  C_2
REMARK    2  A    between atoms: C_2  and  C_3
REMARK    3  A    between atoms: C_6  and  O_7
REMARK    4  A    between atoms: O_7  and  C_8
REMARK    5  A    between atoms: C_8  and  C_9
REMARK                            x       y       z     vdW  Elec       q    Type
REMARK                         _______ _______ _______ _____ _____    ______ ____
ROOT
ATOM      1  C   UNL     1      49.506   4.780  17.483  0.00  0.00    +0.000 A 
ATOM      2  C   UNL     1      48.978   5.755  16.624  0.00  0.00    +0.000 A 
ATOM      3  C   UNL     1      47.911   5.450  15.776  0.00  0.00    +0.000 A 
ATOM      4  C   UNL     1      47.367   4.165  15.765  0.00  0.00    +0.000 A 
ATOM      5  C   UNL     1      47.841   3.213  16.666  0.00  0.00    +0.000 A 
ATOM      6  C   UNL     1      48.912   3.514  17.510  0.00  0.00    +0.000 A 
ENDROOT
BRANCH   1   7
ATOM      7  C   UNL     1      50.712   5.071  18.341  0.00  0.00    +0.000 C 
BRANCH   7   8
ATOM      8  N   UNL     1      51.312   3.854  18.866  0.00  0.00    +0.000 NA
ATOM      9  H   UNL     1      50.587   3.289  19.305  0.00  0.00    +0.000 HD
ATOM     10  H   UNL     1      51.967   4.105  19.608  0.00  0.00    +0.000 HD
ENDBRANCH   7   8
ENDBRANCH   1   7
BRANCH   4  11
ATOM     11  O   UNL     1      46.390   3.936  14.830  0.00  0.00    +0.000 OA
BRANCH  11  12
ATOM     12  C   UNL     1      46.257   4.961  13.845  0.00  0.00    +0.000 C 
BRANCH  12  13
ATOM     13  C   UNL     1      45.143   4.617  12.893  0.00  0.00    +0.000 A 
ATOM     14  C   UNL     1      45.194   3.447  12.128  0.00  0.00    +0.000 A 
ATOM     15  C   UNL     1      44.111   3.130  11.323  0.00  0.00    +0.000 A 
ATOM     16  N   UNL     1      42.996   3.885  11.231  0.00  0.00    +0.000 NA
ATOM     17  C   UNL     1      42.973   5.010  11.972  0.00  0.00    +0.000 A 
ATOM     18  F   UNL     1      41.872   5.773  11.908  0.00  0.00    +0.000 F 
ATOM     19  C   UNL     1      44.000   5.414  12.808  0.00  0.00    +0.000 A 
ENDBRANCH  12  13
ENDBRANCH  11  12
ENDBRANCH   4  11
TORSDOF 5
ENDMDL
MODEL 7
REMARK VINA RESULT:    -5.213      2.953      4.259
REMARK INTER + INTRA:          -7.228
REMARK INTER:                  -6.791
REMARK INTRA:                  -0.437
REMARK UNBOUND:                -0.644
REMARK  Name = 
REMARK  5 active torsions:
REMARK  status: ('A' for Active; 'I' for Inactive)
REMARK    1  A    between atoms: N_1  and  C_2
REMARK    2  A    between atoms: C_2  and  C_3
REMARK    3  A    between atoms: C_6  and  O_7
REMARK    4  A    between atoms: O_7  and  C_8
REMARK    5  A    between atoms: C_8  and  C_9
REMARK                            x       y       z     vdW  Elec       q    Type
REMARK                         _______ _______ _______ _____ _____    ______ ____
ROOT
ATOM      1  C   UNL     1      44.910   3.671  10.140  0.00  0.00    +0.000 A 
ATOM      2  C   UNL     1      44.813   3.193  11.455  0.00  0.00    +0.000 A 
ATOM      3  C   UNL     1      45.188   3.998  12.533  0.00  0.00    +0.000 A 
ATOM      4  C   UNL     1      45.679   5.285  12.310  0.00  0.00    +0.000 A 
ATOM      5  C   UNL     1      45.712   5.791  11.011  0.00  0.00    +0.000 A 
ATOM      6  C   UNL     1      45.343   4.985   9.932  0.00  0.00    +0.000 A 
ENDROOT
BRANCH   1   7
ATOM      7  C   UNL     1      44.590   2.783   8.964  0.00  0.00    +0.000 C 
BRANCH   7   8
ATOM      8  N   UNL     1      45.316   1.524   9.019  0.00  0.00    +0.000 NA
ATOM      9  H   UNL     1      45.118   1.065   9.907  0.00  0.00    +0.000 HD
ATOM     10  H   UNL     1      46.317   1.722   9.016  0.00  0.00    +0.000 HD
ENDBRANCH   7   8
ENDBRANCH   1   7
BRANCH   4  11
ATOM     11  O   UNL     1      46.114   5.962  13.422  0.00  0.00    +0.000 OA
BRANCH  11  12
ATOM     12  C   UNL     1      47.523   5.900  13.640  0.00  0.00    +0.000 C 
BRANCH  12  13
ATOM     13  C   UNL     1      47.805   5.466  15.054  0.00  0.00    +0.000 A 
ATOM     14  C   UNL     1      48.626   6.236  15.886  0.00  0.00    +0.000 A 
ATOM     15  C   UNL     1      48.795   5.841  17.204  0.00  0.00    +0.000 A 
ATOM     16  N   UNL     1      48.211   4.751  17.743  0.00  0.00    +0.000 NA
ATOM     17  C   UNL     1      47.430   4.022  16.921  0.00  0.00    +0.000 A 
ATOM     18  F   UNL     1      46.828   2.940  17.435  0.00  0.00    +0.000 F 
ATOM     19  C   UNL     1      47.195   4.333  15.592  0.00  0.00    +0.000 A 
ENDBRANCH  12  13
ENDBRANCH  11  12
ENDBRANCH   4  11
TORSDOF 5
ENDMDL
MODEL 8
REMARK VINA RESULT:    -5.052      4.862      6.483
REMARK INTER + INTRA:          -7.025
REMARK INTER:                  -6.624
REMARK INTRA:                  -0.401
REMARK UNBOUND:                -0.644
REMARK  Name = 
REMARK  5 active torsions:
REMARK  status: ('A' for Active; 'I' for Inactive)
REMARK    1  A    between atoms: N_1  and  C_2
REMARK    2  A    between atoms: C_2  and  C_3
REMARK    3  A    between atoms: C_6  and  O_7
REMARK    4  A    between atoms: O_7  and  C_8
REMARK    5  A    between atoms: C_8  and  C_9
REMARK                            x       y       z     vdW  Elec       q    Type
REMARK                         _______ _______ _______ _____ _____    ______ ____
ROOT
ATOM      1  C   UNL     1      45.569   6.517  12.336  0.00  0.00    +0.000 A 
ATOM      2  C   UNL     1      44.810   5.461  12.860  0.00  0.00    +0.000 A 
ATOM      3  C   UNL     1      45.399   4.508  13.695  0.00  0.00    +0.000 A 
ATOM      4  C   UNL     1      46.757   4.590  14.004  0.00  0.00    +0.000 A 
ATOM      5  C   UNL     1      47.501   5.677  13.543  0.00  0.00    +0.000 A 
ATOM      6  C   UNL     1      46.914   6.626  12.704  0.00  0.00    +0.000 A 
ENDROOT
BRANCH   1   7
ATOM      7  C   UNL     1      44.966   7.502  11.366  0.00  0.00    +0.000 C 
BRANCH   7   8
ATOM      8  N   UNL     1      43.516   7.403  11.322  0.00  0.00    +0.000 NA
ATOM      9  H   UNL     1      43.186   7.765  10.429  0.00  0.00    +0.000 HD
ATOM     10  H   UNL     1      43.122   8.012  12.041  0.00  0.00    +0.000 HD
ENDBRANCH   7   8
ENDBRANCH   1   7
BRANCH   4  11
ATOM     11  O   UNL     1      47.266   3.556  14.749  0.00  0.00    +0.000 OA
BRANCH  11  12
ATOM     12  C   UNL     1      47.274   3.786  16.158  0.00  0.00    +0.000 C 
BRANCH  12  13
ATOM     13  C   UNL     1      48.666   3.602  16.701  0.00  0.00    +0.000 A 
ATOM     14  C   UNL     1      49.371   4.685  17.237  0.00  0.00    +0.000 A 
ATOM     15  C   UNL     1      50.618   4.455  17.797  0.00  0.00    +0.000 A 
ATOM     16  N   UNL     1      51.200   3.239  17.863  0.00  0.00    +0.000 NA
ATOM     17  C   UNL     1      50.504   2.213  17.336  0.00  0.00    +0.000 A 
ATOM     18  F   UNL     1      51.055   0.992  17.398  0.00  0.00    +0.000 F 
ATOM     19  C   UNL     1      49.253   2.337  16.756  0.00  0.00    +0.000 A 
ENDBRANCH  12  13
ENDBRANCH  11  12
ENDBRANCH   4  11
TORSDOF 5
ENDMDL
MODEL 9
REMARK VINA RESULT:    -5.009      3.878      6.872
REMARK INTER + INTRA:          -6.970
REMARK INTER:                  -6.494
REMARK INTRA:                  -0.476
REMARK UNBOUND:                -0.644
REMARK  Name = 
REMARK  5 active torsions:
REMARK  status: ('A' for Active; 'I' for Inactive)
REMARK    1  A    between atoms: N_1  and  C_2
REMARK    2  A    between atoms: C_2  and  C_3
REMARK    3  A    between atoms: C_6  and  O_7
REMARK    4  A    between atoms: O_7  and  C_8
REMARK    5  A    between atoms: C_8  and  C_9
REMARK                            x       y       z     vdW  Elec       q    Type
REMARK                         _______ _______ _______ _____ _____    ______ ____
ROOT
ATOM      1  C   UNL     1      48.297   5.161  16.620  0.00  0.00    +0.000 A 
ATOM      2  C   UNL     1      48.714   6.353  16.009  0.00  0.00    +0.000 A 
ATOM      3  C   UNL     1      48.342   6.645  14.695  0.00  0.00    +0.000 A 
ATOM      4  C   UNL     1      47.561   5.744  13.970  0.00  0.00    +0.000 A 
ATOM      5  C   UNL     1      47.085   4.592  14.595  0.00  0.00    +0.000 A 
ATOM      6  C   UNL     1      47.461   4.296  15.907  0.00  0.00    +0.000 A 
ENDROOT
BRANCH   1   7
ATOM      7  C   UNL     1      48.761   4.795  18.007  0.00  0.00    +0.000 C 
BRANCH   7   8
ATOM      8  N   UNL     1      47.801   3.947  18.696  0.00  0.00    +0.000 NA
ATOM      9  H   UNL     1      48.104   3.818  19.660  0.00  0.00    +0.000 HD
ATOM     10  H   UNL     1      47.812   3.021  18.267  0.00  0.00    +0.000 HD
ENDBRANCH   7   8
ENDBRANCH   1   7
BRANCH   4  11
ATOM     11  O   UNL     1      47.330   6.072  12.658  0.00  0.00    +0.000 OA
BRANCH  11  12
ATOM     12  C   UNL     1      46.127   6.806  12.431  0.00  0.00    +0.000 C 
BRANCH  12  13
ATOM     13  C   UNL     1      45.024   5.869  12.016  0.00  0.00    +0.000 A 
ATOM     14  C   UNL     1      43.960   5.592  12.881  0.00  0.00    +0.000 A 
ATOM     15  C   UNL     1      42.926   4.787  12.429  0.00  0.00    +0.000 A 
ATOM     16  N   UNL     1      42.879   4.248  11.193  0.00  0.00    +0.000 NA
ATOM     17  C   UNL     1      43.918   4.524  10.380  0.00  0.00    +0.000 A 
ATOM     18  F   UNL     1      43.890   4.010   9.141  0.00  0.00    +0.000 F 
ATOM     19  C   UNL     1      44.995   5.318  10.734  0.00  0.00    +0.000 A 
ENDBRANCH  12  13
ENDBRANCH  11  12
ENDBRANCH   4  11
TORSDOF 5
ENDMDL
