MODEL 1
REMARK VINA RESULT:    -7.948      0.000      0.000
REMARK INTER + INTRA:         -12.312
REMARK INTER:                 -11.201
REMARK INTRA:                  -1.111
REMARK UNBOUND:                -1.111
REMARK  Name = 
REMARK  8 active torsions:
REMARK  status: ('A' for Active; 'I' for Inactive)
REMARK    1  A    between atoms: C_1  and  O_2
REMARK    2  A    between atoms: O_2  and  C_3
REMARK    3  A    between atoms: C_5  and  N_6
REMARK    4  A    between atoms: N_6  and  C_7
REMARK    5  A    between atoms: C_7  and  C_8
REMARK    6  A    between atoms: C_13  and  C_14
REMARK    7  A    between atoms: C_17  and  C_18
REMARK    8  A    between atoms: C_26  and  C_27
REMARK                            x       y       z     vdW  Elec       q    Type
REMARK                         _______ _______ _______ _____ _____    ______ ____
ROOT
ATOM      1  C   UNL     1      45.578   6.657  12.398  0.00  0.00    +0.000 A 
ATOM      2  C   UNL     1      44.307   6.430  12.927  0.00  0.00    +0.000 A 
ATOM      3  C   UNL     1      43.480   5.485  12.340  0.00  0.00    +0.000 A 
ATOM      4  F   UNL     1      42.271   5.252  12.867  0.00  0.00    +0.000 F 
ATOM      5  C   UNL     1      43.887   4.763  11.221  0.00  0.00    +0.000 A 
ATOM      6  C   UNL     1      45.159   4.959  10.658  0.00  0.00    +0.000 A 
ATOM      7  C   UNL     1      45.989   5.922  11.268  0.00  0.00    +0.000 A 
ENDROOT
BRANCH   6   8
ATOM      8  C   UNL     1      45.617   4.175   9.483  0.00  0.00    +0.000 A 
ATOM      9  C   UNL     1      46.202   4.796   8.365  0.00  0.00    +0.000 A 
ATOM     10  C   UNL     1      46.650   4.057   7.262  0.00  0.00    +0.000 A 
ATOM     11  C   UNL     1      46.512   2.665   7.235  0.00  0.00    +0.000 A 
ATOM     12  C   UNL     1      45.923   2.031   8.334  0.00  0.00    +0.000 A 
ATOM     13  C   UNL     1      45.490   2.773   9.439  0.00  0.00    +0.000 A 
BRANCH  11  14
ATOM     14  C   UNL     1      46.985   1.853   6.056  0.00  0.00    +0.000 C 
ATOM     15  F   UNL     1      48.315   1.990   5.796  0.00  0.00    +0.000 F 
ATOM     16  F   UNL     1      46.775   0.518   6.228  0.00  0.00    +0.000 F 
ATOM     17  F   UNL     1      46.343   2.186   4.902  0.00  0.00    +0.000 F 
ENDBRANCH  11  14
ENDBRANCH   6   8
BRANCH   1  18
ATOM     18  C   UNL     1      46.510   7.644  13.050  0.00  0.00    +0.000 C 
BRANCH  18  19
ATOM     19  N   UNL     1      47.789   7.051  13.358  0.00  0.00    +0.000 N 
ATOM     20  H   UNL     1      48.526   7.027  12.667  0.00  0.00    +0.000 HD
BRANCH  19  23
ATOM     21  C   UNL     1      49.002   6.914  16.838  0.00  0.00    +0.000 A 
ATOM     22  C   UNL     1      48.684   7.415  15.579  0.00  0.00    +0.000 A 
ATOM     23  C   UNL     1      48.121   6.587  14.611  0.00  0.00    +0.000 A 
ATOM     24  N   UNL     1      47.863   5.291  14.865  0.00  0.00    +0.000 NA
ATOM     25  C   UNL     1      48.188   4.818  16.108  0.00  0.00    +0.000 A 
ATOM     26  C   UNL     1      48.766   5.581  17.108  0.00  0.00    +0.000 A 
BRANCH  25  27
ATOM     27  C   UNL     1      47.864   3.383  16.395  0.00  0.00    +0.000 C 
ATOM     28  N   UNL     1      46.925   3.168  17.369  0.00  0.00    +0.000 N 
ATOM     29  O   UNL     1      48.402   2.451  15.812  0.00  0.00    +0.000 OA
ATOM     30  H   UNL     1      46.515   3.961  17.848  0.00  0.00    +0.000 HD
ATOM     31  H   UNL     1      46.689   2.223  17.628  0.00  0.00    +0.000 HD
ENDBRANCH  25  27
BRANCH  21  33
ATOM     32  C   UNL     1      48.856   7.660  19.077  0.00  0.00    +0.000 C 
ATOM     33  O   UNL     1      49.572   7.643  17.845  0.00  0.00    +0.000 OA
ENDBRANCH  21  33
ENDBRANCH  19  23
ENDBRANCH  18  19
ENDBRANCH   1  18
TORSDOF 7
ENDMDL
MODEL 2
REMARK VINA RESULT:    -7.630      1.968      2.815
REMARK INTER + INTRA:         -11.864
REMARK INTER:                 -10.529
REMARK INTRA:                  -1.335
REMARK UNBOUND:                -1.111
REMARK  Name = 
REMARK  8 active torsions:
REMARK  status: ('A' for Active; 'I' for Inactive)
REMARK    1  A    between atoms: C_1  and  O_2
REMARK    2  A    between atoms: O_2  and  C_3
REMARK    3  A    between atoms: C_5  and  N_6
REMARK    4  A    between atoms: N_6  and  C_7
REMARK    5  A    between atoms: C_7  and  C_8
REMARK    6  A    between atoms: C_13  and  C_14
REMARK    7  A    between atoms: C_17  and  C_18
REMARK    8  A    between atoms: C_26  and  C_27
REMARK                            x       y       z     vdW  Elec       q    Type
REMARK                         _______ _______ _______ _____ _____    ______ ____
ROOT
ATOM      1  C   UNL     1      44.625   7.026  11.948  0.00  0.00    +0.000 A 
ATOM      2  C   UNL     1      43.829   6.370  12.889  0.00  0.00    +0.000 A 
ATOM      3  C   UNL     1      43.555   5.021  12.731  0.00  0.00    +0.000 A 
ATOM      4  F   UNL     1      42.812   4.389  13.650  0.00  0.00    +0.000 F 
ATOM      5  C   UNL     1      44.046   4.305  11.643  0.00  0.00    +0.000 A 
ATOM      6  C   UNL     1      44.852   4.925  10.673  0.00  0.00    +0.000 A 
ATOM      7  C   UNL     1      45.124   6.298  10.850  0.00  0.00    +0.000 A 
ENDROOT
BRANCH   6   8
ATOM      8  C   UNL     1      45.407   4.166   9.524  0.00  0.00    +0.000 A 
ATOM      9  C   UNL     1      46.046   4.815   8.453  0.00  0.00    +0.000 A 
ATOM     10  C   UNL     1      46.586   4.101   7.375  0.00  0.00    +0.000 A 
ATOM     11  C   UNL     1      46.489   2.706   7.327  0.00  0.00    +0.000 A 
ATOM     12  C   UNL     1      45.847   2.045   8.379  0.00  0.00    +0.000 A 
ATOM     13  C   UNL     1      45.323   2.763   9.460  0.00  0.00    +0.000 A 
BRANCH  11  14
ATOM     14  C   UNL     1      47.060   1.920   6.174  0.00  0.00    +0.000 C 
ATOM     15  F   UNL     1      48.408   2.056   6.034  0.00  0.00    +0.000 F 
ATOM     16  F   UNL     1      46.832   0.582   6.295  0.00  0.00    +0.000 F 
ATOM     17  F   UNL     1      46.523   2.284   4.977  0.00  0.00    +0.000 F 
ENDBRANCH  11  14
ENDBRANCH   6   8
BRANCH   1  18
ATOM     18  C   UNL     1      44.975   8.479  12.127  0.00  0.00    +0.000 C 
BRANCH  18  19
ATOM     19  N   UNL     1      45.833   8.686  13.269  0.00  0.00    +0.000 N 
ATOM     20  H   UNL     1      45.469   9.089  14.122  0.00  0.00    +0.000 HD
BRANCH  19  23
ATOM     21  C   UNL     1      49.344   8.043  12.341  0.00  0.00    +0.000 A 
ATOM     22  C   UNL     1      48.025   8.479  12.258  0.00  0.00    +0.000 A 
ATOM     23  C   UNL     1      47.142   8.263  13.314  0.00  0.00    +0.000 A 
ATOM     24  N   UNL     1      47.539   7.640  14.439  0.00  0.00    +0.000 NA
ATOM     25  C   UNL     1      48.839   7.216  14.497  0.00  0.00    +0.000 A 
ATOM     26  C   UNL     1      49.762   7.380  13.478  0.00  0.00    +0.000 A 
BRANCH  25  27
ATOM     27  C   UNL     1      49.282   6.554  15.768  0.00  0.00    +0.000 C 
ATOM     28  N   UNL     1      48.291   6.285  16.674  0.00  0.00    +0.000 N 
ATOM     29  O   UNL     1      50.451   6.277  16.000  0.00  0.00    +0.000 OA
ATOM     30  H   UNL     1      47.337   6.549  16.461  0.00  0.00    +0.000 HD
ATOM     31  H   UNL     1      48.532   5.871  17.561  0.00  0.00    +0.000 HD
ENDBRANCH  25  27
BRANCH  21  33
ATOM     32  C   UNL     1      51.296   9.154  11.604  0.00  0.00    +0.000 C 
ATOM     33  O   UNL     1      50.277   8.191  11.352  0.00  0.00    +0.000 OA
ENDBRANCH  21  33
ENDBRANCH  19  23
ENDBRANCH  18  19
ENDBRANCH   1  18
TORSDOF 7
ENDMDL
MODEL 3
REMARK VINA RESULT:    -7.466      3.328      4.994
REMARK INTER + INTRA:         -11.633
REMARK INTER:                 -10.412
REMARK INTRA:                  -1.221
REMARK UNBOUND:                -1.111
REMARK  Name = 
REMARK  8 active torsions:
REMARK  status: ('A' for Active; 'I' for Inactive)
REMARK    1  A    between atoms: C_1  and  O_2
REMARK    2  A    between atoms: O_2  and  C_3
REMARK    3  A    between atoms: C_5  and  N_6
REMARK    4  A    between atoms: N_6  and  C_7
REMARK    5  A    between atoms: C_7  and  C_8
REMARK    6  A    between atoms: C_13  and  C_14
REMARK    7  A    between atoms: C_17  and  C_18
REMARK    8  A    between atoms: C_26  and  C_27
REMARK                            x       y       z     vdW  Elec       q    Type
REMARK                         _______ _______ _______ _____ _____    ______ ____
ROOT
ATOM      1  C   UNL     1      49.728   7.755  14.736  0.00  0.00    +0.000 A 
ATOM      2  C   UNL     1      50.523   8.352  13.756  0.00  0.00    +0.000 A 
ATOM      3  C   UNL     1      50.198   8.190  12.418  0.00  0.00    +0.000 A 
ATOM      4  F   UNL     1      50.948   8.786  11.482  0.00  0.00    +0.000 F 
ATOM      5  C   UNL     1      49.099   7.429  12.029  0.00  0.00    +0.000 A 
ATOM      6  C   UNL     1      48.271   6.812  12.982  0.00  0.00    +0.000 A 
ATOM      7  C   UNL     1      48.615   6.990  14.338  0.00  0.00    +0.000 A 
ENDROOT
BRANCH   6   8
ATOM      8  C   UNL     1      47.079   6.023  12.581  0.00  0.00    +0.000 A 
ATOM      9  C   UNL     1      46.390   6.287  11.384  0.00  0.00    +0.000 A 
ATOM     10  C   UNL     1      45.275   5.533  10.994  0.00  0.00    +0.000 A 
ATOM     11  C   UNL     1      44.801   4.494  11.802  0.00  0.00    +0.000 A 
ATOM     12  C   UNL     1      45.468   4.224  13.001  0.00  0.00    +0.000 A 
ATOM     13  C   UNL     1      46.591   4.972  13.379  0.00  0.00    +0.000 A 
BRANCH  11  14
ATOM     14  C   UNL     1      43.602   3.673  11.402  0.00  0.00    +0.000 C 
ATOM     15  F   UNL     1      43.707   3.120  10.162  0.00  0.00    +0.000 F 
ATOM     16  F   UNL     1      43.375   2.635  12.254  0.00  0.00    +0.000 F 
ATOM     17  F   UNL     1      42.452   4.403  11.388  0.00  0.00    +0.000 F 
ENDBRANCH  11  14
ENDBRANCH   6   8
BRANCH   1  18
ATOM     18  C   UNL     1      50.036   7.961  16.195  0.00  0.00    +0.000 C 
BRANCH  18  19
ATOM     19  N   UNL     1      50.778   6.853  16.747  0.00  0.00    +0.000 N 
ATOM     20  H   UNL     1      51.789   6.847  16.727  0.00  0.00    +0.000 HD
BRANCH  19  23
ATOM     21  C   UNL     1      48.806   4.927  19.197  0.00  0.00    +0.000 A 
ATOM     22  C   UNL     1      49.397   6.008  18.549  0.00  0.00    +0.000 A 
ATOM     23  C   UNL     1      50.183   5.808  17.417  0.00  0.00    +0.000 A 
ATOM     24  N   UNL     1      50.384   4.575  16.915  0.00  0.00    +0.000 NA
ATOM     25  C   UNL     1      49.796   3.527  17.571  0.00  0.00    +0.000 A 
ATOM     26  C   UNL     1      49.021   3.653  18.711  0.00  0.00    +0.000 A 
BRANCH  25  27
ATOM     27  C   UNL     1      49.996   2.161  16.985  0.00  0.00    +0.000 C 
ATOM     28  N   UNL     1      50.935   1.379  17.606  0.00  0.00    +0.000 N 
ATOM     29  O   UNL     1      49.376   1.760  16.010  0.00  0.00    +0.000 OA
ATOM     30  H   UNL     1      51.447   1.751  18.397  0.00  0.00    +0.000 HD
ATOM     31  H   UNL     1      51.136   0.463  17.237  0.00  0.00    +0.000 HD
ENDBRANCH  25  27
BRANCH  21  33
ATOM     32  C   UNL     1      47.798   6.343  20.800  0.00  0.00    +0.000 C 
ATOM     33  O   UNL     1      48.035   5.022  20.323  0.00  0.00    +0.000 OA
ENDBRANCH  21  33
ENDBRANCH  19  23
ENDBRANCH  18  19
ENDBRANCH   1  18
TORSDOF 7
ENDMDL
MODEL 4
REMARK VINA RESULT:    -7.408      3.322      5.191
REMARK INTER + INTRA:         -11.550
REMARK INTER:                 -10.526
REMARK INTRA:                  -1.024
REMARK UNBOUND:                -1.111
REMARK  Name = 
REMARK  8 active torsions:
REMARK  status: ('A' for Active; 'I' for Inactive)
REMARK    1  A    between atoms: C_1  and  O_2
REMARK    2  A    between atoms: O_2  and  C_3
REMARK    3  A    between atoms: C_5  and  N_6
REMARK    4  A    between atoms: N_6  and  C_7
REMARK    5  A    between atoms: C_7  and  C_8
REMARK    6  A    between atoms: C_13  and  C_14
REMARK    7  A    between atoms: C_17  and  C_18
REMARK    8  A    between atoms: C_26  and  C_27
REMARK                            x       y       z     vdW  Elec       q    Type
REMARK                         _______ _______ _______ _____ _____    ______ ____
ROOT
ATOM      1  C   UNL     1      49.719   7.901  14.566  0.00  0.00    +0.000 A 
ATOM      2  C   UNL     1      50.462   8.534  13.568  0.00  0.00    +0.000 A 
ATOM      3  C   UNL     1      50.106   8.367  12.239  0.00  0.00    +0.000 A 
ATOM      4  F   UNL     1      50.806   8.997  11.287  0.00  0.00    +0.000 F 
ATOM      5  C   UNL     1      49.027   7.566  11.875  0.00  0.00    +0.000 A 
ATOM      6  C   UNL     1      48.251   6.912  12.847  0.00  0.00    +0.000 A 
ATOM      7  C   UNL     1      48.625   7.095  14.194  0.00  0.00    +0.000 A 
ENDROOT
BRANCH   6   8
ATOM      8  C   UNL     1      47.080   6.079  12.474  0.00  0.00    +0.000 A 
ATOM      9  C   UNL     1      46.611   5.050  13.310  0.00  0.00    +0.000 A 
ATOM     10  C   UNL     1      45.496   4.274  12.969  0.00  0.00    +0.000 A 
ATOM     11  C   UNL     1      44.818   4.493  11.764  0.00  0.00    +0.000 A 
ATOM     12  C   UNL     1      45.278   5.504  10.915  0.00  0.00    +0.000 A 
ATOM     13  C   UNL     1      46.384   6.287  11.268  0.00  0.00    +0.000 A 
BRANCH  11  14
ATOM     14  C   UNL     1      43.619   3.666  11.377  0.00  0.00    +0.000 C 
ATOM     15  F   UNL     1      43.714   3.112  10.137  0.00  0.00    +0.000 F 
ATOM     16  F   UNL     1      43.407   2.627  12.233  0.00  0.00    +0.000 F 
ATOM     17  F   UNL     1      42.465   4.389  11.375  0.00  0.00    +0.000 F 
ENDBRANCH  11  14
ENDBRANCH   6   8
BRANCH   1  18
ATOM     18  C   UNL     1      50.059   8.110  16.017  0.00  0.00    +0.000 C 
BRANCH  18  19
ATOM     19  N   UNL     1      50.966   7.099  16.506  0.00  0.00    +0.000 N 
ATOM     20  H   UNL     1      51.954   7.293  16.599  0.00  0.00    +0.000 HD
BRANCH  19  23
ATOM     21  C   UNL     1      50.986   3.630  17.756  0.00  0.00    +0.000 A 
ATOM     22  C   UNL     1      51.445   4.856  17.285  0.00  0.00    +0.000 A 
ATOM     23  C   UNL     1      50.547   5.872  16.967  0.00  0.00    +0.000 A 
ATOM     24  N   UNL     1      49.220   5.701  17.114  0.00  0.00    +0.000 NA
ATOM     25  C   UNL     1      48.790   4.485  17.575  0.00  0.00    +0.000 A 
ATOM     26  C   UNL     1      49.627   3.428  17.890  0.00  0.00    +0.000 A 
BRANCH  25  27
ATOM     27  C   UNL     1      47.313   4.316  17.769  0.00  0.00    +0.000 C 
ATOM     28  N   UNL     1      46.695   5.289  18.510  0.00  0.00    +0.000 N 
ATOM     29  O   UNL     1      46.687   3.369  17.312  0.00  0.00    +0.000 OA
ATOM     30  H   UNL     1      47.247   6.047  18.894  0.00  0.00    +0.000 HD
ATOM     31  H   UNL     1      45.709   5.213  18.702  0.00  0.00    +0.000 HD
ENDBRANCH  25  27
BRANCH  21  33
ATOM     32  C   UNL     1      51.522   1.360  17.369  0.00  0.00    +0.000 C 
ATOM     33  O   UNL     1      51.788   2.568  18.075  0.00  0.00    +0.000 OA
ENDBRANCH  21  33
ENDBRANCH  19  23
ENDBRANCH  18  19
ENDBRANCH   1  18
TORSDOF 7
ENDMDL
MODEL 5
REMARK VINA RESULT:    -7.314      1.999      2.797
REMARK INTER + INTRA:         -11.418
REMARK INTER:                 -10.183
REMARK INTRA:                  -1.234
REMARK UNBOUND:                -1.111
REMARK  Name = 
REMARK  8 active torsions:
REMARK  status: ('A' for Active; 'I' for Inactive)
REMARK    1  A    between atoms: C_1  and  O_2
REMARK    2  A    between atoms: O_2  and  C_3
REMARK    3  A    between atoms: C_5  and  N_6
REMARK    4  A    between atoms: N_6  and  C_7
REMARK    5  A    between atoms: C_7  and  C_8
REMARK    6  A    between atoms: C_13  and  C_14
REMARK    7  A    between atoms: C_17  and  C_18
REMARK    8  A    between atoms: C_26  and  C_27
REMARK                            x       y       z     vdW  Elec       q    Type
REMARK                         _______ _______ _______ _____ _____    ______ ____
ROOT
ATOM      1  C   UNL     1      47.487   8.398  13.144  0.00  0.00    +0.000 A 
ATOM      2  C   UNL     1      46.550   9.433  13.127  0.00  0.00    +0.000 A 
ATOM      3  C   UNL     1      45.356   9.264  12.444  0.00  0.00    +0.000 A 
ATOM      4  F   UNL     1      44.448  10.249  12.452  0.00  0.00    +0.000 F 
ATOM      5  C   UNL     1      45.075   8.085  11.759  0.00  0.00    +0.000 A 
ATOM      6  C   UNL     1      45.989   7.017  11.752  0.00  0.00    +0.000 A 
ATOM      7  C   UNL     1      47.198   7.205  12.454  0.00  0.00    +0.000 A 
ENDROOT
BRANCH   6   8
ATOM      8  C   UNL     1      45.689   5.743  11.051  0.00  0.00    +0.000 A 
ATOM      9  C   UNL     1      45.291   4.592  11.753  0.00  0.00    +0.000 A 
ATOM     10  C   UNL     1      44.991   3.393  11.093  0.00  0.00    +0.000 A 
ATOM     11  C   UNL     1      45.095   3.302   9.701  0.00  0.00    +0.000 A 
ATOM     12  C   UNL     1      45.499   4.435   8.987  0.00  0.00    +0.000 A 
ATOM     13  C   UNL     1      45.784   5.635   9.651  0.00  0.00    +0.000 A 
BRANCH  11  14
ATOM     14  C   UNL     1      44.779   2.020   8.973  0.00  0.00    +0.000 C 
ATOM     15  F   UNL     1      45.878   1.265   8.696  0.00  0.00    +0.000 F 
ATOM     16  F   UNL     1      43.942   1.213   9.682  0.00  0.00    +0.000 F 
ATOM     17  F   UNL     1      44.165   2.237   7.777  0.00  0.00    +0.000 F 
ENDBRANCH  11  14
ENDBRANCH   6   8
BRANCH   1  18
ATOM     18  C   UNL     1      48.768   8.544  13.921  0.00  0.00    +0.000 C 
BRANCH  18  19
ATOM     19  N   UNL     1      49.278   7.266  14.356  0.00  0.00    +0.000 N 
ATOM     20  H   UNL     1      49.987   6.783  13.819  0.00  0.00    +0.000 HD
BRANCH  19  23
ATOM     21  C   UNL     1      48.540   6.778  17.936  0.00  0.00    +0.000 A 
ATOM     22  C   UNL     1      48.907   7.399  16.746  0.00  0.00    +0.000 A 
ATOM     23  C   UNL     1      48.927   6.682  15.552  0.00  0.00    +0.000 A 
ATOM     24  N   UNL     1      48.586   5.381  15.513  0.00  0.00    +0.000 NA
ATOM     25  C   UNL     1      48.232   4.789  16.696  0.00  0.00    +0.000 A 
ATOM     26  C   UNL     1      48.210   5.437  17.919  0.00  0.00    +0.000 A 
BRANCH  25  27
ATOM     27  C   UNL     1      47.819   3.349  16.639  0.00  0.00    +0.000 C 
ATOM     28  N   UNL     1      46.899   2.956  17.574  0.00  0.00    +0.000 N 
ATOM     29  O   UNL     1      48.274   2.560  15.822  0.00  0.00    +0.000 OA
ATOM     30  H   UNL     1      46.560   3.629  18.251  0.00  0.00    +0.000 HD
ATOM     31  H   UNL     1      46.607   1.992  17.606  0.00  0.00    +0.000 HD
ENDBRANCH  25  27
BRANCH  21  33
ATOM     32  C   UNL     1      47.409   8.271  19.379  0.00  0.00    +0.000 C 
ATOM     33  O   UNL     1      48.508   7.392  19.158  0.00  0.00    +0.000 OA
ENDBRANCH  21  33
ENDBRANCH  19  23
ENDBRANCH  18  19
ENDBRANCH   1  18
TORSDOF 7
ENDMDL
MODEL 6
REMARK VINA RESULT:    -7.163      3.449      5.447
REMARK INTER + INTRA:         -11.205
REMARK INTER:                 -10.043
REMARK INTRA:                  -1.162
REMARK UNBOUND:                -1.111
REMARK  Name = 
REMARK  8 active torsions:
REMARK  status: ('A' for Active; 'I' for Inactive)
REMARK    1  A    between atoms: C_1  and  O_2
REMARK    2  A    between atoms: O_2  and  C_3
REMARK    3  A    between atoms: C_5  and  N_6
REMARK    4  A    between atoms: N_6  and  C_7
REMARK    5  A    between atoms: C_7  and  C_8
REMARK    6  A    between atoms: C_13  and  C_14
REMARK    7  A    between atoms: C_17  and  C_18
REMARK    8  A    between atoms: C_26  and  C_27
REMARK                            x       y       z     vdW  Elec       q    Type
REMARK                         _______ _______ _______ _____ _____    ______ ____
ROOT
ATOM      1  C   UNL     1      49.895   7.614  14.886  0.00  0.00    +0.000 A 
ATOM      2  C   UNL     1      50.761   8.199  13.961  0.00  0.00    +0.000 A 
ATOM      3  C   UNL     1      50.467   8.129  12.608  0.00  0.00    +0.000 A 
ATOM      4  F   UNL     1      51.287   8.714  11.726  0.00  0.00    +0.000 F 
ATOM      5  C   UNL     1      49.328   7.474  12.149  0.00  0.00    +0.000 A 
ATOM      6  C   UNL     1      48.427   6.873  13.046  0.00  0.00    +0.000 A 
ATOM      7  C   UNL     1      48.741   6.956  14.419  0.00  0.00    +0.000 A 
ENDROOT
BRANCH   6   8
ATOM      8  C   UNL     1      47.194   6.197  12.571  0.00  0.00    +0.000 A 
ATOM      9  C   UNL     1      46.516   5.257  13.367  0.00  0.00    +0.000 A 
ATOM     10  C   UNL     1      45.342   4.630  12.929  0.00  0.00    +0.000 A 
ATOM     11  C   UNL     1      44.813   4.914  11.665  0.00  0.00    +0.000 A 
ATOM     12  C   UNL     1      45.480   5.839  10.855  0.00  0.00    +0.000 A 
ATOM     13  C   UNL     1      46.645   6.473  11.304  0.00  0.00    +0.000 A 
BRANCH  11  14
ATOM     14  C   UNL     1      43.554   4.247  11.174  0.00  0.00    +0.000 C 
ATOM     15  F   UNL     1      42.418   4.935  11.477  0.00  0.00    +0.000 F 
ATOM     16  F   UNL     1      43.543   4.090   9.821  0.00  0.00    +0.000 F 
ATOM     17  F   UNL     1      43.386   3.001  11.697  0.00  0.00    +0.000 F 
ENDBRANCH  11  14
ENDBRANCH   6   8
BRANCH   1  18
ATOM     18  C   UNL     1      50.171   7.721  16.362  0.00  0.00    +0.000 C 
BRANCH  18  19
ATOM     19  N   UNL     1      49.695   6.564  17.082  0.00  0.00    +0.000 N 
ATOM     20  H   UNL     1      48.707   6.434  17.254  0.00  0.00    +0.000 HD
BRANCH  19  23
ATOM     21  C   UNL     1      52.440   4.680  18.667  0.00  0.00    +0.000 A 
ATOM     22  C   UNL     1      51.636   5.747  18.280  0.00  0.00    +0.000 A 
ATOM     23  C   UNL     1      50.517   5.534  17.478  0.00  0.00    +0.000 A 
ATOM     24  N   UNL     1      50.180   4.298  17.065  0.00  0.00    +0.000 NA
ATOM     25  C   UNL     1      50.988   3.264  17.454  0.00  0.00    +0.000 A 
ATOM     26  C   UNL     1      52.123   3.408  18.232  0.00  0.00    +0.000 A 
BRANCH  25  27
ATOM     27  C   UNL     1      50.585   1.886  17.019  0.00  0.00    +0.000 C 
ATOM     28  N   UNL     1      51.196   0.852  17.678  0.00  0.00    +0.000 N 
ATOM     29  O   UNL     1      49.772   1.682  16.127  0.00  0.00    +0.000 OA
ATOM     30  H   UNL     1      51.881   1.056  18.396  0.00  0.00    +0.000 HD
ATOM     31  H   UNL     1      50.990  -0.096  17.408  0.00  0.00    +0.000 HD
ENDBRANCH  25  27
BRANCH  21  33
ATOM     32  C   UNL     1      54.654   5.493  18.838  0.00  0.00    +0.000 C 
ATOM     33  O   UNL     1      53.566   4.792  19.435  0.00  0.00    +0.000 OA
ENDBRANCH  21  33
ENDBRANCH  19  23
ENDBRANCH  18  19
ENDBRANCH   1  18
TORSDOF 7
ENDMDL
MODEL 7
REMARK VINA RESULT:    -7.132      2.262      3.442
REMARK INTER + INTRA:         -11.161
REMARK INTER:                  -9.967
REMARK INTRA:                  -1.194
REMARK UNBOUND:                -1.111
REMARK  Name = 
REMARK  8 active torsions:
REMARK  status: ('A' for Active; 'I' for Inactive)
REMARK    1  A    between atoms: C_1  and  O_2
REMARK    2  A    between atoms: O_2  and  C_3
REMARK    3  A    between atoms: C_5  and  N_6
REMARK    4  A    between atoms: N_6  and  C_7
REMARK    5  A    between atoms: C_7  and  C_8
REMARK    6  A    between atoms: C_13  and  C_14
REMARK    7  A    between atoms: C_17  and  C_18
REMARK    8  A    between atoms: C_26  and  C_27
REMARK                            x       y       z     vdW  Elec       q    Type
REMARK                         _______ _______ _______ _____ _____    ______ ____
ROOT
ATOM      1  C   UNL     1      45.047   6.957  12.075  0.00  0.00    +0.000 A 
ATOM      2  C   UNL     1      44.065   6.401  12.897  0.00  0.00    +0.000 A 
ATOM      3  C   UNL     1      43.573   5.136  12.616  0.00  0.00    +0.000 A 
ATOM      4  F   UNL     1      42.649   4.596  13.421  0.00  0.00    +0.000 F 
ATOM      5  C   UNL     1      44.029   4.410  11.518  0.00  0.00    +0.000 A 
ATOM      6  C   UNL     1      45.018   4.931  10.667  0.00  0.00    +0.000 A 
ATOM      7  C   UNL     1      45.509   6.218  10.969  0.00  0.00    +0.000 A 
ENDROOT
BRANCH   6   8
ATOM      8  C   UNL     1      45.534   4.155   9.511  0.00  0.00    +0.000 A 
ATOM      9  C   UNL     1      45.488   2.750   9.487  0.00  0.00    +0.000 A 
ATOM     10  C   UNL     1      45.959   2.015   8.391  0.00  0.00    +0.000 A 
ATOM     11  C   UNL     1      46.508   2.667   7.281  0.00  0.00    +0.000 A 
ATOM     12  C   UNL     1      46.571   4.064   7.292  0.00  0.00    +0.000 A 
ATOM     13  C   UNL     1      46.086   4.793   8.385  0.00  0.00    +0.000 A 
BRANCH  11  14
ATOM     14  C   UNL     1      47.023   1.894   6.094  0.00  0.00    +0.000 C 
ATOM     15  F   UNL     1      46.482   2.290   4.908  0.00  0.00    +0.000 F 
ATOM     16  F   UNL     1      48.372   2.011   5.944  0.00  0.00    +0.000 F 
ATOM     17  F   UNL     1      46.772   0.560   6.191  0.00  0.00    +0.000 F 
ENDBRANCH  11  14
ENDBRANCH   6   8
BRANCH   1  18
ATOM     18  C   UNL     1      45.630   8.308  12.392  0.00  0.00    +0.000 C 
BRANCH  18  19
ATOM     19  N   UNL     1      46.372   8.294  13.630  0.00  0.00    +0.000 N 
ATOM     20  H   UNL     1      45.894   8.346  14.519  0.00  0.00    +0.000 HD
BRANCH  19  23
ATOM     21  C   UNL     1      49.742   7.418  14.846  0.00  0.00    +0.000 A 
ATOM     22  C   UNL     1      48.362   7.601  14.825  0.00  0.00    +0.000 A 
ATOM     23  C   UNL     1      47.734   8.107  13.688  0.00  0.00    +0.000 A 
ATOM     24  N   UNL     1      48.437   8.421  12.584  0.00  0.00    +0.000 NA
ATOM     25  C   UNL     1      49.793   8.237  12.629  0.00  0.00    +0.000 A 
ATOM     26  C   UNL     1      50.481   7.759  13.731  0.00  0.00    +0.000 A 
BRANCH  25  27
ATOM     27  C   UNL     1      50.563   8.556  11.383  0.00  0.00    +0.000 C 
ATOM     28  N   UNL     1      50.590   9.878  11.023  0.00  0.00    +0.000 N 
ATOM     29  O   UNL     1      51.128   7.702  10.714  0.00  0.00    +0.000 OA
ATOM     30  H   UNL     1      50.093  10.557  11.586  0.00  0.00    +0.000 HD
ATOM     31  H   UNL     1      51.065  10.150  10.177  0.00  0.00    +0.000 HD
ENDBRANCH  25  27
BRANCH  21  33
ATOM     32  C   UNL     1      51.783   7.431  16.039  0.00  0.00    +0.000 C 
ATOM     33  O   UNL     1      50.448   6.947  15.918  0.00  0.00    +0.000 OA
ENDBRANCH  21  33
ENDBRANCH  19  23
ENDBRANCH  18  19
ENDBRANCH   1  18
TORSDOF 7
ENDMDL
MODEL 8
REMARK VINA RESULT:    -6.531      5.541      8.697
REMARK INTER + INTRA:         -10.315
REMARK INTER:                  -9.123
REMARK INTRA:                  -1.192
REMARK UNBOUND:                -1.111
REMARK  Name = 
REMARK  8 active torsions:
REMARK  status: ('A' for Active; 'I' for Inactive)
REMARK    1  A    between atoms: C_1  and  O_2
REMARK    2  A    between atoms: O_2  and  C_3
REMARK    3  A    between atoms: C_5  and  N_6
REMARK    4  A    between atoms: N_6  and  C_7
REMARK    5  A    between atoms: C_7  and  C_8
REMARK    6  A    between atoms: C_13  and  C_14
REMARK    7  A    between atoms: C_17  and  C_18
REMARK    8  A    between atoms: C_26  and  C_27
REMARK                            x       y       z     vdW  Elec       q    Type
REMARK                         _______ _______ _______ _____ _____    ______ ____
ROOT
ATOM      1  C   UNL     1      49.187   6.663  17.006  0.00  0.00    +0.000 A 
ATOM      2  C   UNL     1      48.277   6.746  18.061  0.00  0.00    +0.000 A 
ATOM      3  C   UNL     1      48.278   5.770  19.044  0.00  0.00    +0.000 A 
ATOM      4  F   UNL     1      47.421   5.867  20.069  0.00  0.00    +0.000 F 
ATOM      5  C   UNL     1      49.163   4.695  18.995  0.00  0.00    +0.000 A 
ATOM      6  C   UNL     1      50.097   4.573  17.953  0.00  0.00    +0.000 A 
ATOM      7  C   UNL     1      50.084   5.577  16.961  0.00  0.00    +0.000 A 
ENDROOT
BRANCH   6   8
ATOM      8  C   UNL     1      51.064   3.449  17.905  0.00  0.00    +0.000 A 
ATOM      9  C   UNL     1      52.391   3.599  18.348  0.00  0.00    +0.000 A 
ATOM     10  C   UNL     1      53.301   2.535  18.320  0.00  0.00    +0.000 A 
ATOM     11  C   UNL     1      52.917   1.282  17.830  0.00  0.00    +0.000 A 
ATOM     12  C   UNL     1      51.605   1.118  17.374  0.00  0.00    +0.000 A 
ATOM     13  C   UNL     1      50.695   2.181  17.418  0.00  0.00    +0.000 A 
BRANCH  11  14
ATOM     14  C   UNL     1      53.884   0.126  17.788  0.00  0.00    +0.000 C 
ATOM     15  F   UNL     1      53.493  -0.941  18.539  0.00  0.00    +0.000 F 
ATOM     16  F   UNL     1      54.064  -0.355  16.526  0.00  0.00    +0.000 F 
ATOM     17  F   UNL     1      55.123   0.465  18.239  0.00  0.00    +0.000 F 
ENDBRANCH  11  14
ENDBRANCH   6   8
BRANCH   1  18
ATOM     18  C   UNL     1      49.235   7.740  15.954  0.00  0.00    +0.000 C 
BRANCH  18  19
ATOM     19  N   UNL     1      49.170   7.190  14.622  0.00  0.00    +0.000 N 
ATOM     20  H   UNL     1      50.016   6.945  14.123  0.00  0.00    +0.000 HD
BRANCH  19  23
ATOM     21  C   UNL     1      45.988   7.476  12.781  0.00  0.00    +0.000 A 
ATOM     22  C   UNL     1      47.175   7.838  13.411  0.00  0.00    +0.000 A 
ATOM     23  C   UNL     1      47.987   6.869  13.996  0.00  0.00    +0.000 A 
ATOM     24  N   UNL     1      47.655   5.565  13.960  0.00  0.00    +0.000 NA
ATOM     25  C   UNL     1      46.481   5.233  13.339  0.00  0.00    +0.000 A 
ATOM     26  C   UNL     1      45.619   6.146  12.756  0.00  0.00    +0.000 A 
BRANCH  25  27
ATOM     27  C   UNL     1      46.137   3.775  13.272  0.00  0.00    +0.000 C 
ATOM     28  N   UNL     1      44.897   3.479  12.772  0.00  0.00    +0.000 N 
ATOM     29  O   UNL     1      46.900   2.895  13.647  0.00  0.00    +0.000 OA
ATOM     30  H   UNL     1      44.280   4.233  12.493  0.00  0.00    +0.000 HD
ATOM     31  H   UNL     1      44.596   2.519  12.733  0.00  0.00    +0.000 HD
ENDBRANCH  25  27
BRANCH  21  33
ATOM     32  C   UNL     1      45.624   9.668  11.972  0.00  0.00    +0.000 C 
ATOM     33  O   UNL     1      45.117   8.355  12.197  0.00  0.00    +0.000 OA
ENDBRANCH  21  33
ENDBRANCH  19  23
ENDBRANCH  18  19
ENDBRANCH   1  18
TORSDOF 7
ENDMDL
MODEL 9
REMARK VINA RESULT:    -6.490      5.556      9.005
REMARK INTER + INTRA:         -10.256
REMARK INTER:                  -9.087
REMARK INTRA:                  -1.169
REMARK UNBOUND:                -1.111
REMARK  Name = 
REMARK  8 active torsions:
REMARK  status: ('A' for Active; 'I' for Inactive)
REMARK    1  A    between atoms: C_1  and  O_2
REMARK    2  A    between atoms: O_2  and  C_3
REMARK    3  A    between atoms: C_5  and  N_6
REMARK    4  A    between atoms: N_6  and  C_7
REMARK    5  A    between atoms: C_7  and  C_8
REMARK    6  A    between atoms: C_13  and  C_14
REMARK    7  A    between atoms: C_17  and  C_18
REMARK    8  A    between atoms: C_26  and  C_27
REMARK                            x       y       z     vdW  Elec       q    Type
REMARK                         _______ _______ _______ _____ _____    ______ ____
ROOT
ATOM      1  C   UNL     1      48.995   6.554  16.824  0.00  0.00    +0.000 A 
ATOM      2  C   UNL     1      48.112   6.653  17.901  0.00  0.00    +0.000 A 
ATOM      3  C   UNL     1      48.174   5.723  18.926  0.00  0.00    +0.000 A 
ATOM      4  F   UNL     1      47.343   5.837  19.970  0.00  0.00    +0.000 F 
ATOM      5  C   UNL     1      49.094   4.678  18.899  0.00  0.00    +0.000 A 
ATOM      6  C   UNL     1      50.003   4.541  17.836  0.00  0.00    +0.000 A 
ATOM      7  C   UNL     1      49.927   5.498  16.802  0.00  0.00    +0.000 A 
ENDROOT
BRANCH   6   8
ATOM      8  C   UNL     1      51.008   3.449  17.809  0.00  0.00    +0.000 A 
ATOM      9  C   UNL     1      52.335   3.659  18.223  0.00  0.00    +0.000 A 
ATOM     10  C   UNL     1      53.282   2.626  18.215  0.00  0.00    +0.000 A 
ATOM     11  C   UNL     1      52.933   1.344  17.776  0.00  0.00    +0.000 A 
ATOM     12  C   UNL     1      51.619   1.120  17.351  0.00  0.00    +0.000 A 
ATOM     13  C   UNL     1      50.674   2.152  17.374  0.00  0.00    +0.000 A 
BRANCH  11  14
ATOM     14  C   UNL     1      53.938   0.221  17.757  0.00  0.00    +0.000 C 
ATOM     15  F   UNL     1      53.552  -0.869  18.477  0.00  0.00    +0.000 F 
ATOM     16  F   UNL     1      54.184  -0.234  16.496  0.00  0.00    +0.000 F 
ATOM     17  F   UNL     1      55.146   0.593  18.262  0.00  0.00    +0.000 F 
ENDBRANCH  11  14
ENDBRANCH   6   8
BRANCH   1  18
ATOM     18  C   UNL     1      48.975   7.583  15.726  0.00  0.00    +0.000 C 
BRANCH  18  19
ATOM     19  N   UNL     1      48.855   6.973  14.423  0.00  0.00    +0.000 N 
ATOM     20  H   UNL     1      49.678   6.694  13.906  0.00  0.00    +0.000 HD
BRANCH  19  23
ATOM     21  C   UNL     1      45.888   5.054  13.367  0.00  0.00    +0.000 A 
ATOM     22  C   UNL     1      47.117   5.354  13.947  0.00  0.00    +0.000 A 
ATOM     23  C   UNL     1      47.646   6.640  13.857  0.00  0.00    +0.000 A 
ATOM     24  N   UNL     1      46.983   7.624  13.221  0.00  0.00    +0.000 NA
ATOM     25  C   UNL     1      45.778   7.305  12.655  0.00  0.00    +0.000 A 
ATOM     26  C   UNL     1      45.206   6.045  12.689  0.00  0.00    +0.000 A 
BRANCH  25  27
ATOM     27  C   UNL     1      45.030   8.416  11.979  0.00  0.00    +0.000 C 
ATOM     28  N   UNL     1      43.953   8.034  11.224  0.00  0.00    +0.000 N 
ATOM     29  O   UNL     1      45.356   9.591  12.076  0.00  0.00    +0.000 OA
ATOM     30  H   UNL     1      43.724   7.051  11.146  0.00  0.00    +0.000 HD
ATOM     31  H   UNL     1      43.430   8.733  10.720  0.00  0.00    +0.000 HD
ENDBRANCH  25  27
BRANCH  21  33
ATOM     32  C   UNL     1      44.933   3.291  12.115  0.00  0.00    +0.000 C 
ATOM     33  O   UNL     1      45.299   3.820  13.386  0.00  0.00    +0.000 OA
ENDBRANCH  21  33
ENDBRANCH  19  23
ENDBRANCH  18  19
ENDBRANCH   1  18
TORSDOF 7
ENDMDL
