MODEL 1
REMARK VINA RESULT:    -8.355      0.000      0.000
REMARK INTER + INTRA:         -11.618
REMARK INTER:                 -10.797
REMARK INTRA:                  -0.821
REMARK UNBOUND:                -0.821
REMARK  Name = 
REMARK  5 active torsions:
REMARK  status: ('A' for Active; 'I' for Inactive)
REMARK    1  A    between atoms: C_2  and  C_3
REMARK    2  A    between atoms: C_6  and  N_7
REMARK    3  A    between atoms: N_7  and  C_8
REMARK    4  A    between atoms: C_8  and  C_9
REMARK    5  A    between atoms: C_13  and  C_14
REMARK                            x       y       z     vdW  Elec       q    Type
REMARK                         _______ _______ _______ _____ _____    ______ ____
ROOT
ATOM      1  C   UNL     1      43.876   5.019  11.185  0.00  0.00    +0.000 C 
ATOM      2  C   UNL     1      42.594   5.128  12.001  0.00  0.00    +0.000 C 
ATOM      3  C   UNL     1      43.002   6.248  11.101  0.00  0.00    +0.000 C 
ENDROOT
BRANCH   1   4
ATOM      4  C   UNL     1      45.222   5.112  11.882  0.00  0.00    +0.000 A 
ATOM      5  C   UNL     1      45.561   4.296  12.971  0.00  0.00    +0.000 A 
ATOM      6  C   UNL     1      46.700   4.552  13.732  0.00  0.00    +0.000 A 
ATOM      7  C   UNL     1      47.514   5.644  13.425  0.00  0.00    +0.000 A 
ATOM      8  C   UNL     1      47.225   6.486  12.339  0.00  0.00    +0.000 A 
ATOM      9  C   UNL     1      46.101   6.165  11.560  0.00  0.00    +0.000 A 
BRANCH   8  10
ATOM     10  C   UNL     1      47.992   7.724  12.079  0.00  0.00    +0.000 A 
ATOM     11  C   UNL     1      49.363   7.699  11.765  0.00  0.00    +0.000 A 
ATOM     12  C   UNL     1      50.062   8.869  11.455  0.00  0.00    +0.000 A 
ATOM     13  C   UNL     1      49.407  10.097  11.467  0.00  0.00    +0.000 A 
ATOM     14  C   UNL     1      48.052  10.152  11.776  0.00  0.00    +0.000 A 
ATOM     15  C   UNL     1      47.353   8.978  12.070  0.00  0.00    +0.000 A 
ENDBRANCH   8  10
ENDBRANCH   1   4
BRANCH   1  16
ATOM     16  N   UNL     1      43.829   3.894  10.230  0.00  0.00    +0.000 N 
ATOM     17  H   UNL     1      43.378   3.066  10.620  0.00  0.00    +0.000 HD
BRANCH  16  21
ATOM     18  C   UNL     1      46.639   2.601   7.519  0.00  0.00    +0.000 A 
ATOM     19  N   UNL     1      46.392   3.926   7.525  0.00  0.00    +0.000 NA
ATOM     20  C   UNL     1      45.498   4.351   8.448  0.00  0.00    +0.000 A 
ATOM     21  C   UNL     1      44.861   3.529   9.357  0.00  0.00    +0.000 A 
ATOM     22  C   UNL     1      45.209   2.190   9.233  0.00  0.00    +0.000 A 
ATOM     23  N   UNL     1      46.089   1.692   8.342  0.00  0.00    +0.000 NA
BRANCH  18  25
ATOM     24  N   UNL     1      48.247   1.691   5.683  0.00  0.00    +0.000 NA
ATOM     25  C   UNL     1      47.524   2.093   6.501  0.00  0.00    +0.000 C 
ENDBRANCH  18  25
ENDBRANCH  16  21
ENDBRANCH   1  16
TORSDOF 5
ENDMDL
MODEL 2
REMARK VINA RESULT:    -8.188      3.098      6.826
REMARK INTER + INTRA:         -11.402
REMARK INTER:                 -10.431
REMARK INTRA:                  -0.971
REMARK UNBOUND:                -0.821
REMARK  Name = 
REMARK  5 active torsions:
REMARK  status: ('A' for Active; 'I' for Inactive)
REMARK    1  A    between atoms: C_2  and  C_3
REMARK    2  A    between atoms: C_6  and  N_7
REMARK    3  A    between atoms: N_7  and  C_8
REMARK    4  A    between atoms: C_8  and  C_9
REMARK    5  A    between atoms: C_13  and  C_14
REMARK                            x       y       z     vdW  Elec       q    Type
REMARK                         _______ _______ _______ _____ _____    ______ ____
ROOT
ATOM      1  C   UNL     1      46.035   7.206  12.112  0.00  0.00    +0.000 C 
ATOM      2  C   UNL     1      46.248   8.642  11.652  0.00  0.00    +0.000 C 
ATOM      3  C   UNL     1      45.442   8.365  12.877  0.00  0.00    +0.000 C 
ENDROOT
BRANCH   1   4
ATOM      4  C   UNL     1      45.116   6.291  11.321  0.00  0.00    +0.000 A 
ATOM      5  C   UNL     1      43.790   6.044  11.707  0.00  0.00    +0.000 A 
ATOM      6  C   UNL     1      43.043   5.034  11.103  0.00  0.00    +0.000 A 
ATOM      7  C   UNL     1      43.619   4.240  10.110  0.00  0.00    +0.000 A 
ATOM      8  C   UNL     1      44.939   4.451   9.681  0.00  0.00    +0.000 A 
ATOM      9  C   UNL     1      45.643   5.514  10.271  0.00  0.00    +0.000 A 
BRANCH   8  10
ATOM     10  C   UNL     1      45.613   3.538   8.732  0.00  0.00    +0.000 A 
ATOM     11  C   UNL     1      46.380   4.016   7.654  0.00  0.00    +0.000 A 
ATOM     12  C   UNL     1      47.067   3.144   6.805  0.00  0.00    +0.000 A 
ATOM     13  C   UNL     1      46.990   1.769   7.005  0.00  0.00    +0.000 A 
ATOM     14  C   UNL     1      46.237   1.268   8.061  0.00  0.00    +0.000 A 
ATOM     15  C   UNL     1      45.564   2.143   8.918  0.00  0.00    +0.000 A 
ENDBRANCH   8  10
ENDBRANCH   1   4
BRANCH   1  16
ATOM     16  N   UNL     1      47.308   6.542  12.455  0.00  0.00    +0.000 N 
ATOM     17  H   UNL     1      47.817   6.219  11.632  0.00  0.00    +0.000 HD
BRANCH  16  21
ATOM     18  C   UNL     1      47.714   4.197  15.811  0.00  0.00    +0.000 A 
ATOM     19  N   UNL     1      47.060   3.636  14.774  0.00  0.00    +0.000 NA
ATOM     20  C   UNL     1      46.966   4.396  13.659  0.00  0.00    +0.000 A 
ATOM     21  C   UNL     1      47.499   5.663  13.530  0.00  0.00    +0.000 A 
ATOM     22  C   UNL     1      48.143   6.115  14.674  0.00  0.00    +0.000 A 
ATOM     23  N   UNL     1      48.276   5.418  15.820  0.00  0.00    +0.000 NA
BRANCH  18  25
ATOM     24  N   UNL     1      47.824   2.862  18.044  0.00  0.00    +0.000 NA
ATOM     25  C   UNL     1      47.769   3.455  17.045  0.00  0.00    +0.000 C 
ENDBRANCH  18  25
ENDBRANCH  16  21
ENDBRANCH   1  16
TORSDOF 5
ENDMDL
MODEL 3
REMARK VINA RESULT:    -7.384      1.847      3.813
REMARK INTER + INTRA:         -10.363
REMARK INTER:                  -9.861
REMARK INTRA:                  -0.502
REMARK UNBOUND:                -0.821
REMARK  Name = 
REMARK  5 active torsions:
REMARK  status: ('A' for Active; 'I' for Inactive)
REMARK    1  A    between atoms: C_2  and  C_3
REMARK    2  A    between atoms: C_6  and  N_7
REMARK    3  A    between atoms: N_7  and  C_8
REMARK    4  A    between atoms: C_8  and  C_9
REMARK    5  A    between atoms: C_13  and  C_14
REMARK                            x       y       z     vdW  Elec       q    Type
REMARK                         _______ _______ _______ _____ _____    ______ ____
ROOT
ATOM      1  C   UNL     1      44.088   5.008  11.809  0.00  0.00    +0.000 C 
ATOM      2  C   UNL     1      42.793   5.072  12.608  0.00  0.00    +0.000 C 
ATOM      3  C   UNL     1      42.958   5.917  11.389  0.00  0.00    +0.000 C 
ENDROOT
BRANCH   1   4
ATOM      4  C   UNL     1      45.357   5.617  12.381  0.00  0.00    +0.000 A 
ATOM      5  C   UNL     1      46.178   6.477  11.637  0.00  0.00    +0.000 A 
ATOM      6  C   UNL     1      47.442   6.838  12.097  0.00  0.00    +0.000 A 
ATOM      7  C   UNL     1      47.915   6.329  13.308  0.00  0.00    +0.000 A 
ATOM      8  C   UNL     1      47.129   5.473  14.096  0.00  0.00    +0.000 A 
ATOM      9  C   UNL     1      45.838   5.176  13.628  0.00  0.00    +0.000 A 
BRANCH   8  10
ATOM     10  C   UNL     1      47.660   4.815  15.311  0.00  0.00    +0.000 A 
ATOM     11  C   UNL     1      47.555   3.426  15.512  0.00  0.00    +0.000 A 
ATOM     12  C   UNL     1      48.120   2.807  16.630  0.00  0.00    +0.000 A 
ATOM     13  C   UNL     1      48.792   3.566  17.584  0.00  0.00    +0.000 A 
ATOM     14  C   UNL     1      48.909   4.941  17.412  0.00  0.00    +0.000 A 
ATOM     15  C   UNL     1      48.356   5.555  16.284  0.00  0.00    +0.000 A 
ENDBRANCH   8  10
ENDBRANCH   1   4
BRANCH   1  16
ATOM     16  N   UNL     1      44.328   3.661  11.253  0.00  0.00    +0.000 N 
ATOM     17  H   UNL     1      44.742   3.024  11.933  0.00  0.00    +0.000 HD
BRANCH  16  21
ATOM     18  C   UNL     1      45.997   3.086   7.538  0.00  0.00    +0.000 A 
ATOM     19  N   UNL     1      45.826   1.978   8.286  0.00  0.00    +0.000 NA
ATOM     20  C   UNL     1      45.238   2.167   9.490  0.00  0.00    +0.000 A 
ATOM     21  C   UNL     1      44.808   3.390   9.965  0.00  0.00    +0.000 A 
ATOM     22  C   UNL     1      45.049   4.443   9.091  0.00  0.00    +0.000 A 
ATOM     23  N   UNL     1      45.629   4.332   7.880  0.00  0.00    +0.000 NA
BRANCH  18  25
ATOM     24  N   UNL     1      47.249   2.839   5.268  0.00  0.00    +0.000 NA
ATOM     25  C   UNL     1      46.690   2.942   6.283  0.00  0.00    +0.000 C 
ENDBRANCH  18  25
ENDBRANCH  16  21
ENDBRANCH   1  16
TORSDOF 5
ENDMDL
MODEL 4
REMARK VINA RESULT:    -6.782      1.676      2.659
REMARK INTER + INTRA:          -9.585
REMARK INTER:                  -8.673
REMARK INTRA:                  -0.911
REMARK UNBOUND:                -0.821
REMARK  Name = 
REMARK  5 active torsions:
REMARK  status: ('A' for Active; 'I' for Inactive)
REMARK    1  A    between atoms: C_2  and  C_3
REMARK    2  A    between atoms: C_6  and  N_7
REMARK    3  A    between atoms: N_7  and  C_8
REMARK    4  A    between atoms: C_8  and  C_9
REMARK    5  A    between atoms: C_13  and  C_14
REMARK                            x       y       z     vdW  Elec       q    Type
REMARK                         _______ _______ _______ _____ _____    ______ ____
ROOT
ATOM      1  C   UNL     1      43.981   5.488  11.974  0.00  0.00    +0.000 C 
ATOM      2  C   UNL     1      42.975   5.017  13.017  0.00  0.00    +0.000 C 
ATOM      3  C   UNL     1      42.497   5.524  11.697  0.00  0.00    +0.000 C 
ENDROOT
BRANCH   1   4
ATOM      4  C   UNL     1      44.728   6.793  12.185  0.00  0.00    +0.000 A 
ATOM      5  C   UNL     1      44.354   7.984  11.545  0.00  0.00    +0.000 A 
ATOM      6  C   UNL     1      45.181   9.105  11.573  0.00  0.00    +0.000 A 
ATOM      7  C   UNL     1      46.411   9.047  12.231  0.00  0.00    +0.000 A 
ATOM      8  C   UNL     1      46.829   7.883  12.896  0.00  0.00    +0.000 A 
ATOM      9  C   UNL     1      45.944   6.792  12.895  0.00  0.00    +0.000 A 
BRANCH   8  10
ATOM     10  C   UNL     1      48.182   7.755  13.481  0.00  0.00    +0.000 A 
ATOM     11  C   UNL     1      49.311   8.343  12.882  0.00  0.00    +0.000 A 
ATOM     12  C   UNL     1      50.573   8.273  13.480  0.00  0.00    +0.000 A 
ATOM     13  C   UNL     1      50.738   7.596  14.685  0.00  0.00    +0.000 A 
ATOM     14  C   UNL     1      49.640   7.003  15.297  0.00  0.00    +0.000 A 
ATOM     15  C   UNL     1      48.376   7.089  14.705  0.00  0.00    +0.000 A 
ENDBRANCH   8  10
ENDBRANCH   1   4
BRANCH   1  16
ATOM     16  N   UNL     1      44.884   4.401  11.547  0.00  0.00    +0.000 N 
ATOM     17  H   UNL     1      45.738   4.358  12.104  0.00  0.00    +0.000 HD
BRANCH  16  21
ATOM     18  C   UNL     1      45.960   3.449   7.693  0.00  0.00    +0.000 A 
ATOM     19  N   UNL     1      45.498   2.430   8.445  0.00  0.00    +0.000 NA
ATOM     20  C   UNL     1      45.107   2.757   9.699  0.00  0.00    +0.000 A 
ATOM     21  C   UNL     1      45.141   4.035  10.220  0.00  0.00    +0.000 A 
ATOM     22  C   UNL     1      45.641   4.983   9.336  0.00  0.00    +0.000 A 
ATOM     23  N   UNL     1      46.050   4.734   8.076  0.00  0.00    +0.000 NA
BRANCH  18  25
ATOM     24  N   UNL     1      46.858   2.884   5.315  0.00  0.00    +0.000 NA
ATOM     25  C   UNL     1      46.463   3.134   6.380  0.00  0.00    +0.000 C 
ENDBRANCH  18  25
ENDBRANCH  16  21
ENDBRANCH   1  16
TORSDOF 5
ENDMDL
MODEL 5
REMARK VINA RESULT:    -6.371      3.270      6.972
REMARK INTER + INTRA:          -9.054
REMARK INTER:                  -8.261
REMARK INTRA:                  -0.793
REMARK UNBOUND:                -0.821
REMARK  Name = 
REMARK  5 active torsions:
REMARK  status: ('A' for Active; 'I' for Inactive)
REMARK    1  A    between atoms: C_2  and  C_3
REMARK    2  A    between atoms: C_6  and  N_7
REMARK    3  A    between atoms: N_7  and  C_8
REMARK    4  A    between atoms: C_8  and  C_9
REMARK    5  A    between atoms: C_13  and  C_14
REMARK                            x       y       z     vdW  Elec       q    Type
REMARK                         _______ _______ _______ _____ _____    ______ ____
ROOT
ATOM      1  C   UNL     1      48.126   7.997  12.548  0.00  0.00    +0.000 C 
ATOM      2  C   UNL     1      49.081   8.820  11.693  0.00  0.00    +0.000 C 
ATOM      3  C   UNL     1      48.462   9.425  12.909  0.00  0.00    +0.000 C 
ENDROOT
BRANCH   1   4
ATOM      4  C   UNL     1      46.738   7.671  12.025  0.00  0.00    +0.000 A 
ATOM      5  C   UNL     1      45.580   8.259  12.553  0.00  0.00    +0.000 A 
ATOM      6  C   UNL     1      44.315   7.781  12.218  0.00  0.00    +0.000 A 
ATOM      7  C   UNL     1      44.188   6.690  11.356  0.00  0.00    +0.000 A 
ATOM      8  C   UNL     1      45.315   6.071  10.791  0.00  0.00    +0.000 A 
ATOM      9  C   UNL     1      46.571   6.616  11.108  0.00  0.00    +0.000 A 
BRANCH   8  10
ATOM     10  C   UNL     1      45.212   4.833   9.988  0.00  0.00    +0.000 A 
ATOM     11  C   UNL     1      45.755   4.737   8.694  0.00  0.00    +0.000 A 
ATOM     12  C   UNL     1      45.711   3.542   7.972  0.00  0.00    +0.000 A 
ATOM     13  C   UNL     1      45.108   2.415   8.522  0.00  0.00    +0.000 A 
ATOM     14  C   UNL     1      44.561   2.481   9.799  0.00  0.00    +0.000 A 
ATOM     15  C   UNL     1      44.621   3.674  10.525  0.00  0.00    +0.000 A 
ENDBRANCH   8  10
ENDBRANCH   1   4
BRANCH   1  16
ATOM     16  N   UNL     1      48.786   6.811  13.129  0.00  0.00    +0.000 N 
ATOM     17  H   UNL     1      49.202   6.207  12.420  0.00  0.00    +0.000 HD
BRANCH  16  21
ATOM     18  C   UNL     1      47.493   4.307  16.124  0.00  0.00    +0.000 A 
ATOM     19  N   UNL     1      48.219   5.372  16.519  0.00  0.00    +0.000 NA
ATOM     20  C   UNL     1      48.606   6.215  15.533  0.00  0.00    +0.000 A 
ATOM     21  C   UNL     1      48.294   6.052  14.198  0.00  0.00    +0.000 A 
ATOM     22  C   UNL     1      47.543   4.912  13.937  0.00  0.00    +0.000 A 
ATOM     23  N   UNL     1      47.123   4.029  14.863  0.00  0.00    +0.000 NA
BRANCH  18  25
ATOM     24  N   UNL     1      46.822   2.569  17.944  0.00  0.00    +0.000 NA
ATOM     25  C   UNL     1      47.127   3.341  17.129  0.00  0.00    +0.000 C 
ENDBRANCH  18  25
ENDBRANCH  16  21
ENDBRANCH   1  16
TORSDOF 5
ENDMDL
MODEL 6
REMARK VINA RESULT:    -6.319      5.763      8.353
REMARK INTER + INTRA:          -8.987
REMARK INTER:                  -8.408
REMARK INTRA:                  -0.579
REMARK UNBOUND:                -0.821
REMARK  Name = 
REMARK  5 active torsions:
REMARK  status: ('A' for Active; 'I' for Inactive)
REMARK    1  A    between atoms: C_2  and  C_3
REMARK    2  A    between atoms: C_6  and  N_7
REMARK    3  A    between atoms: N_7  and  C_8
REMARK    4  A    between atoms: C_8  and  C_9
REMARK    5  A    between atoms: C_13  and  C_14
REMARK                            x       y       z     vdW  Elec       q    Type
REMARK                         _______ _______ _______ _____ _____    ______ ____
ROOT
ATOM      1  C   UNL     1      48.157   4.457  17.000  0.00  0.00    +0.000 C 
ATOM      2  C   UNL     1      47.195   4.772  18.138  0.00  0.00    +0.000 C 
ATOM      3  C   UNL     1      47.170   3.426  17.493  0.00  0.00    +0.000 C 
ENDROOT
BRANCH   1   4
ATOM      4  C   UNL     1      47.945   5.095  15.637  0.00  0.00    +0.000 A 
ATOM      5  C   UNL     1      48.585   6.284  15.258  0.00  0.00    +0.000 A 
ATOM      6  C   UNL     1      48.206   6.967  14.104  0.00  0.00    +0.000 A 
ATOM      7  C   UNL     1      47.163   6.477  13.316  0.00  0.00    +0.000 A 
ATOM      8  C   UNL     1      46.497   5.286  13.645  0.00  0.00    +0.000 A 
ATOM      9  C   UNL     1      46.944   4.595  14.783  0.00  0.00    +0.000 A 
BRANCH   8  10
ATOM     10  C   UNL     1      45.303   4.823  12.903  0.00  0.00    +0.000 A 
ATOM     11  C   UNL     1      45.291   3.606  12.197  0.00  0.00    +0.000 A 
ATOM     12  C   UNL     1      44.136   3.146  11.557  0.00  0.00    +0.000 A 
ATOM     13  C   UNL     1      42.969   3.903  11.595  0.00  0.00    +0.000 A 
ATOM     14  C   UNL     1      42.953   5.111  12.283  0.00  0.00    +0.000 A 
ATOM     15  C   UNL     1      44.105   5.560  12.936  0.00  0.00    +0.000 A 
ENDBRANCH   8  10
ENDBRANCH   1   4
BRANCH   1  16
ATOM     16  N   UNL     1      49.567   4.537  17.430  0.00  0.00    +0.000 N 
ATOM     17  H   UNL     1      50.015   5.409  17.148  0.00  0.00    +0.000 HD
BRANCH  16  21
ATOM     18  C   UNL     1      52.291   1.466  17.687  0.00  0.00    +0.000 A 
ATOM     19  N   UNL     1      51.103   1.156  17.129  0.00  0.00    +0.000 NA
ATOM     20  C   UNL     1      50.227   2.180  17.009  0.00  0.00    +0.000 A 
ATOM     21  C   UNL     1      50.484   3.479  17.401  0.00  0.00    +0.000 A 
ATOM     22  C   UNL     1      51.744   3.652  17.960  0.00  0.00    +0.000 A 
ATOM     23  N   UNL     1      52.667   2.683  18.113  0.00  0.00    +0.000 NA
BRANCH  18  25
ATOM     24  N   UNL     1      53.985  -0.470  18.092  0.00  0.00    +0.000 NA
ATOM     25  C   UNL     1      53.224   0.390  17.908  0.00  0.00    +0.000 C 
ENDBRANCH  18  25
ENDBRANCH  16  21
ENDBRANCH   1  16
TORSDOF 5
ENDMDL
MODEL 7
REMARK VINA RESULT:    -6.083      3.150      6.118
REMARK INTER + INTRA:          -8.681
REMARK INTER:                  -7.851
REMARK INTRA:                  -0.831
REMARK UNBOUND:                -0.821
REMARK  Name = 
REMARK  5 active torsions:
REMARK  status: ('A' for Active; 'I' for Inactive)
REMARK    1  A    between atoms: C_2  and  C_3
REMARK    2  A    between atoms: C_6  and  N_7
REMARK    3  A    between atoms: N_7  and  C_8
REMARK    4  A    between atoms: C_8  and  C_9
REMARK    5  A    between atoms: C_13  and  C_14
REMARK                            x       y       z     vdW  Elec       q    Type
REMARK                         _______ _______ _______ _____ _____    ______ ____
ROOT
ATOM      1  C   UNL     1      48.131   7.955  12.536  0.00  0.00    +0.000 C 
ATOM      2  C   UNL     1      49.075   8.879  11.777  0.00  0.00    +0.000 C 
ATOM      3  C   UNL     1      49.290   7.403  11.741  0.00  0.00    +0.000 C 
ENDROOT
BRANCH   1   4
ATOM      4  C   UNL     1      48.183   7.908  14.053  0.00  0.00    +0.000 A 
ATOM      5  C   UNL     1      48.291   9.066  14.837  0.00  0.00    +0.000 A 
ATOM      6  C   UNL     1      48.564   8.986  16.201  0.00  0.00    +0.000 A 
ATOM      7  C   UNL     1      48.751   7.741  16.803  0.00  0.00    +0.000 A 
ATOM      8  C   UNL     1      48.644   6.551  16.066  0.00  0.00    +0.000 A 
ATOM      9  C   UNL     1      48.311   6.667  14.706  0.00  0.00    +0.000 A 
BRANCH   8  10
ATOM     10  C   UNL     1      48.972   5.232  16.651  0.00  0.00    +0.000 A 
ATOM     11  C   UNL     1      48.074   4.150  16.600  0.00  0.00    +0.000 A 
ATOM     12  C   UNL     1      48.422   2.890  17.095  0.00  0.00    +0.000 A 
ATOM     13  C   UNL     1      49.673   2.687  17.669  0.00  0.00    +0.000 A 
ATOM     14  C   UNL     1      50.580   3.739  17.736  0.00  0.00    +0.000 A 
ATOM     15  C   UNL     1      50.235   4.993  17.225  0.00  0.00    +0.000 A 
ENDBRANCH   8  10
ENDBRANCH   1   4
BRANCH   1  16
ATOM     16  N   UNL     1      46.745   8.051  12.037  0.00  0.00    +0.000 N 
ATOM     17  H   UNL     1      46.268   8.892  12.361  0.00  0.00    +0.000 HD
BRANCH  16  21
ATOM     18  C   UNL     1      44.379   4.702  11.717  0.00  0.00    +0.000 A 
ATOM     19  N   UNL     1      44.160   5.478  12.797  0.00  0.00    +0.000 NA
ATOM     20  C   UNL     1      44.912   6.600  12.876  0.00  0.00    +0.000 A 
ATOM     21  C   UNL     1      45.846   6.982  11.933  0.00  0.00    +0.000 A 
ATOM     22  C   UNL     1      45.967   6.088  10.877  0.00  0.00    +0.000 A 
ATOM     23  N   UNL     1      45.256   4.953  10.731  0.00  0.00    +0.000 NA
BRANCH  18  25
ATOM     24  N   UNL     1      43.075   2.452  11.579  0.00  0.00    +0.000 NA
ATOM     25  C   UNL     1      43.657   3.457  11.634  0.00  0.00    +0.000 C 
ENDBRANCH  18  25
ENDBRANCH  16  21
ENDBRANCH   1  16
TORSDOF 5
ENDMDL
MODEL 8
REMARK VINA RESULT:    -5.897      4.392      8.078
REMARK INTER + INTRA:          -8.441
REMARK INTER:                  -7.760
REMARK INTRA:                  -0.681
REMARK UNBOUND:                -0.821
REMARK  Name = 
REMARK  5 active torsions:
REMARK  status: ('A' for Active; 'I' for Inactive)
REMARK    1  A    between atoms: C_2  and  C_3
REMARK    2  A    between atoms: C_6  and  N_7
REMARK    3  A    between atoms: N_7  and  C_8
REMARK    4  A    between atoms: C_8  and  C_9
REMARK    5  A    between atoms: C_13  and  C_14
REMARK                            x       y       z     vdW  Elec       q    Type
REMARK                         _______ _______ _______ _____ _____    ______ ____
ROOT
ATOM      1  C   UNL     1      48.954   7.813  12.557  0.00  0.00    +0.000 C 
ATOM      2  C   UNL     1      50.027   7.802  11.476  0.00  0.00    +0.000 C 
ATOM      3  C   UNL     1      49.717   9.067  12.204  0.00  0.00    +0.000 C 
ENDROOT
BRANCH   1   4
ATOM      4  C   UNL     1      47.491   7.699  12.166  0.00  0.00    +0.000 A 
ATOM      5  C   UNL     1      46.492   8.481  12.763  0.00  0.00    +0.000 A 
ATOM      6  C   UNL     1      45.142   8.202  12.556  0.00  0.00    +0.000 A 
ATOM      7  C   UNL     1      44.768   7.121  11.756  0.00  0.00    +0.000 A 
ATOM      8  C   UNL     1      45.729   6.312  11.127  0.00  0.00    +0.000 A 
ATOM      9  C   UNL     1      47.078   6.657  11.313  0.00  0.00    +0.000 A 
BRANCH   8  10
ATOM     10  C   UNL     1      45.360   5.083  10.390  0.00  0.00    +0.000 A 
ATOM     11  C   UNL     1      44.649   4.034  11.000  0.00  0.00    +0.000 A 
ATOM     12  C   UNL     1      44.248   2.908  10.275  0.00  0.00    +0.000 A 
ATOM     13  C   UNL     1      44.563   2.798   8.924  0.00  0.00    +0.000 A 
ATOM     14  C   UNL     1      45.267   3.820   8.296  0.00  0.00    +0.000 A 
ATOM     15  C   UNL     1      45.653   4.952   9.020  0.00  0.00    +0.000 A 
ENDBRANCH   8  10
ENDBRANCH   1   4
BRANCH   1  16
ATOM     16  N   UNL     1      49.293   6.918  13.681  0.00  0.00    +0.000 N 
ATOM     17  H   UNL     1      49.193   5.931  13.441  0.00  0.00    +0.000 HD
BRANCH  16  21
ATOM     18  C   UNL     1      48.578   7.378  17.705  0.00  0.00    +0.000 A 
ATOM     19  N   UNL     1      48.692   8.516  16.992  0.00  0.00    +0.000 NA
ATOM     20  C   UNL     1      48.886   8.359  15.662  0.00  0.00    +0.000 A 
ATOM     21  C   UNL     1      48.954   7.137  15.022  0.00  0.00    +0.000 A 
ATOM     22  C   UNL     1      48.822   6.052  15.879  0.00  0.00    +0.000 A 
ATOM     23  N   UNL     1      48.628   6.130  17.210  0.00  0.00    +0.000 NA
BRANCH  18  25
ATOM     24  N   UNL     1      48.358   7.587  20.292  0.00  0.00    +0.000 NA
ATOM     25  C   UNL     1      48.450   7.497  19.136  0.00  0.00    +0.000 C 
ENDBRANCH  18  25
ENDBRANCH  16  21
ENDBRANCH   1  16
TORSDOF 5
ENDMDL
MODEL 9
REMARK VINA RESULT:    -5.881      4.277      6.121
REMARK INTER + INTRA:          -8.421
REMARK INTER:                  -7.600
REMARK INTRA:                  -0.821
REMARK UNBOUND:                -0.821
REMARK  Name = 
REMARK  5 active torsions:
REMARK  status: ('A' for Active; 'I' for Inactive)
REMARK    1  A    between atoms: C_2  and  C_3
REMARK    2  A    between atoms: C_6  and  N_7
REMARK    3  A    between atoms: N_7  and  C_8
REMARK    4  A    between atoms: C_8  and  C_9
REMARK    5  A    between atoms: C_13  and  C_14
REMARK                            x       y       z     vdW  Elec       q    Type
REMARK                         _______ _______ _______ _____ _____    ______ ____
ROOT
ATOM      1  C   UNL     1      47.899   8.050  13.041  0.00  0.00    +0.000 C 
ATOM      2  C   UNL     1      48.099   9.184  12.044  0.00  0.00    +0.000 C 
ATOM      3  C   UNL     1      48.668   7.834  11.759  0.00  0.00    +0.000 C 
ENDROOT
BRANCH   1   4
ATOM      4  C   UNL     1      48.649   8.068  14.362  0.00  0.00    +0.000 A 
ATOM      5  C   UNL     1      49.705   7.186  14.637  0.00  0.00    +0.000 A 
ATOM      6  C   UNL     1      50.222   7.067  15.926  0.00  0.00    +0.000 A 
ATOM      7  C   UNL     1      49.679   7.820  16.968  0.00  0.00    +0.000 A 
ATOM      8  C   UNL     1      48.628   8.724  16.744  0.00  0.00    +0.000 A 
ATOM      9  C   UNL     1      48.170   8.859  15.423  0.00  0.00    +0.000 A 
BRANCH   8  10
ATOM     10  C   UNL     1      47.947   9.428  17.853  0.00  0.00    +0.000 A 
ATOM     11  C   UNL     1      47.470   8.745  18.987  0.00  0.00    +0.000 A 
ATOM     12  C   UNL     1      46.890   9.430  20.059  0.00  0.00    +0.000 A 
ATOM     13  C   UNL     1      46.759  10.814  20.015  0.00  0.00    +0.000 A 
ATOM     14  C   UNL     1      47.220  11.515  18.905  0.00  0.00    +0.000 A 
ATOM     15  C   UNL     1      47.814  10.829  17.842  0.00  0.00    +0.000 A 
ENDBRANCH   8  10
ENDBRANCH   1   4
BRANCH   1  16
ATOM     16  N   UNL     1      46.472   7.722  13.225  0.00  0.00    +0.000 N 
ATOM     17  H   UNL     1      46.127   7.972  14.152  0.00  0.00    +0.000 HD
BRANCH  16  21
ATOM     18  C   UNL     1      44.448   4.301  12.163  0.00  0.00    +0.000 A 
ATOM     19  N   UNL     1      44.323   5.346  11.321  0.00  0.00    +0.000 NA
ATOM     20  C   UNL     1      45.024   6.455  11.653  0.00  0.00    +0.000 A 
ATOM     21  C   UNL     1      45.842   6.560  12.761  0.00  0.00    +0.000 A 
ATOM     22  C   UNL     1      45.874   5.409  13.539  0.00  0.00    +0.000 A 
ATOM     23  N   UNL     1      45.204   4.270  13.274  0.00  0.00    +0.000 NA
BRANCH  18  25
ATOM     24  N   UNL     1      43.016   2.185  11.661  0.00  0.00    +0.000 NA
ATOM     25  C   UNL     1      43.657   3.128  11.892  0.00  0.00    +0.000 C 
ENDBRANCH  18  25
ENDBRANCH  16  21
ENDBRANCH   1  16
TORSDOF 5
ENDMDL
