MODEL 1
REMARK VINA RESULT:    -8.082      0.000      0.000
REMARK INTER + INTRA:         -12.043
REMARK INTER:                 -10.917
REMARK INTRA:                  -1.126
REMARK UNBOUND:                -1.126
REMARK  Name = 
REMARK  6 active torsions:
REMARK  status: ('A' for Active; 'I' for Inactive)
REMARK    1  A    between atoms: C_2  and  C_25
REMARK    2  A    between atoms: N_3  and  C_4
REMARK    3  A    between atoms: C_4  and  C_5
REMARK    4  A    between atoms: C_8  and  C_9
REMARK    5  A    between atoms: C_9  and  N_10
REMARK    6  A    between atoms: C_11  and  C_13
REMARK                            x       y       z     vdW  Elec       q    Type
REMARK                         _______ _______ _______ _____ _____    ______ ____
ROOT
ATOM      1  C   UNL     1      44.863   5.693  10.832  0.00  0.00    +0.000 A 
ATOM      2  C   UNL     1      44.263   6.195  11.995  0.00  0.00    +0.000 A 
ATOM      3  C   UNL     1      44.984   7.007  12.879  0.00  0.00    +0.000 A 
ATOM      4  C   UNL     1      46.315   7.354  12.609  0.00  0.00    +0.000 A 
ATOM      5  C   UNL     1      46.916   6.846  11.450  0.00  0.00    +0.000 A 
ATOM      6  C   UNL     1      46.195   6.037  10.563  0.00  0.00    +0.000 A 
ENDROOT
BRANCH   1   7
ATOM      7  C   UNL     1      44.082   4.822   9.879  0.00  0.00    +0.000 C 
BRANCH   7  10
ATOM      8  O   UNL     1      44.939   2.167   9.595  0.00  0.00    +0.000 OA
ATOM      9  C   UNL     1      45.282   2.994   8.758  0.00  0.00    +0.000 C 
ATOM     10  N   UNL     1      44.917   4.317   8.817  0.00  0.00    +0.000 N 
ATOM     11  H   UNL     1      45.093   4.916   8.026  0.00  0.00    +0.000 HD
BRANCH   9  12
ATOM     12  C   UNL     1      46.104   2.648   7.612  0.00  0.00    +0.000 A 
ATOM     13  C   UNL     1      46.301   3.288   6.400  0.00  0.00    +0.000 A 
ATOM     14  C   UNL     1      47.226   2.529   5.642  0.00  0.00    +0.000 A 
ATOM     15  C   UNL     1      47.579   1.441   6.404  0.00  0.00    +0.000 A 
ATOM     16  N   UNL     1      46.901   1.521   7.592  0.00  0.00    +0.000 N 
ATOM     17  H   UNL     1      46.965   0.861   8.358  0.00  0.00    +0.000 HD
ENDBRANCH   9  12
ENDBRANCH   7  10
ENDBRANCH   1   7
BRANCH   4  18
ATOM     18  C   UNL     1      47.099   8.238  13.548  0.00  0.00    +0.000 C 
BRANCH  18  19
ATOM     19  N   UNL     1      47.526   7.526  14.726  0.00  0.00    +0.000 N 
ATOM     20  C   UNL     1      48.753   6.912  14.782  0.00  0.00    +0.000 C 
ATOM     21  O   UNL     1      49.555   6.970  13.854  0.00  0.00    +0.000 OA
ATOM     22  H   UNL     1      46.804   7.250  15.384  0.00  0.00    +0.000 HD
BRANCH  20  23
ATOM     23  C   UNL     1      49.088   6.233  16.041  0.00  0.00    +0.000 A 
ATOM     24  C   UNL     1      50.135   6.703  16.824  0.00  0.00    +0.000 A 
ATOM     25  S   UNL     1      50.349   5.830  18.275  0.00  0.00    +0.000 S 
ATOM     26  C   UNL     1      49.086   4.761  17.881  0.00  0.00    +0.000 A 
ATOM     27  N   UNL     1      48.758   3.731  18.708  0.00  0.00    +0.000 NA
ATOM     28  C   UNL     1      47.803   2.979  18.269  0.00  0.00    +0.000 A 
ATOM     29  N   UNL     1      47.142   3.169  17.084  0.00  0.00    +0.000 N 
ATOM     30  C   UNL     1      47.415   4.215  16.236  0.00  0.00    +0.000 A 
ATOM     31  O   UNL     1      46.768   4.388  15.208  0.00  0.00    +0.000 OA
ATOM     32  C   UNL     1      48.494   5.079  16.672  0.00  0.00    +0.000 A 
ATOM     33  H   UNL     1      46.394   2.552  16.803  0.00  0.00    +0.000 HD
ENDBRANCH  20  23
ENDBRANCH  18  19
ENDBRANCH   4  18
TORSDOF 6
ENDMDL
MODEL 2
REMARK VINA RESULT:    -7.391      1.524      1.758
REMARK INTER + INTRA:         -11.110
REMARK INTER:                 -10.164
REMARK INTRA:                  -0.946
REMARK UNBOUND:                -1.126
REMARK  Name = 
REMARK  6 active torsions:
REMARK  status: ('A' for Active; 'I' for Inactive)
REMARK    1  A    between atoms: C_2  and  C_25
REMARK    2  A    between atoms: N_3  and  C_4
REMARK    3  A    between atoms: C_4  and  C_5
REMARK    4  A    between atoms: C_8  and  C_9
REMARK    5  A    between atoms: C_9  and  N_10
REMARK    6  A    between atoms: C_11  and  C_13
REMARK                            x       y       z     vdW  Elec       q    Type
REMARK                         _______ _______ _______ _____ _____    ______ ____
ROOT
ATOM      1  C   UNL     1      45.053   6.077  11.276  0.00  0.00    +0.000 A 
ATOM      2  C   UNL     1      46.184   5.622  11.967  0.00  0.00    +0.000 A 
ATOM      3  C   UNL     1      46.945   6.498  12.752  0.00  0.00    +0.000 A 
ATOM      4  C   UNL     1      46.577   7.845  12.882  0.00  0.00    +0.000 A 
ATOM      5  C   UNL     1      45.450   8.300  12.185  0.00  0.00    +0.000 A 
ATOM      6  C   UNL     1      44.687   7.424  11.403  0.00  0.00    +0.000 A 
ENDROOT
BRANCH   1   7
ATOM      7  C   UNL     1      44.234   5.129  10.435  0.00  0.00    +0.000 C 
BRANCH   7  10
ATOM      8  O   UNL     1      44.346   2.394   9.826  0.00  0.00    +0.000 OA
ATOM      9  C   UNL     1      45.012   3.178   9.160  0.00  0.00    +0.000 C 
ATOM     10  N   UNL     1      45.026   4.533   9.388  0.00  0.00    +0.000 N 
ATOM     11  H   UNL     1      45.464   5.144   8.717  0.00  0.00    +0.000 HD
BRANCH   9  12
ATOM     12  C   UNL     1      45.846   2.746   8.052  0.00  0.00    +0.000 A 
ATOM     13  C   UNL     1      46.257   3.403   6.906  0.00  0.00    +0.000 A 
ATOM     14  C   UNL     1      47.084   2.524   6.162  0.00  0.00    +0.000 A 
ATOM     15  C   UNL     1      47.164   1.348   6.869  0.00  0.00    +0.000 A 
ATOM     16  N   UNL     1      46.418   1.490   8.009  0.00  0.00    +0.000 N 
ATOM     17  H   UNL     1      46.295   0.788   8.730  0.00  0.00    +0.000 HD
ENDBRANCH   9  12
ENDBRANCH   7  10
ENDBRANCH   1   7
BRANCH   4  18
ATOM     18  C   UNL     1      47.381   8.797  13.734  0.00  0.00    +0.000 C 
BRANCH  18  19
ATOM     19  N   UNL     1      47.601   8.276  15.059  0.00  0.00    +0.000 N 
ATOM     20  C   UNL     1      48.651   8.709  15.830  0.00  0.00    +0.000 C 
ATOM     21  O   UNL     1      49.425   9.582  15.446  0.00  0.00    +0.000 OA
ATOM     22  H   UNL     1      47.149   7.396  15.290  0.00  0.00    +0.000 HD
BRANCH  20  23
ATOM     23  C   UNL     1      48.766   8.121  17.172  0.00  0.00    +0.000 A 
ATOM     24  C   UNL     1      48.843   8.947  18.286  0.00  0.00    +0.000 A 
ATOM     25  S   UNL     1      48.916   8.098  19.763  0.00  0.00    +0.000 S 
ATOM     26  C   UNL     1      48.901   6.597  18.964  0.00  0.00    +0.000 A 
ATOM     27  N   UNL     1      48.973   5.431  19.661  0.00  0.00    +0.000 NA
ATOM     28  C   UNL     1      48.985   4.369  18.926  0.00  0.00    +0.000 A 
ATOM     29  N   UNL     1      48.926   4.368  17.557  0.00  0.00    +0.000 N 
ATOM     30  C   UNL     1      48.817   5.518  16.812  0.00  0.00    +0.000 A 
ATOM     31  O   UNL     1      48.712   5.480  15.591  0.00  0.00    +0.000 OA
ATOM     32  C   UNL     1      48.818   6.741  17.590  0.00  0.00    +0.000 A 
ATOM     33  H   UNL     1      48.927   3.502  17.039  0.00  0.00    +0.000 HD
ENDBRANCH  20  23
ENDBRANCH  18  19
ENDBRANCH   4  18
TORSDOF 6
ENDMDL
MODEL 3
REMARK VINA RESULT:    -6.947      1.968      2.525
REMARK INTER + INTRA:         -10.510
REMARK INTER:                 -10.093
REMARK INTRA:                  -0.417
REMARK UNBOUND:                -1.126
REMARK  Name = 
REMARK  6 active torsions:
REMARK  status: ('A' for Active; 'I' for Inactive)
REMARK    1  A    between atoms: C_2  and  C_25
REMARK    2  A    between atoms: N_3  and  C_4
REMARK    3  A    between atoms: C_4  and  C_5
REMARK    4  A    between atoms: C_8  and  C_9
REMARK    5  A    between atoms: C_9  and  N_10
REMARK    6  A    between atoms: C_11  and  C_13
REMARK                            x       y       z     vdW  Elec       q    Type
REMARK                         _______ _______ _______ _____ _____    ______ ____
ROOT
ATOM      1  C   UNL     1      45.079   5.169  11.214  0.00  0.00    +0.000 A 
ATOM      2  C   UNL     1      45.138   4.792  12.563  0.00  0.00    +0.000 A 
ATOM      3  C   UNL     1      46.008   5.437  13.450  0.00  0.00    +0.000 A 
ATOM      4  C   UNL     1      46.825   6.489  13.013  0.00  0.00    +0.000 A 
ATOM      5  C   UNL     1      46.770   6.861  11.663  0.00  0.00    +0.000 A 
ATOM      6  C   UNL     1      45.897   6.219  10.776  0.00  0.00    +0.000 A 
ENDROOT
BRANCH   1   7
ATOM      7  C   UNL     1      44.136   4.474  10.264  0.00  0.00    +0.000 C 
BRANCH   7  10
ATOM      8  O   UNL     1      45.726   4.844   7.983  0.00  0.00    +0.000 OA
ATOM      9  C   UNL     1      45.569   3.709   8.419  0.00  0.00    +0.000 C 
ATOM     10  N   UNL     1      44.803   3.430   9.525  0.00  0.00    +0.000 N 
ATOM     11  H   UNL     1      44.835   2.508   9.931  0.00  0.00    +0.000 HD
BRANCH   9  12
ATOM     12  C   UNL     1      46.189   2.547   7.809  0.00  0.00    +0.000 A 
ATOM     13  C   UNL     1      46.971   2.417   6.674  0.00  0.00    +0.000 A 
ATOM     14  C   UNL     1      47.335   1.054   6.539  0.00  0.00    +0.000 A 
ATOM     15  C   UNL     1      46.772   0.377   7.595  0.00  0.00    +0.000 A 
ATOM     16  N   UNL     1      46.085   1.284   8.358  0.00  0.00    +0.000 N 
ATOM     17  H   UNL     1      45.572   1.078   9.207  0.00  0.00    +0.000 HD
ENDBRANCH   9  12
ENDBRANCH   7  10
ENDBRANCH   1   7
BRANCH   4  18
ATOM     18  C   UNL     1      47.759   7.201  13.961  0.00  0.00    +0.000 C 
BRANCH  18  19
ATOM     19  N   UNL     1      47.850   6.528  15.232  0.00  0.00    +0.000 N 
ATOM     20  C   UNL     1      49.065   6.282  15.823  0.00  0.00    +0.000 C 
ATOM     21  O   UNL     1      50.122   6.654  15.320  0.00  0.00    +0.000 OA
ATOM     22  H   UNL     1      47.038   5.997  15.531  0.00  0.00    +0.000 HD
BRANCH  20  23
ATOM     23  C   UNL     1      49.034   5.607  17.128  0.00  0.00    +0.000 A 
ATOM     24  C   UNL     1      48.757   4.248  17.198  0.00  0.00    +0.000 A 
ATOM     25  S   UNL     1      48.816   3.619  18.783  0.00  0.00    +0.000 S 
ATOM     26  C   UNL     1      49.160   5.151  19.437  0.00  0.00    +0.000 A 
ATOM     27  N   UNL     1      49.308   5.324  20.778  0.00  0.00    +0.000 NA
ATOM     28  C   UNL     1      49.533   6.544  21.137  0.00  0.00    +0.000 A 
ATOM     29  N   UNL     1      49.632   7.605  20.276  0.00  0.00    +0.000 N 
ATOM     30  C   UNL     1      49.525   7.474  18.912  0.00  0.00    +0.000 A 
ATOM     31  O   UNL     1      49.671   8.435  18.165  0.00  0.00    +0.000 OA
ATOM     32  C   UNL     1      49.251   6.125  18.457  0.00  0.00    +0.000 A 
ATOM     33  H   UNL     1      49.822   8.535  20.619  0.00  0.00    +0.000 HD
ENDBRANCH  20  23
ENDBRANCH  18  19
ENDBRANCH   4  18
TORSDOF 6
ENDMDL
MODEL 4
REMARK VINA RESULT:    -6.873      3.864      8.428
REMARK INTER + INTRA:         -10.410
REMARK INTER:                  -9.307
REMARK INTRA:                  -1.103
REMARK UNBOUND:                -1.126
REMARK  Name = 
REMARK  6 active torsions:
REMARK  status: ('A' for Active; 'I' for Inactive)
REMARK    1  A    between atoms: C_2  and  C_25
REMARK    2  A    between atoms: N_3  and  C_4
REMARK    3  A    between atoms: C_4  and  C_5
REMARK    4  A    between atoms: C_8  and  C_9
REMARK    5  A    between atoms: C_9  and  N_10
REMARK    6  A    between atoms: C_11  and  C_13
REMARK                            x       y       z     vdW  Elec       q    Type
REMARK                         _______ _______ _______ _____ _____    ______ ____
ROOT
ATOM      1  C   UNL     1      49.792   4.612  17.557  0.00  0.00    +0.000 A 
ATOM      2  C   UNL     1      50.597   5.657  17.082  0.00  0.00    +0.000 A 
ATOM      3  C   UNL     1      50.142   6.506  16.065  0.00  0.00    +0.000 A 
ATOM      4  C   UNL     1      48.863   6.343  15.516  0.00  0.00    +0.000 A 
ATOM      5  C   UNL     1      48.062   5.294  15.987  0.00  0.00    +0.000 A 
ATOM      6  C   UNL     1      48.514   4.447  17.006  0.00  0.00    +0.000 A 
ENDROOT
BRANCH   1   7
ATOM      7  C   UNL     1      50.285   3.703  18.656  0.00  0.00    +0.000 C 
BRANCH   7  10
ATOM      8  O   UNL     1      50.682   1.245  17.366  0.00  0.00    +0.000 OA
ATOM      9  C   UNL     1      51.659   1.911  17.688  0.00  0.00    +0.000 C 
ATOM     10  N   UNL     1      51.564   3.122  18.328  0.00  0.00    +0.000 N 
ATOM     11  H   UNL     1      52.385   3.697  18.427  0.00  0.00    +0.000 HD
BRANCH   9  12
ATOM     12  C   UNL     1      53.019   1.483  17.411  0.00  0.00    +0.000 A 
ATOM     13  C   UNL     1      54.226   2.154  17.501  0.00  0.00    +0.000 A 
ATOM     14  C   UNL     1      55.261   1.259  17.131  0.00  0.00    +0.000 A 
ATOM     15  C   UNL     1      54.667   0.058  16.825  0.00  0.00    +0.000 A 
ATOM     16  N   UNL     1      53.316   0.199  16.999  0.00  0.00    +0.000 N 
ATOM     17  H   UNL     1      52.620  -0.523  16.855  0.00  0.00    +0.000 HD
ENDBRANCH   9  12
ENDBRANCH   7  10
ENDBRANCH   1   7
BRANCH   4  18
ATOM     18  C   UNL     1      48.355   7.258  14.428  0.00  0.00    +0.000 C 
BRANCH  18  19
ATOM     19  N   UNL     1      47.102   6.801  13.883  0.00  0.00    +0.000 N 
ATOM     20  C   UNL     1      46.867   6.809  12.530  0.00  0.00    +0.000 C 
ATOM     21  O   UNL     1      47.720   7.167  11.723  0.00  0.00    +0.000 OA
ATOM     22  H   UNL     1      46.314   6.748  14.521  0.00  0.00    +0.000 HD
BRANCH  20  23
ATOM     23  C   UNL     1      45.561   6.300  12.089  0.00  0.00    +0.000 A 
ATOM     24  C   UNL     1      44.635   7.168  11.525  0.00  0.00    +0.000 A 
ATOM     25  S   UNL     1      43.198   6.399  11.020  0.00  0.00    +0.000 S 
ATOM     26  C   UNL     1      43.740   4.891  11.587  0.00  0.00    +0.000 A 
ATOM     27  N   UNL     1      42.958   3.782  11.487  0.00  0.00    +0.000 NA
ATOM     28  C   UNL     1      43.482   2.713  11.988  0.00  0.00    +0.000 A 
ATOM     29  N   UNL     1      44.721   2.651  12.571  0.00  0.00    +0.000 N 
ATOM     30  C   UNL     1      45.559   3.735  12.663  0.00  0.00    +0.000 A 
ATOM     31  O   UNL     1      46.683   3.634  13.143  0.00  0.00    +0.000 OA
ATOM     32  C   UNL     1      45.010   4.968  12.133  0.00  0.00    +0.000 A 
ATOM     33  H   UNL     1      45.079   1.779  12.933  0.00  0.00    +0.000 HD
ENDBRANCH  20  23
ENDBRANCH  18  19
ENDBRANCH   4  18
TORSDOF 6
ENDMDL
MODEL 5
REMARK VINA RESULT:    -6.804      2.050      2.528
REMARK INTER + INTRA:         -10.316
REMARK INTER:                  -9.408
REMARK INTRA:                  -0.908
REMARK UNBOUND:                -1.126
REMARK  Name = 
REMARK  6 active torsions:
REMARK  status: ('A' for Active; 'I' for Inactive)
REMARK    1  A    between atoms: C_2  and  C_25
REMARK    2  A    between atoms: N_3  and  C_4
REMARK    3  A    between atoms: C_4  and  C_5
REMARK    4  A    between atoms: C_8  and  C_9
REMARK    5  A    between atoms: C_9  and  N_10
REMARK    6  A    between atoms: C_11  and  C_13
REMARK                            x       y       z     vdW  Elec       q    Type
REMARK                         _______ _______ _______ _____ _____    ______ ____
ROOT
ATOM      1  C   UNL     1      45.327   5.967  11.583  0.00  0.00    +0.000 A 
ATOM      2  C   UNL     1      45.290   7.368  11.614  0.00  0.00    +0.000 A 
ATOM      3  C   UNL     1      46.110   8.088  12.492  0.00  0.00    +0.000 A 
ATOM      4  C   UNL     1      47.002   7.423  13.344  0.00  0.00    +0.000 A 
ATOM      5  C   UNL     1      47.033   6.022  13.318  0.00  0.00    +0.000 A 
ATOM      6  C   UNL     1      46.217   5.302  12.437  0.00  0.00    +0.000 A 
ENDROOT
BRANCH   1   7
ATOM      7  C   UNL     1      44.445   5.197  10.632  0.00  0.00    +0.000 C 
BRANCH   7  10
ATOM      8  O   UNL     1      43.983   2.590   9.707  0.00  0.00    +0.000 OA
ATOM      9  C   UNL     1      44.915   3.231   9.234  0.00  0.00    +0.000 C 
ATOM     10  N   UNL     1      45.222   4.510   9.629  0.00  0.00    +0.000 N 
ATOM     11  H   UNL     1      45.894   5.044   9.101  0.00  0.00    +0.000 HD
BRANCH   9  12
ATOM     12  C   UNL     1      45.781   2.697   8.199  0.00  0.00    +0.000 A 
ATOM     13  C   UNL     1      46.294   3.271   7.049  0.00  0.00    +0.000 A 
ATOM     14  C   UNL     1      47.106   2.311   6.396  0.00  0.00    +0.000 A 
ATOM     15  C   UNL     1      47.076   1.168   7.160  0.00  0.00    +0.000 A 
ATOM     16  N   UNL     1      46.278   1.410   8.247  0.00  0.00    +0.000 N 
ATOM     17  H   UNL     1      46.073   0.753   8.991  0.00  0.00    +0.000 HD
ENDBRANCH   9  12
ENDBRANCH   7  10
ENDBRANCH   1   7
BRANCH   4  18
ATOM     18  C   UNL     1      47.900   8.186  14.288  0.00  0.00    +0.000 C 
BRANCH  18  19
ATOM     19  N   UNL     1      48.445   7.336  15.316  0.00  0.00    +0.000 N 
ATOM     20  C   UNL     1      48.560   7.770  16.613  0.00  0.00    +0.000 C 
ATOM     21  O   UNL     1      48.173   8.882  16.965  0.00  0.00    +0.000 OA
ATOM     22  H   UNL     1      48.994   6.538  15.011  0.00  0.00    +0.000 HD
BRANCH  20  23
ATOM     23  C   UNL     1      49.112   6.810  17.579  0.00  0.00    +0.000 A 
ATOM     24  C   UNL     1      48.359   6.427  18.681  0.00  0.00    +0.000 A 
ATOM     25  S   UNL     1      49.130   5.267  19.666  0.00  0.00    +0.000 S 
ATOM     26  C   UNL     1      50.519   5.277  18.684  0.00  0.00    +0.000 A 
ATOM     27  N   UNL     1      51.598   4.507  18.990  0.00  0.00    +0.000 NA
ATOM     28  C   UNL     1      52.594   4.638  18.178  0.00  0.00    +0.000 A 
ATOM     29  N   UNL     1      52.604   5.463  17.083  0.00  0.00    +0.000 N 
ATOM     30  C   UNL     1      51.526   6.231  16.716  0.00  0.00    +0.000 A 
ATOM     31  O   UNL     1      51.548   6.918  15.700  0.00  0.00    +0.000 OA
ATOM     32  C   UNL     1      50.387   6.136  17.607  0.00  0.00    +0.000 A 
ATOM     33  H   UNL     1      53.411   5.511  16.479  0.00  0.00    +0.000 HD
ENDBRANCH  20  23
ENDBRANCH  18  19
ENDBRANCH   4  18
TORSDOF 6
ENDMDL
MODEL 6
REMARK VINA RESULT:    -6.765      3.767      5.113
REMARK INTER + INTRA:         -10.264
REMARK INTER:                  -9.177
REMARK INTRA:                  -1.087
REMARK UNBOUND:                -1.126
REMARK  Name = 
REMARK  6 active torsions:
REMARK  status: ('A' for Active; 'I' for Inactive)
REMARK    1  A    between atoms: C_2  and  C_25
REMARK    2  A    between atoms: N_3  and  C_4
REMARK    3  A    between atoms: C_4  and  C_5
REMARK    4  A    between atoms: C_8  and  C_9
REMARK    5  A    between atoms: C_9  and  N_10
REMARK    6  A    between atoms: C_11  and  C_13
REMARK                            x       y       z     vdW  Elec       q    Type
REMARK                         _______ _______ _______ _____ _____    ______ ____
ROOT
ATOM      1  C   UNL     1      44.810   6.161  11.439  0.00  0.00    +0.000 A 
ATOM      2  C   UNL     1      44.508   7.529  11.484  0.00  0.00    +0.000 A 
ATOM      3  C   UNL     1      45.272   8.407  12.263  0.00  0.00    +0.000 A 
ATOM      4  C   UNL     1      46.370   7.940  12.997  0.00  0.00    +0.000 A 
ATOM      5  C   UNL     1      46.668   6.572  12.958  0.00  0.00    +0.000 A 
ATOM      6  C   UNL     1      45.907   5.694  12.176  0.00  0.00    +0.000 A 
ENDROOT
BRANCH   1   7
ATOM      7  C   UNL     1      43.988   5.220  10.595  0.00  0.00    +0.000 C 
BRANCH   7  10
ATOM      8  O   UNL     1      43.992   2.467  10.061  0.00  0.00    +0.000 OA
ATOM      9  C   UNL     1      44.725   3.199   9.407  0.00  0.00    +0.000 C 
ATOM     10  N   UNL     1      44.796   4.557   9.601  0.00  0.00    +0.000 N 
ATOM     11  H   UNL     1      45.292   5.128   8.935  0.00  0.00    +0.000 HD
BRANCH   9  12
ATOM     12  C   UNL     1      45.586   2.697   8.350  0.00  0.00    +0.000 A 
ATOM     13  C   UNL     1      46.075   3.300   7.204  0.00  0.00    +0.000 A 
ATOM     14  C   UNL     1      46.893   2.364   6.524  0.00  0.00    +0.000 A 
ATOM     15  C   UNL     1      46.890   1.208   7.268  0.00  0.00    +0.000 A 
ATOM     16  N   UNL     1      46.103   1.418   8.369  0.00  0.00    +0.000 N 
ATOM     17  H   UNL     1      45.918   0.745   9.104  0.00  0.00    +0.000 HD
ENDBRANCH   9  12
ENDBRANCH   7  10
ENDBRANCH   1   7
BRANCH   4  18
ATOM     18  C   UNL     1      47.209   8.878  13.831  0.00  0.00    +0.000 C 
BRANCH  18  19
ATOM     19  N   UNL     1      48.514   9.086  13.257  0.00  0.00    +0.000 N 
ATOM     20  C   UNL     1      48.735  10.070  12.326  0.00  0.00    +0.000 C 
ATOM     21  O   UNL     1      47.847  10.841  11.969  0.00  0.00    +0.000 OA
ATOM     22  H   UNL     1      49.179   8.322  13.336  0.00  0.00    +0.000 HD
BRANCH  20  23
ATOM     23  C   UNL     1      50.110  10.202  11.825  0.00  0.00    +0.000 A 
ATOM     24  C   UNL     1      50.708  11.454  11.763  0.00  0.00    +0.000 A 
ATOM     25  S   UNL     1      52.321  11.414  11.209  0.00  0.00    +0.000 S 
ATOM     26  C   UNL     1      52.259   9.730  10.980  0.00  0.00    +0.000 A 
ATOM     27  N   UNL     1      53.329   9.050  10.486  0.00  0.00    +0.000 NA
ATOM     28  C   UNL     1      53.131   7.783  10.334  0.00  0.00    +0.000 A 
ATOM     29  N   UNL     1      51.963   7.134  10.637  0.00  0.00    +0.000 N 
ATOM     30  C   UNL     1      50.870   7.772  11.170  0.00  0.00    +0.000 A 
ATOM     31  O   UNL     1      49.858   7.153  11.480  0.00  0.00    +0.000 OA
ATOM     32  C   UNL     1      51.032   9.202  11.344  0.00  0.00    +0.000 A 
ATOM     33  H   UNL     1      51.876   6.137  10.506  0.00  0.00    +0.000 HD
ENDBRANCH  20  23
ENDBRANCH  18  19
ENDBRANCH   4  18
TORSDOF 6
ENDMDL
MODEL 7
REMARK VINA RESULT:    -6.632      3.173      8.561
REMARK INTER + INTRA:         -10.084
REMARK INTER:                  -9.284
REMARK INTRA:                  -0.800
REMARK UNBOUND:                -1.126
REMARK  Name = 
REMARK  6 active torsions:
REMARK  status: ('A' for Active; 'I' for Inactive)
REMARK    1  A    between atoms: C_2  and  C_25
REMARK    2  A    between atoms: N_3  and  C_4
REMARK    3  A    between atoms: C_4  and  C_5
REMARK    4  A    between atoms: C_8  and  C_9
REMARK    5  A    between atoms: C_9  and  N_10
REMARK    6  A    between atoms: C_11  and  C_13
REMARK                            x       y       z     vdW  Elec       q    Type
REMARK                         _______ _______ _______ _____ _____    ______ ____
ROOT
ATOM      1  C   UNL     1      49.998   7.098  15.649  0.00  0.00    +0.000 A 
ATOM      2  C   UNL     1      48.713   6.545  15.556  0.00  0.00    +0.000 A 
ATOM      3  C   UNL     1      47.949   6.697  14.392  0.00  0.00    +0.000 A 
ATOM      4  C   UNL     1      48.462   7.388  13.286  0.00  0.00    +0.000 A 
ATOM      5  C   UNL     1      49.743   7.947  13.381  0.00  0.00    +0.000 A 
ATOM      6  C   UNL     1      50.509   7.792  14.543  0.00  0.00    +0.000 A 
ENDROOT
BRANCH   1   7
ATOM      7  C   UNL     1      50.819   6.928  16.903  0.00  0.00    +0.000 C 
BRANCH   7  10
ATOM      8  O   UNL     1      49.598   4.796  18.255  0.00  0.00    +0.000 OA
ATOM      9  C   UNL     1      50.670   4.606  17.693  0.00  0.00    +0.000 C 
ATOM     10  N   UNL     1      51.345   5.589  17.012  0.00  0.00    +0.000 N 
ATOM     11  H   UNL     1      52.137   5.343  16.440  0.00  0.00    +0.000 HD
BRANCH   9  12
ATOM     12  C   UNL     1      51.328   3.311  17.686  0.00  0.00    +0.000 A 
ATOM     13  C   UNL     1      50.868   2.053  17.336  0.00  0.00    +0.000 A 
ATOM     14  C   UNL     1      51.931   1.130  17.495  0.00  0.00    +0.000 A 
ATOM     15  C   UNL     1      53.021   1.841  17.937  0.00  0.00    +0.000 A 
ATOM     16  N   UNL     1      52.651   3.156  18.047  0.00  0.00    +0.000 N 
ATOM     17  H   UNL     1      53.248   3.918  18.344  0.00  0.00    +0.000 HD
ENDBRANCH   9  12
ENDBRANCH   7  10
ENDBRANCH   1   7
BRANCH   4  18
ATOM     18  C   UNL     1      47.654   7.549  12.020  0.00  0.00    +0.000 C 
BRANCH  18  19
ATOM     19  N   UNL     1      46.930   6.349  11.689  0.00  0.00    +0.000 N 
ATOM     20  C   UNL     1      45.573   6.260  11.873  0.00  0.00    +0.000 C 
ATOM     21  O   UNL     1      44.909   7.205  12.291  0.00  0.00    +0.000 OA
ATOM     22  H   UNL     1      47.473   5.495  11.592  0.00  0.00    +0.000 HD
BRANCH  20  23
ATOM     23  C   UNL     1      44.939   4.994  11.481  0.00  0.00    +0.000 A 
ATOM     24  C   UNL     1      44.174   4.288  12.400  0.00  0.00    +0.000 A 
ATOM     25  S   UNL     1      43.470   2.872  11.759  0.00  0.00    +0.000 S 
ATOM     26  C   UNL     1      44.207   3.124  10.248  0.00  0.00    +0.000 A 
ATOM     27  N   UNL     1      44.035   2.239   9.228  0.00  0.00    +0.000 NA
ATOM     28  C   UNL     1      44.678   2.538   8.149  0.00  0.00    +0.000 A 
ATOM     29  N   UNL     1      45.471   3.645   7.994  0.00  0.00    +0.000 N 
ATOM     30  C   UNL     1      45.647   4.583   8.983  0.00  0.00    +0.000 A 
ATOM     31  O   UNL     1      46.321   5.589   8.794  0.00  0.00    +0.000 OA
ATOM     32  C   UNL     1      44.961   4.285  10.225  0.00  0.00    +0.000 A 
ATOM     33  H   UNL     1      45.939   3.828   7.119  0.00  0.00    +0.000 HD
ENDBRANCH  20  23
ENDBRANCH  18  19
ENDBRANCH   4  18
TORSDOF 6
ENDMDL
MODEL 8
REMARK VINA RESULT:    -6.614      3.513      8.266
REMARK INTER + INTRA:         -10.059
REMARK INTER:                  -9.189
REMARK INTRA:                  -0.870
REMARK UNBOUND:                -1.126
REMARK  Name = 
REMARK  6 active torsions:
REMARK  status: ('A' for Active; 'I' for Inactive)
REMARK    1  A    between atoms: C_2  and  C_25
REMARK    2  A    between atoms: N_3  and  C_4
REMARK    3  A    between atoms: C_4  and  C_5
REMARK    4  A    between atoms: C_8  and  C_9
REMARK    5  A    between atoms: C_9  and  N_10
REMARK    6  A    between atoms: C_11  and  C_13
REMARK                            x       y       z     vdW  Elec       q    Type
REMARK                         _______ _______ _______ _____ _____    ______ ____
ROOT
ATOM      1  C   UNL     1      49.847   6.600  16.387  0.00  0.00    +0.000 A 
ATOM      2  C   UNL     1      48.647   6.125  15.840  0.00  0.00    +0.000 A 
ATOM      3  C   UNL     1      48.245   6.506  14.553  0.00  0.00    +0.000 A 
ATOM      4  C   UNL     1      49.046   7.353  13.775  0.00  0.00    +0.000 A 
ATOM      5  C   UNL     1      50.242   7.833  14.325  0.00  0.00    +0.000 A 
ATOM      6  C   UNL     1      50.647   7.450  15.610  0.00  0.00    +0.000 A 
ENDROOT
BRANCH   1   7
ATOM      7  C   UNL     1      50.278   6.184  17.771  0.00  0.00    +0.000 C 
BRANCH   7  10
ATOM      8  O   UNL     1      49.470   3.504  17.936  0.00  0.00    +0.000 OA
ATOM      9  C   UNL     1      50.663   3.758  17.813  0.00  0.00    +0.000 C 
ATOM     10  N   UNL     1      51.153   5.038  17.730  0.00  0.00    +0.000 N 
ATOM     11  H   UNL     1      52.116   5.185  17.473  0.00  0.00    +0.000 HD
BRANCH   9  12
ATOM     12  C   UNL     1      51.676   2.720  17.732  0.00  0.00    +0.000 A 
ATOM     13  C   UNL     1      51.577   1.363  17.482  0.00  0.00    +0.000 A 
ATOM     14  C   UNL     1      52.883   0.812  17.496  0.00  0.00    +0.000 A 
ATOM     15  C   UNL     1      53.755   1.843  17.752  0.00  0.00    +0.000 A 
ATOM     16  N   UNL     1      53.020   2.991  17.890  0.00  0.00    +0.000 N 
ATOM     17  H   UNL     1      53.392   3.915  18.077  0.00  0.00    +0.000 HD
ENDBRANCH   9  12
ENDBRANCH   7  10
ENDBRANCH   1   7
BRANCH   4  18
ATOM     18  C   UNL     1      48.631   7.761  12.382  0.00  0.00    +0.000 C 
BRANCH  18  19
ATOM     19  N   UNL     1      47.849   6.740  11.734  0.00  0.00    +0.000 N 
ATOM     20  C   UNL     1      46.483   6.841  11.637  0.00  0.00    +0.000 C 
ATOM     21  O   UNL     1      45.870   7.817  12.062  0.00  0.00    +0.000 OA
ATOM     22  H   UNL     1      48.287   5.832  11.612  0.00  0.00    +0.000 HD
BRANCH  20  23
ATOM     23  C   UNL     1      45.793   5.749  10.937  0.00  0.00    +0.000 A 
ATOM     24  C   UNL     1      45.906   5.630   9.558  0.00  0.00    +0.000 A 
ATOM     25  S   UNL     1      45.086   4.277   8.920  0.00  0.00    +0.000 S 
ATOM     26  C   UNL     1      44.506   3.834  10.456  0.00  0.00    +0.000 A 
ATOM     27  N   UNL     1      43.698   2.752  10.615  0.00  0.00    +0.000 NA
ATOM     28  C   UNL     1      43.306   2.552  11.829  0.00  0.00    +0.000 A 
ATOM     29  N   UNL     1      43.656   3.332  12.900  0.00  0.00    +0.000 N 
ATOM     30  C   UNL     1      44.498   4.413  12.794  0.00  0.00    +0.000 A 
ATOM     31  O   UNL     1      44.834   5.059  13.780  0.00  0.00    +0.000 OA
ATOM     32  C   UNL     1      44.951   4.693  11.446  0.00  0.00    +0.000 A 
ATOM     33  H   UNL     1      43.326   3.115  13.829  0.00  0.00    +0.000 HD
ENDBRANCH  20  23
ENDBRANCH  18  19
ENDBRANCH   4  18
TORSDOF 6
ENDMDL
MODEL 9
REMARK VINA RESULT:    -6.296      3.050      4.489
REMARK INTER + INTRA:          -9.630
REMARK INTER:                  -8.707
REMARK INTRA:                  -0.922
REMARK UNBOUND:                -1.126
REMARK  Name = 
REMARK  6 active torsions:
REMARK  status: ('A' for Active; 'I' for Inactive)
REMARK    1  A    between atoms: C_2  and  C_25
REMARK    2  A    between atoms: N_3  and  C_4
REMARK    3  A    between atoms: C_4  and  C_5
REMARK    4  A    between atoms: C_8  and  C_9
REMARK    5  A    between atoms: C_9  and  N_10
REMARK    6  A    between atoms: C_11  and  C_13
REMARK                            x       y       z     vdW  Elec       q    Type
REMARK                         _______ _______ _______ _____ _____    ______ ____
ROOT
ATOM      1  C   UNL     1      45.260   5.113  11.148  0.00  0.00    +0.000 A 
ATOM      2  C   UNL     1      45.294   4.310  12.297  0.00  0.00    +0.000 A 
ATOM      3  C   UNL     1      46.080   4.670  13.399  0.00  0.00    +0.000 A 
ATOM      4  C   UNL     1      46.832   5.852  13.386  0.00  0.00    +0.000 A 
ATOM      5  C   UNL     1      46.803   6.650  12.236  0.00  0.00    +0.000 A 
ATOM      6  C   UNL     1      46.014   6.294  11.134  0.00  0.00    +0.000 A 
ENDROOT
BRANCH   1   7
ATOM      7  C   UNL     1      44.408   4.725   9.966  0.00  0.00    +0.000 C 
BRANCH   7  10
ATOM      8  O   UNL     1      45.267   2.097   9.491  0.00  0.00    +0.000 OA
ATOM      9  C   UNL     1      45.584   2.978   8.699  0.00  0.00    +0.000 C 
ATOM     10  N   UNL     1      45.216   4.292   8.851  0.00  0.00    +0.000 N 
ATOM     11  H   UNL     1      45.369   4.941   8.096  0.00  0.00    +0.000 HD
BRANCH   9  12
ATOM     12  C   UNL     1      46.376   2.709   7.511  0.00  0.00    +0.000 A 
ATOM     13  C   UNL     1      47.253   1.682   7.209  0.00  0.00    +0.000 A 
ATOM     14  C   UNL     1      47.745   1.889   5.897  0.00  0.00    +0.000 A 
ATOM     15  C   UNL     1      47.157   3.037   5.420  0.00  0.00    +0.000 A 
ATOM     16  N   UNL     1      46.331   3.524   6.398  0.00  0.00    +0.000 N 
ATOM     17  H   UNL     1      45.758   4.357   6.330  0.00  0.00    +0.000 HD
ENDBRANCH   9  12
ENDBRANCH   7  10
ENDBRANCH   1   7
BRANCH   4  18
ATOM     18  C   UNL     1      47.674   6.257  14.572  0.00  0.00    +0.000 C 
BRANCH  18  19
ATOM     19  N   UNL     1      48.932   6.831  14.166  0.00  0.00    +0.000 N 
ATOM     20  C   UNL     1      49.251   8.133  14.463  0.00  0.00    +0.000 C 
ATOM     21  O   UNL     1      48.502   8.855  15.115  0.00  0.00    +0.000 OA
ATOM     22  H   UNL     1      49.439   6.354  13.427  0.00  0.00    +0.000 HD
BRANCH  20  23
ATOM     23  C   UNL     1      50.569   8.603  14.016  0.00  0.00    +0.000 A 
ATOM     24  C   UNL     1      51.401   9.276  14.901  0.00  0.00    +0.000 A 
ATOM     25  S   UNL     1      52.912   9.700  14.231  0.00  0.00    +0.000 S 
ATOM     26  C   UNL     1      52.486   9.047  12.719  0.00  0.00    +0.000 A 
ATOM     27  N   UNL     1      53.343   9.107  11.664  0.00  0.00    +0.000 NA
ATOM     28  C   UNL     1      52.878   8.602  10.570  0.00  0.00    +0.000 A 
ATOM     29  N   UNL     1      51.636   8.037  10.438  0.00  0.00    +0.000 N 
ATOM     30  C   UNL     1      50.752   7.923  11.483  0.00  0.00    +0.000 A 
ATOM     31  O   UNL     1      49.670   7.364  11.345  0.00  0.00    +0.000 OA
ATOM     32  C   UNL     1      51.218   8.493  12.732  0.00  0.00    +0.000 A 
ATOM     33  H   UNL     1      51.336   7.648   9.557  0.00  0.00    +0.000 HD
ENDBRANCH  20  23
ENDBRANCH  18  19
ENDBRANCH   4  18
TORSDOF 6
ENDMDL
