MODEL 1
REMARK VINA RESULT:    -7.906      0.000      0.000
REMARK INTER + INTRA:         -11.843
REMARK INTER:                 -10.679
REMARK INTRA:                  -1.164
REMARK UNBOUND:                -1.164
REMARK  Name = 
REMARK  7 active torsions:
REMARK  status: ('A' for Active; 'I' for Inactive)
REMARK    1  A    between atoms: C_1  and  O_2
REMARK    2  A    between atoms: O_2  and  C_3
REMARK    3  A    between atoms: C_7  and  N_8
REMARK    4  A    between atoms: N_8  and  C_9
REMARK    5  A    between atoms: C_12  and  C_13
REMARK    6  A    between atoms: C_13  and  N_14
REMARK    7  A    between atoms: C_15  and  C_17
REMARK                            x       y       z     vdW  Elec       q    Type
REMARK                         _______ _______ _______ _____ _____    ______ ____
ROOT
ATOM      1  C   UNL     1      45.304   5.877  10.644  0.00  0.00    +0.000 A 
ATOM      2  N   UNL     1      46.593   6.262  10.547  0.00  0.00    +0.000 NA
ATOM      3  C   UNL     1      47.142   7.009  11.528  0.00  0.00    +0.000 A 
ATOM      4  C   UNL     1      46.444   7.434  12.649  0.00  0.00    +0.000 A 
ATOM      5  C   UNL     1      45.119   7.017  12.772  0.00  0.00    +0.000 A 
ATOM      6  C   UNL     1      44.541   6.242  11.764  0.00  0.00    +0.000 A 
ATOM      7 CL   UNL     1      42.897   5.741  11.946  0.00  0.00    +0.000 Cl
ENDROOT
BRANCH   1   8
ATOM      8  N   UNL     1      44.742   5.117   9.613  0.00  0.00    +0.000 N 
ATOM      9  H   UNL     1      43.777   5.320   9.391  0.00  0.00    +0.000 HD
BRANCH   8  14
ATOM     10  C   UNL     1      46.243   3.067   7.127  0.00  0.00    +0.000 A 
ATOM     11  C   UNL     1      46.034   1.764   7.536  0.00  0.00    +0.000 A 
ATOM     12  C   UNL     1      45.370   1.563   8.732  0.00  0.00    +0.000 A 
ATOM     13  C   UNL     1      44.944   2.671   9.459  0.00  0.00    +0.000 A 
ATOM     14  C   UNL     1      45.172   3.959   8.976  0.00  0.00    +0.000 A 
ATOM     15  N   UNL     1      45.831   4.157   7.814  0.00  0.00    +0.000 NA
BRANCH  10  17
ATOM     16  C   UNL     1      47.911   2.230   5.726  0.00  0.00    +0.000 C 
ATOM     17  O   UNL     1      46.916   3.226   5.931  0.00  0.00    +0.000 OA
ENDBRANCH  10  17
ENDBRANCH   8  14
ENDBRANCH   1   8
BRANCH   4  18
ATOM     18  C   UNL     1      47.126   8.284  13.672  0.00  0.00    +0.000 C 
BRANCH  18  19
ATOM     19  N   UNL     1      47.544   7.511  14.813  0.00  0.00    +0.000 N 
ATOM     20  C   UNL     1      48.787   6.937  14.890  0.00  0.00    +0.000 C 
ATOM     21  O   UNL     1      49.607   7.037  13.979  0.00  0.00    +0.000 OA
ATOM     22  H   UNL     1      46.834   7.261  15.494  0.00  0.00    +0.000 HD
BRANCH  20  23
ATOM     23  C   UNL     1      49.119   6.250  16.143  0.00  0.00    +0.000 A 
ATOM     24  C   UNL     1      50.137   6.749  16.945  0.00  0.00    +0.000 A 
ATOM     25  S   UNL     1      50.392   5.848  18.368  0.00  0.00    +0.000 S 
ATOM     26  C   UNL     1      49.178   4.734  17.946  0.00  0.00    +0.000 A 
ATOM     27  N   UNL     1      48.906   3.664  18.739  0.00  0.00    +0.000 NA
ATOM     28  C   UNL     1      47.989   2.879  18.281  0.00  0.00    +0.000 A 
ATOM     29  N   UNL     1      47.305   3.079  17.111  0.00  0.00    +0.000 N 
ATOM     30  C   UNL     1      47.497   4.182  16.312  0.00  0.00    +0.000 A 
ATOM     31  O   UNL     1      46.784   4.397  15.334  0.00  0.00    +0.000 OA
ATOM     32  C   UNL     1      48.559   5.067  16.752  0.00  0.00    +0.000 A 
ATOM     33  H   UNL     1      46.576   2.441  16.826  0.00  0.00    +0.000 HD
ENDBRANCH  20  23
ENDBRANCH  18  19
ENDBRANCH   4  18
TORSDOF 6
ENDMDL
MODEL 2
REMARK VINA RESULT:    -7.114      5.049      9.576
REMARK INTER + INTRA:         -10.773
REMARK INTER:                  -9.974
REMARK INTRA:                  -0.799
REMARK UNBOUND:                -1.164
REMARK  Name = 
REMARK  7 active torsions:
REMARK  status: ('A' for Active; 'I' for Inactive)
REMARK    1  A    between atoms: C_1  and  O_2
REMARK    2  A    between atoms: O_2  and  C_3
REMARK    3  A    between atoms: C_7  and  N_8
REMARK    4  A    between atoms: N_8  and  C_9
REMARK    5  A    between atoms: C_12  and  C_13
REMARK    6  A    between atoms: C_13  and  N_14
REMARK    7  A    between atoms: C_15  and  C_17
REMARK                            x       y       z     vdW  Elec       q    Type
REMARK                         _______ _______ _______ _____ _____    ______ ____
ROOT
ATOM      1  C   UNL     1      51.589   2.588  17.556  0.00  0.00    +0.000 A 
ATOM      2  N   UNL     1      50.753   1.700  16.979  0.00  0.00    +0.000 NA
ATOM      3  C   UNL     1      49.449   2.016  16.824  0.00  0.00    +0.000 A 
ATOM      4  C   UNL     1      48.896   3.217  17.246  0.00  0.00    +0.000 A 
ATOM      5  C   UNL     1      49.759   4.151  17.817  0.00  0.00    +0.000 A 
ATOM      6  C   UNL     1      51.110   3.836  17.982  0.00  0.00    +0.000 A 
ATOM      7 CL   UNL     1      52.154   5.016  18.694  0.00  0.00    +0.000 Cl
ENDROOT
BRANCH   1   8
ATOM      8  N   UNL     1      52.934   2.242  17.728  0.00  0.00    +0.000 N 
ATOM      9  H   UNL     1      53.589   3.012  17.740  0.00  0.00    +0.000 HD
BRANCH   8  14
ATOM     10  C   UNL     1      53.997  -1.015  18.677  0.00  0.00    +0.000 A 
ATOM     11  C   UNL     1      54.879  -1.425  17.696  0.00  0.00    +0.000 A 
ATOM     12  C   UNL     1      55.113  -0.563  16.640  0.00  0.00    +0.000 A 
ATOM     13  C   UNL     1      54.457   0.664  16.615  0.00  0.00    +0.000 A 
ATOM     14  C   UNL     1      53.593   1.021  17.650  0.00  0.00    +0.000 A 
ATOM     15  N   UNL     1      53.355   0.176  18.676  0.00  0.00    +0.000 NA
BRANCH  10  17
ATOM     16  C   UNL     1      54.869  -2.810  19.887  0.00  0.00    +0.000 C 
ATOM     17  O   UNL     1      53.784  -1.906  19.712  0.00  0.00    +0.000 OA
ENDBRANCH  10  17
ENDBRANCH   8  14
ENDBRANCH   1   8
BRANCH   4  18
ATOM     18  C   UNL     1      47.435   3.469  17.057  0.00  0.00    +0.000 C 
BRANCH  18  19
ATOM     19  N   UNL     1      47.195   4.495  16.076  0.00  0.00    +0.000 N 
ATOM     20  C   UNL     1      47.145   4.225  14.733  0.00  0.00    +0.000 C 
ATOM     21  O   UNL     1      47.322   3.090  14.292  0.00  0.00    +0.000 OA
ATOM     22  H   UNL     1      47.226   5.460  16.393  0.00  0.00    +0.000 HD
BRANCH  20  23
ATOM     23  C   UNL     1      46.806   5.344  13.847  0.00  0.00    +0.000 A 
ATOM     24  C   UNL     1      47.692   6.405  13.721  0.00  0.00    +0.000 A 
ATOM     25  S   UNL     1      47.161   7.617  12.648  0.00  0.00    +0.000 S 
ATOM     26  C   UNL     1      45.707   6.788  12.344  0.00  0.00    +0.000 A 
ATOM     27  N   UNL     1      44.763   7.313  11.520  0.00  0.00    +0.000 NA
ATOM     28  C   UNL     1      43.694   6.598  11.408  0.00  0.00    +0.000 A 
ATOM     29  N   UNL     1      43.492   5.394  12.031  0.00  0.00    +0.000 N 
ATOM     30  C   UNL     1      44.446   4.791  12.817  0.00  0.00    +0.000 A 
ATOM     31  O   UNL     1      44.286   3.657  13.263  0.00  0.00    +0.000 OA
ATOM     32  C   UNL     1      45.645   5.582  13.023  0.00  0.00    +0.000 A 
ATOM     33  H   UNL     1      42.644   4.870  11.875  0.00  0.00    +0.000 HD
ENDBRANCH  20  23
ENDBRANCH  18  19
ENDBRANCH   4  18
TORSDOF 6
ENDMDL
MODEL 3
REMARK VINA RESULT:    -7.029      4.300      8.619
REMARK INTER + INTRA:         -10.659
REMARK INTER:                  -9.762
REMARK INTRA:                  -0.897
REMARK UNBOUND:                -1.164
REMARK  Name = 
REMARK  7 active torsions:
REMARK  status: ('A' for Active; 'I' for Inactive)
REMARK    1  A    between atoms: C_1  and  O_2
REMARK    2  A    between atoms: O_2  and  C_3
REMARK    3  A    between atoms: C_7  and  N_8
REMARK    4  A    between atoms: N_8  and  C_9
REMARK    5  A    between atoms: C_12  and  C_13
REMARK    6  A    between atoms: C_13  and  N_14
REMARK    7  A    between atoms: C_15  and  C_17
REMARK                            x       y       z     vdW  Elec       q    Type
REMARK                         _______ _______ _______ _____ _____    ______ ____
ROOT
ATOM      1  C   UNL     1      50.543   3.999  17.581  0.00  0.00    +0.000 A 
ATOM      2  N   UNL     1      51.351   5.001  17.176  0.00  0.00    +0.000 NA
ATOM      3  C   UNL     1      50.813   6.107  16.618  0.00  0.00    +0.000 A 
ATOM      4  C   UNL     1      49.452   6.276  16.411  0.00  0.00    +0.000 A 
ATOM      5  C   UNL     1      48.608   5.258  16.852  0.00  0.00    +0.000 A 
ATOM      6  C   UNL     1      49.152   4.109  17.433  0.00  0.00    +0.000 A 
ATOM      7 CL   UNL     1      48.079   2.865  17.970  0.00  0.00    +0.000 Cl
ENDROOT
BRANCH   1   8
ATOM      8  N   UNL     1      51.114   2.852  18.141  0.00  0.00    +0.000 N 
ATOM      9  H   UNL     1      50.536   2.350  18.803  0.00  0.00    +0.000 HD
BRANCH   8  14
ATOM     10  C   UNL     1      53.896   0.783  17.355  0.00  0.00    +0.000 A 
ATOM     11  C   UNL     1      54.948   1.261  18.113  0.00  0.00    +0.000 A 
ATOM     12  C   UNL     1      54.713   2.359  18.920  0.00  0.00    +0.000 A 
ATOM     13  C   UNL     1      53.441   2.925  18.932  0.00  0.00    +0.000 A 
ATOM     14  C   UNL     1      52.421   2.379  18.155  0.00  0.00    +0.000 A 
ATOM     15  N   UNL     1      52.651   1.313  17.358  0.00  0.00    +0.000 NA
BRANCH  10  17
ATOM     16  C   UNL     1      55.452  -0.231  15.942  0.00  0.00    +0.000 C 
ATOM     17  O   UNL     1      54.172  -0.311  16.558  0.00  0.00    +0.000 OA
ENDBRANCH  10  17
ENDBRANCH   8  14
ENDBRANCH   1   8
BRANCH   4  18
ATOM     18  C   UNL     1      48.948   7.523  15.760  0.00  0.00    +0.000 C 
BRANCH  18  19
ATOM     19  N   UNL     1      47.836   7.255  14.886  0.00  0.00    +0.000 N 
ATOM     20  C   UNL     1      48.003   6.724  13.632  0.00  0.00    +0.000 C 
ATOM     21  O   UNL     1      49.118   6.466  13.181  0.00  0.00    +0.000 OA
ATOM     22  H   UNL     1      46.929   7.623  15.157  0.00  0.00    +0.000 HD
BRANCH  20  23
ATOM     23  C   UNL     1      46.783   6.417  12.878  0.00  0.00    +0.000 A 
ATOM     24  C   UNL     1      46.100   7.445  12.242  0.00  0.00    +0.000 A 
ATOM     25  S   UNL     1      44.712   6.926  11.400  0.00  0.00    +0.000 S 
ATOM     26  C   UNL     1      44.952   5.314  11.888  0.00  0.00    +0.000 A 
ATOM     27  N   UNL     1      44.076   4.339  11.530  0.00  0.00    +0.000 NA
ATOM     28  C   UNL     1      44.357   3.169  11.999  0.00  0.00    +0.000 A 
ATOM     29  N   UNL     1      45.448   2.883  12.777  0.00  0.00    +0.000 N 
ATOM     30  C   UNL     1      46.398   3.822  13.106  0.00  0.00    +0.000 A 
ATOM     31  O   UNL     1      47.428   3.511  13.701  0.00  0.00    +0.000 OA
ATOM     32  C   UNL     1      46.098   5.167  12.652  0.00  0.00    +0.000 A 
ATOM     33  H   UNL     1      45.626   1.939  13.086  0.00  0.00    +0.000 HD
ENDBRANCH  20  23
ENDBRANCH  18  19
ENDBRANCH   4  18
TORSDOF 6
ENDMDL
MODEL 4
REMARK VINA RESULT:    -6.986      1.855      2.183
REMARK INTER + INTRA:         -10.600
REMARK INTER:                  -9.475
REMARK INTRA:                  -1.125
REMARK UNBOUND:                -1.164
REMARK  Name = 
REMARK  7 active torsions:
REMARK  status: ('A' for Active; 'I' for Inactive)
REMARK    1  A    between atoms: C_1  and  O_2
REMARK    2  A    between atoms: O_2  and  C_3
REMARK    3  A    between atoms: C_7  and  N_8
REMARK    4  A    between atoms: N_8  and  C_9
REMARK    5  A    between atoms: C_12  and  C_13
REMARK    6  A    between atoms: C_13  and  N_14
REMARK    7  A    between atoms: C_15  and  C_17
REMARK                            x       y       z     vdW  Elec       q    Type
REMARK                         _______ _______ _______ _____ _____    ______ ____
ROOT
ATOM      1  C   UNL     1      45.975   6.315  10.881  0.00  0.00    +0.000 A 
ATOM      2  N   UNL     1      47.260   6.715  10.789  0.00  0.00    +0.000 NA
ATOM      3  C   UNL     1      47.864   7.268  11.861  0.00  0.00    +0.000 A 
ATOM      4  C   UNL     1      47.229   7.473  13.078  0.00  0.00    +0.000 A 
ATOM      5  C   UNL     1      45.910   7.036  13.191  0.00  0.00    +0.000 A 
ATOM      6  C   UNL     1      45.274   6.461  12.088  0.00  0.00    +0.000 A 
ATOM      7 CL   UNL     1      43.639   5.929  12.260  0.00  0.00    +0.000 Cl
ENDROOT
BRANCH   1   8
ATOM      8  N   UNL     1      45.354   5.759   9.757  0.00  0.00    +0.000 N 
ATOM      9  H   UNL     1      44.584   6.289   9.371  0.00  0.00    +0.000 HD
BRANCH   8  14
ATOM     10  C   UNL     1      46.129   3.235   7.377  0.00  0.00    +0.000 A 
ATOM     11  C   UNL     1      45.599   2.063   7.884  0.00  0.00    +0.000 A 
ATOM     12  C   UNL     1      44.963   2.122   9.110  0.00  0.00    +0.000 A 
ATOM     13  C   UNL     1      44.886   3.345   9.770  0.00  0.00    +0.000 A 
ATOM     14  C   UNL     1      45.427   4.492   9.190  0.00  0.00    +0.000 A 
ATOM     15  N   UNL     1      46.057   4.434   7.998  0.00  0.00    +0.000 NA
BRANCH  10  17
ATOM     16  C   UNL     1      47.892   2.270   6.190  0.00  0.00    +0.000 C 
ATOM     17  O   UNL     1      46.762   3.134   6.153  0.00  0.00    +0.000 OA
ENDBRANCH  10  17
ENDBRANCH   8  14
ENDBRANCH   1   8
BRANCH   4  18
ATOM     18  C   UNL     1      47.971   8.119  14.204  0.00  0.00    +0.000 C 
BRANCH  18  19
ATOM     19  N   UNL     1      47.914   7.324  15.403  0.00  0.00    +0.000 N 
ATOM     20  C   UNL     1      48.994   6.611  15.858  0.00  0.00    +0.000 C 
ATOM     21  O   UNL     1      50.065   6.599  15.254  0.00  0.00    +0.000 OA
ATOM     22  H   UNL     1      47.001   7.171  15.819  0.00  0.00    +0.000 HD
BRANCH  20  23
ATOM     23  C   UNL     1      48.831   5.914  17.138  0.00  0.00    +0.000 A 
ATOM     24  C   UNL     1      49.123   4.559  17.217  0.00  0.00    +0.000 A 
ATOM     25  S   UNL     1      48.895   3.899  18.771  0.00  0.00    +0.000 S 
ATOM     26  C   UNL     1      48.358   5.391  19.387  0.00  0.00    +0.000 A 
ATOM     27  N   UNL     1      47.960   5.510  20.681  0.00  0.00    +0.000 NA
ATOM     28  C   UNL     1      47.541   6.688  21.005  0.00  0.00    +0.000 A 
ATOM     29  N   UNL     1      47.505   7.763  20.156  0.00  0.00    +0.000 N 
ATOM     30  C   UNL     1      47.963   7.708  18.860  0.00  0.00    +0.000 A 
ATOM     31  O   UNL     1      48.032   8.716  18.161  0.00  0.00    +0.000 OA
ATOM     32  C   UNL     1      48.390   6.390  18.428  0.00  0.00    +0.000 A 
ATOM     33  H   UNL     1      47.195   8.666  20.483  0.00  0.00    +0.000 HD
ENDBRANCH  20  23
ENDBRANCH  18  19
ENDBRANCH   4  18
TORSDOF 6
ENDMDL
MODEL 5
REMARK VINA RESULT:    -6.964      4.217      8.843
REMARK INTER + INTRA:         -10.570
REMARK INTER:                  -9.560
REMARK INTRA:                  -1.010
REMARK UNBOUND:                -1.164
REMARK  Name = 
REMARK  7 active torsions:
REMARK  status: ('A' for Active; 'I' for Inactive)
REMARK    1  A    between atoms: C_1  and  O_2
REMARK    2  A    between atoms: O_2  and  C_3
REMARK    3  A    between atoms: C_7  and  N_8
REMARK    4  A    between atoms: N_8  and  C_9
REMARK    5  A    between atoms: C_12  and  C_13
REMARK    6  A    between atoms: C_13  and  N_14
REMARK    7  A    between atoms: C_15  and  C_17
REMARK                            x       y       z     vdW  Elec       q    Type
REMARK                         _______ _______ _______ _____ _____    ______ ____
ROOT
ATOM      1  C   UNL     1      50.545   4.058  17.672  0.00  0.00    +0.000 A 
ATOM      2  N   UNL     1      51.369   5.056  17.292  0.00  0.00    +0.000 NA
ATOM      3  C   UNL     1      50.866   6.121  16.632  0.00  0.00    +0.000 A 
ATOM      4  C   UNL     1      49.527   6.251  16.294  0.00  0.00    +0.000 A 
ATOM      5  C   UNL     1      48.664   5.238  16.707  0.00  0.00    +0.000 A 
ATOM      6  C   UNL     1      49.171   4.131  17.393  0.00  0.00    +0.000 A 
ATOM      7 CL   UNL     1      48.074   2.892  17.892  0.00  0.00    +0.000 Cl
ENDROOT
BRANCH   1   8
ATOM      8  N   UNL     1      51.080   2.952  18.340  0.00  0.00    +0.000 N 
ATOM      9  H   UNL     1      50.637   2.707  19.215  0.00  0.00    +0.000 HD
BRANCH   8  14
ATOM     10  C   UNL     1      54.543   2.184  18.569  0.00  0.00    +0.000 A 
ATOM     11  C   UNL     1      54.720   1.019  17.847  0.00  0.00    +0.000 A 
ATOM     12  C   UNL     1      53.604   0.445  17.268  0.00  0.00    +0.000 A 
ATOM     13  C   UNL     1      52.367   1.061  17.436  0.00  0.00    +0.000 A 
ATOM     14  C   UNL     1      52.265   2.247  18.162  0.00  0.00    +0.000 A 
ATOM     15  N   UNL     1      53.352   2.803  18.737  0.00  0.00    +0.000 NA
BRANCH  10  17
ATOM     16  C   UNL     1      55.692   4.146  19.097  0.00  0.00    +0.000 C 
ATOM     17  O   UNL     1      55.682   2.724  19.137  0.00  0.00    +0.000 OA
ENDBRANCH  10  17
ENDBRANCH   8  14
ENDBRANCH   1   8
BRANCH   4  18
ATOM     18  C   UNL     1      49.065   7.454  15.537  0.00  0.00    +0.000 C 
BRANCH  18  19
ATOM     19  N   UNL     1      47.910   7.163  14.729  0.00  0.00    +0.000 N 
ATOM     20  C   UNL     1      48.016   6.706  13.441  0.00  0.00    +0.000 C 
ATOM     21  O   UNL     1      49.107   6.538  12.899  0.00  0.00    +0.000 OA
ATOM     22  H   UNL     1      47.005   7.460  15.083  0.00  0.00    +0.000 HD
BRANCH  20  23
ATOM     23  C   UNL     1      46.764   6.363  12.757  0.00  0.00    +0.000 A 
ATOM     24  C   UNL     1      46.046   7.361  12.112  0.00  0.00    +0.000 A 
ATOM     25  S   UNL     1      44.624   6.802  11.357  0.00  0.00    +0.000 S 
ATOM     26  C   UNL     1      44.895   5.213  11.900  0.00  0.00    +0.000 A 
ATOM     27  N   UNL     1      44.008   4.221  11.624  0.00  0.00    +0.000 NA
ATOM     28  C   UNL     1      44.317   3.073  12.129  0.00  0.00    +0.000 A 
ATOM     29  N   UNL     1      45.445   2.824  12.866  0.00  0.00    +0.000 N 
ATOM     30  C   UNL     1      46.404   3.778  13.111  0.00  0.00    +0.000 A 
ATOM     31  O   UNL     1      47.462   3.497  13.670  0.00  0.00    +0.000 OA
ATOM     32  C   UNL     1      46.076   5.103  12.615  0.00  0.00    +0.000 A 
ATOM     33  H   UNL     1      45.643   1.893  13.205  0.00  0.00    +0.000 HD
ENDBRANCH  20  23
ENDBRANCH  18  19
ENDBRANCH   4  18
TORSDOF 6
ENDMDL
MODEL 6
REMARK VINA RESULT:    -6.930      4.112      7.898
REMARK INTER + INTRA:         -10.524
REMARK INTER:                  -9.245
REMARK INTRA:                  -1.279
REMARK UNBOUND:                -1.164
REMARK  Name = 
REMARK  7 active torsions:
REMARK  status: ('A' for Active; 'I' for Inactive)
REMARK    1  A    between atoms: C_1  and  O_2
REMARK    2  A    between atoms: O_2  and  C_3
REMARK    3  A    between atoms: C_7  and  N_8
REMARK    4  A    between atoms: N_8  and  C_9
REMARK    5  A    between atoms: C_12  and  C_13
REMARK    6  A    between atoms: C_13  and  N_14
REMARK    7  A    between atoms: C_15  and  C_17
REMARK                            x       y       z     vdW  Elec       q    Type
REMARK                         _______ _______ _______ _____ _____    ______ ____
ROOT
ATOM      1  C   UNL     1      50.704   6.392  17.226  0.00  0.00    +0.000 A 
ATOM      2  N   UNL     1      51.037   6.801  15.984  0.00  0.00    +0.000 NA
ATOM      3  C   UNL     1      50.251   7.692  15.343  0.00  0.00    +0.000 A 
ATOM      4  C   UNL     1      49.084   8.213  15.884  0.00  0.00    +0.000 A 
ATOM      5  C   UNL     1      48.748   7.818  17.178  0.00  0.00    +0.000 A 
ATOM      6  C   UNL     1      49.555   6.898  17.852  0.00  0.00    +0.000 A 
ATOM      7 CL   UNL     1      49.111   6.428  19.455  0.00  0.00    +0.000 Cl
ENDROOT
BRANCH   1   8
ATOM      8  N   UNL     1      51.517   5.456  17.874  0.00  0.00    +0.000 N 
ATOM      9  H   UNL     1      52.287   5.835  18.409  0.00  0.00    +0.000 HD
BRANCH   8  14
ATOM     10  C   UNL     1      50.625   2.132  16.984  0.00  0.00    +0.000 A 
ATOM     11  C   UNL     1      51.646   1.328  17.455  0.00  0.00    +0.000 A 
ATOM     12  C   UNL     1      52.709   1.944  18.089  0.00  0.00    +0.000 A 
ATOM     13  C   UNL     1      52.701   3.329  18.224  0.00  0.00    +0.000 A 
ATOM     14  C   UNL     1      51.628   4.077  17.741  0.00  0.00    +0.000 A 
ATOM     15  N   UNL     1      50.594   3.478  17.112  0.00  0.00    +0.000 NA
BRANCH  10  17
ATOM     16  C   UNL     1      48.409   2.278  16.266  0.00  0.00    +0.000 C 
ATOM     17  O   UNL     1      49.584   1.480  16.351  0.00  0.00    +0.000 OA
ENDBRANCH  10  17
ENDBRANCH   8  14
ENDBRANCH   1   8
BRANCH   4  18
ATOM     18  C   UNL     1      48.261   9.174  15.088  0.00  0.00    +0.000 C 
BRANCH  18  19
ATOM     19  N   UNL     1      47.178   8.512  14.409  0.00  0.00    +0.000 N 
ATOM     20  C   UNL     1      47.300   8.038  13.128  0.00  0.00    +0.000 C 
ATOM     21  O   UNL     1      48.339   8.171  12.483  0.00  0.00    +0.000 OA
ATOM     22  H   UNL     1      46.262   8.548  14.845  0.00  0.00    +0.000 HD
BRANCH  20  23
ATOM     23  C   UNL     1      46.152   7.305  12.584  0.00  0.00    +0.000 A 
ATOM     24  C   UNL     1      45.158   8.001  11.908  0.00  0.00    +0.000 A 
ATOM     25  S   UNL     1      43.901   7.009  11.328  0.00  0.00    +0.000 S 
ATOM     26  C   UNL     1      44.618   5.617  11.994  0.00  0.00    +0.000 A 
ATOM     27  N   UNL     1      44.017   4.403  11.886  0.00  0.00    +0.000 NA
ATOM     28  C   UNL     1      44.650   3.440  12.468  0.00  0.00    +0.000 A 
ATOM     29  N   UNL     1      45.841   3.579  13.132  0.00  0.00    +0.000 N 
ATOM     30  C   UNL     1      46.520   4.773  13.207  0.00  0.00    +0.000 A 
ATOM     31  O   UNL     1      47.642   4.842  13.702  0.00  0.00    +0.000 OA
ATOM     32  C   UNL     1      45.821   5.901  12.618  0.00  0.00    +0.000 A 
ATOM     33  H   UNL     1      46.299   2.777  13.539  0.00  0.00    +0.000 HD
ENDBRANCH  20  23
ENDBRANCH  18  19
ENDBRANCH   4  18
TORSDOF 6
ENDMDL
MODEL 7
REMARK VINA RESULT:    -6.818      4.992      9.502
REMARK INTER + INTRA:         -10.373
REMARK INTER:                  -9.262
REMARK INTRA:                  -1.111
REMARK UNBOUND:                -1.164
REMARK  Name = 
REMARK  7 active torsions:
REMARK  status: ('A' for Active; 'I' for Inactive)
REMARK    1  A    between atoms: C_1  and  O_2
REMARK    2  A    between atoms: O_2  and  C_3
REMARK    3  A    between atoms: C_7  and  N_8
REMARK    4  A    between atoms: N_8  and  C_9
REMARK    5  A    between atoms: C_12  and  C_13
REMARK    6  A    between atoms: C_13  and  N_14
REMARK    7  A    between atoms: C_15  and  C_17
REMARK                            x       y       z     vdW  Elec       q    Type
REMARK                         _______ _______ _______ _____ _____    ______ ____
ROOT
ATOM      1  C   UNL     1      51.566   2.589  17.534  0.00  0.00    +0.000 A 
ATOM      2  N   UNL     1      50.732   1.686  16.978  0.00  0.00    +0.000 NA
ATOM      3  C   UNL     1      49.424   1.985  16.836  0.00  0.00    +0.000 A 
ATOM      4  C   UNL     1      48.863   3.184  17.251  0.00  0.00    +0.000 A 
ATOM      5  C   UNL     1      49.722   4.134  17.801  0.00  0.00    +0.000 A 
ATOM      6  C   UNL     1      51.079   3.837  17.951  0.00  0.00    +0.000 A 
ATOM      7 CL   UNL     1      52.118   5.037  18.636  0.00  0.00    +0.000 Cl
ENDROOT
BRANCH   1   8
ATOM      8  N   UNL     1      52.917   2.261  17.691  0.00  0.00    +0.000 N 
ATOM      9  H   UNL     1      53.565   3.037  17.675  0.00  0.00    +0.000 HD
BRANCH   8  14
ATOM     10  C   UNL     1      54.053  -0.949  18.711  0.00  0.00    +0.000 A 
ATOM     11  C   UNL     1      54.903  -1.384  17.712  0.00  0.00    +0.000 A 
ATOM     12  C   UNL     1      55.087  -0.557  16.619  0.00  0.00    +0.000 A 
ATOM     13  C   UNL     1      54.416   0.661  16.577  0.00  0.00    +0.000 A 
ATOM     14  C   UNL     1      53.587   1.045  17.631  0.00  0.00    +0.000 A 
ATOM     15  N   UNL     1      53.398   0.234  18.693  0.00  0.00    +0.000 NA
BRANCH  10  17
ATOM     16  C   UNL     1      52.982  -2.865  19.505  0.00  0.00    +0.000 C 
ATOM     17  O   UNL     1      53.890  -1.806  19.783  0.00  0.00    +0.000 OA
ENDBRANCH  10  17
ENDBRANCH   8  14
ENDBRANCH   1   8
BRANCH   4  18
ATOM     18  C   UNL     1      47.396   3.418  17.079  0.00  0.00    +0.000 C 
BRANCH  18  19
ATOM     19  N   UNL     1      47.133   4.464  16.125  0.00  0.00    +0.000 N 
ATOM     20  C   UNL     1      47.042   4.219  14.779  0.00  0.00    +0.000 C 
ATOM     21  O   UNL     1      47.199   3.092  14.312  0.00  0.00    +0.000 OA
ATOM     22  H   UNL     1      47.178   5.422  16.458  0.00  0.00    +0.000 HD
BRANCH  20  23
ATOM     23  C   UNL     1      46.682   5.356  13.925  0.00  0.00    +0.000 A 
ATOM     24  C   UNL     1      45.455   5.359  13.276  0.00  0.00    +0.000 A 
ATOM     25  S   UNL     1      45.183   6.752  12.333  0.00  0.00    +0.000 S 
ATOM     26  C   UNL     1      46.712   7.384  12.727  0.00  0.00    +0.000 A 
ATOM     27  N   UNL     1      47.133   8.567  12.205  0.00  0.00    +0.000 NA
ATOM     28  C   UNL     1      48.327   8.910  12.556  0.00  0.00    +0.000 A 
ATOM     29  N   UNL     1      49.130   8.187  13.399  0.00  0.00    +0.000 N 
ATOM     30  C   UNL     1      48.721   7.022  14.005  0.00  0.00    +0.000 A 
ATOM     31  O   UNL     1      49.414   6.460  14.849  0.00  0.00    +0.000 OA
ATOM     32  C   UNL     1      47.406   6.561  13.597  0.00  0.00    +0.000 A 
ATOM     33  H   UNL     1      50.044   8.529  13.658  0.00  0.00    +0.000 HD
ENDBRANCH  20  23
ENDBRANCH  18  19
ENDBRANCH   4  18
TORSDOF 6
ENDMDL
MODEL 8
REMARK VINA RESULT:    -6.806      1.683      2.038
REMARK INTER + INTRA:         -10.357
REMARK INTER:                  -9.205
REMARK INTRA:                  -1.151
REMARK UNBOUND:                -1.164
REMARK  Name = 
REMARK  7 active torsions:
REMARK  status: ('A' for Active; 'I' for Inactive)
REMARK    1  A    between atoms: C_1  and  O_2
REMARK    2  A    between atoms: O_2  and  C_3
REMARK    3  A    between atoms: C_7  and  N_8
REMARK    4  A    between atoms: N_8  and  C_9
REMARK    5  A    between atoms: C_12  and  C_13
REMARK    6  A    between atoms: C_13  and  N_14
REMARK    7  A    between atoms: C_15  and  C_17
REMARK                            x       y       z     vdW  Elec       q    Type
REMARK                         _______ _______ _______ _____ _____    ______ ____
ROOT
ATOM      1  C   UNL     1      46.113   6.983  11.533  0.00  0.00    +0.000 A 
ATOM      2  N   UNL     1      47.191   6.244  11.866  0.00  0.00    +0.000 NA
ATOM      3  C   UNL     1      48.145   6.775  12.660  0.00  0.00    +0.000 A 
ATOM      4  C   UNL     1      48.096   8.071  13.153  0.00  0.00    +0.000 A 
ATOM      5  C   UNL     1      46.972   8.832  12.838  0.00  0.00    +0.000 A 
ATOM      6  C   UNL     1      45.977   8.292  12.019  0.00  0.00    +0.000 A 
ATOM      7 CL   UNL     1      44.595   9.262  11.646  0.00  0.00    +0.000 Cl
ENDROOT
BRANCH   1   8
ATOM      8  N   UNL     1      45.140   6.427  10.696  0.00  0.00    +0.000 N 
ATOM      9  H   UNL     1      44.344   7.016  10.492  0.00  0.00    +0.000 HD
BRANCH   8  14
ATOM     10  C   UNL     1      45.124   3.617   8.519  0.00  0.00    +0.000 A 
ATOM     11  C   UNL     1      44.505   2.599   9.220  0.00  0.00    +0.000 A 
ATOM     12  C   UNL     1      44.090   2.868  10.511  0.00  0.00    +0.000 A 
ATOM     13  C   UNL     1      44.309   4.138  11.038  0.00  0.00    +0.000 A 
ATOM     14  C   UNL     1      44.923   5.123  10.266  0.00  0.00    +0.000 A 
ATOM     15  N   UNL     1      45.340   4.859   9.009  0.00  0.00    +0.000 NA
BRANCH  10  17
ATOM     16  C   UNL     1      46.921   3.527   7.033  0.00  0.00    +0.000 C 
ATOM     17  O   UNL     1      45.530   3.307   7.235  0.00  0.00    +0.000 OA
ENDBRANCH  10  17
ENDBRANCH   8  14
ENDBRANCH   1   8
BRANCH   4  18
ATOM     18  C   UNL     1      49.213   8.584  14.004  0.00  0.00    +0.000 C 
BRANCH  18  19
ATOM     19  N   UNL     1      49.321   7.852  15.238  0.00  0.00    +0.000 N 
ATOM     20  C   UNL     1      48.663   8.239  16.378  0.00  0.00    +0.000 C 
ATOM     21  O   UNL     1      47.958   9.246  16.410  0.00  0.00    +0.000 OA
ATOM     22  H   UNL     1      50.031   7.128  15.291  0.00  0.00    +0.000 HD
BRANCH  20  23
ATOM     23  C   UNL     1      48.788   7.357  17.543  0.00  0.00    +0.000 A 
ATOM     24  C   UNL     1      49.130   7.900  18.774  0.00  0.00    +0.000 A 
ATOM     25  S   UNL     1      49.223   6.750  20.028  0.00  0.00    +0.000 S 
ATOM     26  C   UNL     1      48.850   5.477  18.962  0.00  0.00    +0.000 A 
ATOM     27  N   UNL     1      48.804   4.191  19.400  0.00  0.00    +0.000 NA
ATOM     28  C   UNL     1      48.547   3.323  18.480  0.00  0.00    +0.000 A 
ATOM     29  N   UNL     1      48.311   3.627  17.164  0.00  0.00    +0.000 N 
ATOM     30  C   UNL     1      48.278   4.918  16.691  0.00  0.00    +0.000 A 
ATOM     31  O   UNL     1      47.944   5.168  15.535  0.00  0.00    +0.000 OA
ATOM     32  C   UNL     1      48.619   5.930  17.674  0.00  0.00    +0.000 A 
ATOM     33  H   UNL     1      48.084   2.901  16.501  0.00  0.00    +0.000 HD
ENDBRANCH  20  23
ENDBRANCH  18  19
ENDBRANCH   4  18
TORSDOF 6
ENDMDL
MODEL 9
REMARK VINA RESULT:    -6.572      2.688      3.687
REMARK INTER + INTRA:         -10.041
REMARK INTER:                  -9.051
REMARK INTRA:                  -0.990
REMARK UNBOUND:                -1.164
REMARK  Name = 
REMARK  7 active torsions:
REMARK  status: ('A' for Active; 'I' for Inactive)
REMARK    1  A    between atoms: C_1  and  O_2
REMARK    2  A    between atoms: O_2  and  C_3
REMARK    3  A    between atoms: C_7  and  N_8
REMARK    4  A    between atoms: N_8  and  C_9
REMARK    5  A    between atoms: C_12  and  C_13
REMARK    6  A    between atoms: C_13  and  N_14
REMARK    7  A    between atoms: C_15  and  C_17
REMARK                            x       y       z     vdW  Elec       q    Type
REMARK                         _______ _______ _______ _____ _____    ______ ____
ROOT
ATOM      1  C   UNL     1      47.048   6.556  12.935  0.00  0.00    +0.000 A 
ATOM      2  N   UNL     1      47.812   5.699  13.643  0.00  0.00    +0.000 NA
ATOM      3  C   UNL     1      48.579   6.165  14.651  0.00  0.00    +0.000 A 
ATOM      4  C   UNL     1      48.650   7.505  15.003  0.00  0.00    +0.000 A 
ATOM      5  C   UNL     1      47.843   8.394  14.296  0.00  0.00    +0.000 A 
ATOM      6  C   UNL     1      47.043   7.924  13.251  0.00  0.00    +0.000 A 
ATOM      7 CL   UNL     1      46.054   9.052  12.393  0.00  0.00    +0.000 Cl
ENDROOT
BRANCH   1   8
ATOM      8  N   UNL     1      46.271   6.064  11.882  0.00  0.00    +0.000 N 
ATOM      9  H   UNL     1      46.255   6.629  11.043  0.00  0.00    +0.000 HD
BRANCH   8  14
ATOM     10  C   UNL     1      44.308   3.426  10.531  0.00  0.00    +0.000 A 
ATOM     11  C   UNL     1      43.412   3.076  11.524  0.00  0.00    +0.000 A 
ATOM     12  C   UNL     1      43.489   3.752  12.727  0.00  0.00    +0.000 A 
ATOM     13  C   UNL     1      44.452   4.744  12.881  0.00  0.00    +0.000 A 
ATOM     14  C   UNL     1      45.312   5.059  11.830  0.00  0.00    +0.000 A 
ATOM     15  N   UNL     1      45.246   4.392  10.658  0.00  0.00    +0.000 NA
BRANCH  10  17
ATOM     16  C   UNL     1      44.876   3.365   8.268  0.00  0.00    +0.000 C 
ATOM     17  O   UNL     1      44.204   2.723   9.346  0.00  0.00    +0.000 OA
ENDBRANCH  10  17
ENDBRANCH   8  14
ENDBRANCH   1   8
BRANCH   4  18
ATOM     18  C   UNL     1      49.550   7.934  16.117  0.00  0.00    +0.000 C 
BRANCH  18  19
ATOM     19  N   UNL     1      50.467   6.890  16.492  0.00  0.00    +0.000 N 
ATOM     20  C   UNL     1      50.502   6.369  17.760  0.00  0.00    +0.000 C 
ATOM     21  O   UNL     1      49.761   6.780  18.652  0.00  0.00    +0.000 OA
ATOM     22  H   UNL     1      51.206   6.660  15.835  0.00  0.00    +0.000 HD
BRANCH  20  23
ATOM     23  C   UNL     1      51.422   5.250  17.988  0.00  0.00    +0.000 A 
ATOM     24  C   UNL     1      52.678   5.499  18.524  0.00  0.00    +0.000 A 
ATOM     25  S   UNL     1      53.622   4.097  18.738  0.00  0.00    +0.000 S 
ATOM     26  C   UNL     1      52.401   3.109  18.084  0.00  0.00    +0.000 A 
ATOM     27  N   UNL     1      52.588   1.770  17.944  0.00  0.00    +0.000 NA
ATOM     28  C   UNL     1      51.597   1.147  17.399  0.00  0.00    +0.000 A 
ATOM     29  N   UNL     1      50.427   1.740  17.001  0.00  0.00    +0.000 N 
ATOM     30  C   UNL     1      50.167   3.077  17.187  0.00  0.00    +0.000 A 
ATOM     31  O   UNL     1      49.064   3.557  16.933  0.00  0.00    +0.000 OA
ATOM     32  C   UNL     1      51.273   3.835  17.743  0.00  0.00    +0.000 A 
ATOM     33  H   UNL     1      49.678   1.187  16.610  0.00  0.00    +0.000 HD
ENDBRANCH  20  23
ENDBRANCH  18  19
ENDBRANCH   4  18
TORSDOF 6
ENDMDL
