MODEL 1
REMARK VINA RESULT:    -8.522      0.000      0.000
REMARK INTER + INTRA:         -13.550
REMARK INTER:                 -12.756
REMARK INTRA:                  -0.794
REMARK UNBOUND:                -0.794
REMARK  Name = 
REMARK  9 active torsions:
REMARK  status: ('A' for Active; 'I' for Inactive)
REMARK    1  A    between atoms: N_1  and  C_2
REMARK    2  A    between atoms: C_2  and  N_3
REMARK    3  A    between atoms: C_2  and  C_19
REMARK    4  A    between atoms: N_3  and  C_4
REMARK    5  A    between atoms: C_4  and  C_5
REMARK    6  A    between atoms: C_8  and  C_9
REMARK    7  A    between atoms: C_9  and  N_10
REMARK    8  A    between atoms: N_10  and  C_11
REMARK    9  A    between atoms: C_11  and  C_12
REMARK                            x       y       z     vdW  Elec       q    Type
REMARK                         _______ _______ _______ _____ _____    ______ ____
ROOT
ATOM      1  N   UNL     1      47.124   5.117  15.800  0.00  0.00    +0.000 NA
ATOM      2  H   UNL     1      47.413   5.886  16.412  0.00  0.00    +0.000 HD
ENDROOT
BRANCH   1   3
ATOM      3  C   UNL     1      47.694   3.920  16.386  0.00  0.00    +0.000 C 
BRANCH   3   4
ATOM      4  C   UNL     1      48.940   4.292  17.172  0.00  0.00    +0.000 A 
ATOM      5  C   UNL     1      49.140   5.490  17.858  0.00  0.00    +0.000 A 
ATOM      6  S   UNL     1      50.619   5.574  18.695  0.00  0.00    +0.000 S 
ATOM      7  C   UNL     1      51.059   4.015  18.187  0.00  0.00    +0.000 A 
ATOM      8  N   UNL     1      52.235   3.455  18.574  0.00  0.00    +0.000 NA
ATOM      9  C   UNL     1      52.431   2.264  18.116  0.00  0.00    +0.000 A 
ATOM     10  N   UNL     1      51.563   1.584  17.298  0.00  0.00    +0.000 N 
ATOM     11  C   UNL     1      50.374   2.125  16.855  0.00  0.00    +0.000 A 
ATOM     12  O   UNL     1      49.637   1.529  16.073  0.00  0.00    +0.000 OA
ATOM     13  C   UNL     1      50.096   3.447  17.373  0.00  0.00    +0.000 A 
ATOM     14  H   UNL     1      51.794   0.663  16.959  0.00  0.00    +0.000 HD
ENDBRANCH   3   4
BRANCH   3  15
ATOM     15  N   UNL     1      46.717   3.408  17.317  0.00  0.00    +0.000 NA
ATOM     16  H   UNL     1      46.949   3.708  18.256  0.00  0.00    +0.000 HD
ATOM     17  H   UNL     1      46.842   2.396  17.305  0.00  0.00    +0.000 HD
ENDBRANCH   3  15
ENDBRANCH   1   3
BRANCH   1  18
ATOM     18  C   UNL     1      47.649   5.424  14.465  0.00  0.00    +0.000 C 
BRANCH  18  19
ATOM     19  C   UNL     1      46.592   5.373  13.394  0.00  0.00    +0.000 A 
ATOM     20  C   UNL     1      46.655   6.174  12.254  0.00  0.00    +0.000 A 
ATOM     21  C   UNL     1      45.703   6.023  11.249  0.00  0.00    +0.000 A 
ATOM     22  C   UNL     1      44.705   5.063  11.402  0.00  0.00    +0.000 A 
ATOM     23  N   UNL     1      44.608   4.284  12.508  0.00  0.00    +0.000 NA
ATOM     24  C   UNL     1      45.542   4.459  13.471  0.00  0.00    +0.000 A 
BRANCH  22  25
ATOM     25  C   UNL     1      43.667   4.858  10.314  0.00  0.00    +0.000 C 
BRANCH  25  26
ATOM     26  N   UNL     1      44.210   4.361   9.042  0.00  0.00    +0.000 NA
ATOM     27  H   UNL     1      45.090   4.861   8.887  0.00  0.00    +0.000 HD
BRANCH  26  28
ATOM     28  C   UNL     1      44.529   2.939   9.108  0.00  0.00    +0.000 C 
BRANCH  28  29
ATOM     29  C   UNL     1      45.667   2.661   8.191  0.00  0.00    +0.000 A 
ATOM     30  C   UNL     1      46.305   3.464   7.266  0.00  0.00    +0.000 A 
ATOM     31  C   UNL     1      47.331   2.695   6.666  0.00  0.00    +0.000 A 
ATOM     32  C   UNL     1      47.290   1.442   7.234  0.00  0.00    +0.000 A 
ATOM     33  N   UNL     1      46.273   1.427   8.150  0.00  0.00    +0.000 N 
ATOM     34  H   UNL     1      45.974   0.629   8.696  0.00  0.00    +0.000 HD
ENDBRANCH  28  29
ENDBRANCH  26  28
ENDBRANCH  25  26
ENDBRANCH  22  25
ENDBRANCH  18  19
ENDBRANCH   1  18
TORSDOF 9
ENDMDL
MODEL 2
REMARK VINA RESULT:    -7.924      2.123      2.775
REMARK INTER + INTRA:         -12.655
REMARK INTER:                 -11.598
REMARK INTRA:                  -1.057
REMARK UNBOUND:                -0.794
REMARK  Name = 
REMARK  9 active torsions:
REMARK  status: ('A' for Active; 'I' for Inactive)
REMARK    1  A    between atoms: N_1  and  C_2
REMARK    2  A    between atoms: C_2  and  N_3
REMARK    3  A    between atoms: C_2  and  C_19
REMARK    4  A    between atoms: N_3  and  C_4
REMARK    5  A    between atoms: C_4  and  C_5
REMARK    6  A    between atoms: C_8  and  C_9
REMARK    7  A    between atoms: C_9  and  N_10
REMARK    8  A    between atoms: N_10  and  C_11
REMARK    9  A    between atoms: C_11  and  C_12
REMARK                            x       y       z     vdW  Elec       q    Type
REMARK                         _______ _______ _______ _____ _____    ______ ____
ROOT
ATOM      1  N   UNL     1      47.382   7.687  14.327  0.00  0.00    +0.000 NA
ATOM      2  H   UNL     1      47.103   8.475  14.917  0.00  0.00    +0.000 HD
ENDROOT
BRANCH   1   3
ATOM      3  C   UNL     1      48.796   7.490  14.585  0.00  0.00    +0.000 C 
BRANCH   3   4
ATOM      4  C   UNL     1      48.966   6.782  15.919  0.00  0.00    +0.000 A 
ATOM      5  C   UNL     1      49.677   7.272  17.014  0.00  0.00    +0.000 A 
ATOM      6  S   UNL     1      49.625   6.267  18.386  0.00  0.00    +0.000 S 
ATOM      7  C   UNL     1      48.648   5.133  17.584  0.00  0.00    +0.000 A 
ATOM      8  N   UNL     1      48.216   4.008  18.214  0.00  0.00    +0.000 NA
ATOM      9  C   UNL     1      47.476   3.243  17.482  0.00  0.00    +0.000 A 
ATOM     10  N   UNL     1      47.137   3.493  16.176  0.00  0.00    +0.000 N 
ATOM     11  C   UNL     1      47.577   4.605  15.489  0.00  0.00    +0.000 A 
ATOM     12  O   UNL     1      47.317   4.784  14.301  0.00  0.00    +0.000 OA
ATOM     13  C   UNL     1      48.382   5.510  16.281  0.00  0.00    +0.000 A 
ATOM     14  H   UNL     1      46.572   2.837  15.659  0.00  0.00    +0.000 HD
ENDBRANCH   3   4
BRANCH   3  15
ATOM     15  N   UNL     1      49.290   6.614  13.550  0.00  0.00    +0.000 NA
ATOM     16  H   UNL     1      49.299   7.104  12.664  0.00  0.00    +0.000 HD
ATOM     17  H   UNL     1      48.585   5.882  13.462  0.00  0.00    +0.000 HD
ENDBRANCH   3  15
ENDBRANCH   1   3
BRANCH   1  18
ATOM     18  C   UNL     1      47.087   8.073  12.943  0.00  0.00    +0.000 C 
BRANCH  18  19
ATOM     19  C   UNL     1      46.167   7.104  12.248  0.00  0.00    +0.000 A 
ATOM     20  C   UNL     1      46.518   6.479  11.051  0.00  0.00    +0.000 A 
ATOM     21  C   UNL     1      45.673   5.522  10.498  0.00  0.00    +0.000 A 
ATOM     22  C   UNL     1      44.489   5.202  11.158  0.00  0.00    +0.000 A 
ATOM     23  N   UNL     1      44.112   5.808  12.312  0.00  0.00    +0.000 NA
ATOM     24  C   UNL     1      44.950   6.740  12.822  0.00  0.00    +0.000 A 
BRANCH  22  25
ATOM     25  C   UNL     1      43.558   4.147  10.592  0.00  0.00    +0.000 C 
BRANCH  25  26
ATOM     26  N   UNL     1      43.927   3.664   9.254  0.00  0.00    +0.000 NA
ATOM     27  H   UNL     1      44.615   4.327   8.886  0.00  0.00    +0.000 HD
BRANCH  26  28
ATOM     28  C   UNL     1      44.575   2.358   9.308  0.00  0.00    +0.000 C 
BRANCH  28  29
ATOM     29  C   UNL     1      45.685   2.333   8.318  0.00  0.00    +0.000 A 
ATOM     30  C   UNL     1      46.211   3.328   7.518  0.00  0.00    +0.000 A 
ATOM     31  C   UNL     1      47.265   2.759   6.764  0.00  0.00    +0.000 A 
ATOM     32  C   UNL     1      47.352   1.432   7.116  0.00  0.00    +0.000 A 
ATOM     33  N   UNL     1      46.385   1.180   8.052  0.00  0.00    +0.000 N 
ATOM     34  H   UNL     1      46.177   0.280   8.468  0.00  0.00    +0.000 HD
ENDBRANCH  28  29
ENDBRANCH  26  28
ENDBRANCH  25  26
ENDBRANCH  22  25
ENDBRANCH  18  19
ENDBRANCH   1  18
TORSDOF 9
ENDMDL
MODEL 3
REMARK VINA RESULT:    -7.343      3.160      8.788
REMARK INTER + INTRA:         -11.785
REMARK INTER:                 -10.553
REMARK INTRA:                  -1.232
REMARK UNBOUND:                -0.794
REMARK  Name = 
REMARK  9 active torsions:
REMARK  status: ('A' for Active; 'I' for Inactive)
REMARK    1  A    between atoms: N_1  and  C_2
REMARK    2  A    between atoms: C_2  and  N_3
REMARK    3  A    between atoms: C_2  and  C_19
REMARK    4  A    between atoms: N_3  and  C_4
REMARK    5  A    between atoms: C_4  and  C_5
REMARK    6  A    between atoms: C_8  and  C_9
REMARK    7  A    between atoms: C_9  and  N_10
REMARK    8  A    between atoms: N_10  and  C_11
REMARK    9  A    between atoms: C_11  and  C_12
REMARK                            x       y       z     vdW  Elec       q    Type
REMARK                         _______ _______ _______ _____ _____    ______ ____
ROOT
ATOM      1  N   UNL     1      45.284   6.980  12.291  0.00  0.00    +0.000 NA
ATOM      2  H   UNL     1      44.883   6.373  13.011  0.00  0.00    +0.000 HD
ENDROOT
BRANCH   1   3
ATOM      3  C   UNL     1      44.569   6.658  11.071  0.00  0.00    +0.000 C 
BRANCH   3   4
ATOM      4  C   UNL     1      44.282   5.166  11.040  0.00  0.00    +0.000 A 
ATOM      5  C   UNL     1      43.467   4.476  11.936  0.00  0.00    +0.000 A 
ATOM      6  S   UNL     1      43.298   2.818  11.591  0.00  0.00    +0.000 S 
ATOM      7  C   UNL     1      44.300   2.944  10.226  0.00  0.00    +0.000 A 
ATOM      8  N   UNL     1      44.563   1.863   9.446  0.00  0.00    +0.000 NA
ATOM      9  C   UNL     1      45.335   2.111   8.441  0.00  0.00    +0.000 A 
ATOM     10  N   UNL     1      45.876   3.339   8.149  0.00  0.00    +0.000 N 
ATOM     11  C   UNL     1      45.661   4.455   8.930  0.00  0.00    +0.000 A 
ATOM     12  O   UNL     1      46.202   5.533   8.691  0.00  0.00    +0.000 OA
ATOM     13  C   UNL     1      44.772   4.232  10.049  0.00  0.00    +0.000 A 
ATOM     14  H   UNL     1      46.490   3.453   7.357  0.00  0.00    +0.000 HD
ENDBRANCH   3   4
BRANCH   3  15
ATOM     15  N   UNL     1      43.306   7.352  11.133  0.00  0.00    +0.000 NA
ATOM     16  H   UNL     1      42.616   6.766  11.587  0.00  0.00    +0.000 HD
ATOM     17  H   UNL     1      43.005   7.445  10.163  0.00  0.00    +0.000 HD
ENDBRANCH   3  15
ENDBRANCH   1   3
BRANCH   1  18
ATOM     18  C   UNL     1      46.716   6.671  12.230  0.00  0.00    +0.000 C 
BRANCH  18  19
ATOM     19  C   UNL     1      47.150   5.692  13.289  0.00  0.00    +0.000 A 
ATOM     20  C   UNL     1      47.715   6.108  14.495  0.00  0.00    +0.000 A 
ATOM     21  C   UNL     1      48.013   5.168  15.479  0.00  0.00    +0.000 A 
ATOM     22  C   UNL     1      47.732   3.825  15.239  0.00  0.00    +0.000 A 
ATOM     23  N   UNL     1      47.201   3.391  14.069  0.00  0.00    +0.000 NA
ATOM     24  C   UNL     1      46.929   4.325  13.129  0.00  0.00    +0.000 A 
BRANCH  22  25
ATOM     25  C   UNL     1      48.023   2.781  16.300  0.00  0.00    +0.000 C 
BRANCH  25  26
ATOM     26  N   UNL     1      49.315   2.098  16.143  0.00  0.00    +0.000 NA
ATOM     27  H   UNL     1      49.878   2.683  15.519  0.00  0.00    +0.000 HD
BRANCH  26  28
ATOM     28  C   UNL     1      50.035   2.002  17.408  0.00  0.00    +0.000 C 
BRANCH  28  29
ATOM     29  C   UNL     1      50.344   3.375  17.889  0.00  0.00    +0.000 A 
ATOM     30  C   UNL     1      51.131   4.372  17.347  0.00  0.00    +0.000 A 
ATOM     31  C   UNL     1      51.073   5.485  18.218  0.00  0.00    +0.000 A 
ATOM     32  C   UNL     1      50.259   5.140  19.273  0.00  0.00    +0.000 A 
ATOM     33  N   UNL     1      49.828   3.856  19.070  0.00  0.00    +0.000 N 
ATOM     34  H   UNL     1      49.250   3.314  19.699  0.00  0.00    +0.000 HD
ENDBRANCH  28  29
ENDBRANCH  26  28
ENDBRANCH  25  26
ENDBRANCH  22  25
ENDBRANCH  18  19
ENDBRANCH   1  18
TORSDOF 9
ENDMDL
MODEL 4
REMARK VINA RESULT:    -7.158      2.495      3.010
REMARK INTER + INTRA:         -11.509
REMARK INTER:                 -10.606
REMARK INTRA:                  -0.903
REMARK UNBOUND:                -0.794
REMARK  Name = 
REMARK  9 active torsions:
REMARK  status: ('A' for Active; 'I' for Inactive)
REMARK    1  A    between atoms: N_1  and  C_2
REMARK    2  A    between atoms: C_2  and  N_3
REMARK    3  A    between atoms: C_2  and  C_19
REMARK    4  A    between atoms: N_3  and  C_4
REMARK    5  A    between atoms: C_4  and  C_5
REMARK    6  A    between atoms: C_8  and  C_9
REMARK    7  A    between atoms: C_9  and  N_10
REMARK    8  A    between atoms: N_10  and  C_11
REMARK    9  A    between atoms: C_11  and  C_12
REMARK                            x       y       z     vdW  Elec       q    Type
REMARK                         _______ _______ _______ _____ _____    ______ ____
ROOT
ATOM      1  N   UNL     1      48.451   5.879  14.570  0.00  0.00    +0.000 NA
ATOM      2  H   UNL     1      47.766   5.152  14.796  0.00  0.00    +0.000 HD
ENDROOT
BRANCH   1   3
ATOM      3  C   UNL     1      48.872   6.426  15.845  0.00  0.00    +0.000 C 
BRANCH   3   4
ATOM      4  C   UNL     1      48.640   5.391  16.934  0.00  0.00    +0.000 A 
ATOM      5  C   UNL     1      48.273   4.062  16.727  0.00  0.00    +0.000 A 
ATOM      6  S   UNL     1      48.154   3.142  18.153  0.00  0.00    +0.000 S 
ATOM      7  C   UNL     1      48.592   4.472  19.113  0.00  0.00    +0.000 A 
ATOM      8  N   UNL     1      48.698   4.359  20.463  0.00  0.00    +0.000 NA
ATOM      9  C   UNL     1      49.045   5.451  21.060  0.00  0.00    +0.000 A 
ATOM     10  N   UNL     1      49.286   6.647  20.432  0.00  0.00    +0.000 N 
ATOM     11  C   UNL     1      49.160   6.815  19.069  0.00  0.00    +0.000 A 
ATOM     12  O   UNL     1      49.319   7.908  18.528  0.00  0.00    +0.000 OA
ATOM     13  C   UNL     1      48.807   5.608  18.354  0.00  0.00    +0.000 A 
ATOM     14  H   UNL     1      49.532   7.466  20.967  0.00  0.00    +0.000 HD
ENDBRANCH   3   4
BRANCH   3  15
ATOM     15  N   UNL     1      50.293   6.659  15.749  0.00  0.00    +0.000 NA
ATOM     16  H   UNL     1      50.790   5.781  15.833  0.00  0.00    +0.000 HD
ATOM     17  H   UNL     1      50.531   7.199  16.580  0.00  0.00    +0.000 HD
ENDBRANCH   3  15
ENDBRANCH   1   3
BRANCH   1  18
ATOM     18  C   UNL     1      47.765   6.850  13.713  0.00  0.00    +0.000 C 
BRANCH  18  19
ATOM     19  C   UNL     1      46.669   6.231  12.885  0.00  0.00    +0.000 A 
ATOM     20  C   UNL     1      46.230   6.803  11.691  0.00  0.00    +0.000 A 
ATOM     21  C   UNL     1      45.280   6.142  10.917  0.00  0.00    +0.000 A 
ATOM     22  C   UNL     1      44.789   4.913  11.351  0.00  0.00    +0.000 A 
ATOM     23  N   UNL     1      45.183   4.344  12.519  0.00  0.00    +0.000 NA
ATOM     24  C   UNL     1      46.101   5.012  13.253  0.00  0.00    +0.000 A 
BRANCH  22  25
ATOM     25  C   UNL     1      43.770   4.158  10.519  0.00  0.00    +0.000 C 
BRANCH  25  26
ATOM     26  N   UNL     1      44.233   3.799   9.171  0.00  0.00    +0.000 NA
ATOM     27  H   UNL     1      45.081   4.345   9.000  0.00  0.00    +0.000 HD
BRANCH  26  28
ATOM     28  C   UNL     1      44.604   2.390   9.083  0.00  0.00    +0.000 C 
BRANCH  28  29
ATOM     29  C   UNL     1      45.808   2.266   8.218  0.00  0.00    +0.000 A 
ATOM     30  C   UNL     1      46.581   1.169   7.890  0.00  0.00    +0.000 A 
ATOM     31  C   UNL     1      47.609   1.613   7.026  0.00  0.00    +0.000 A 
ATOM     32  C   UNL     1      47.443   2.968   6.852  0.00  0.00    +0.000 A 
ATOM     33  N   UNL     1      46.355   3.357   7.586  0.00  0.00    +0.000 N 
ATOM     34  H   UNL     1      46.012   4.304   7.689  0.00  0.00    +0.000 HD
ENDBRANCH  28  29
ENDBRANCH  26  28
ENDBRANCH  25  26
ENDBRANCH  22  25
ENDBRANCH  18  19
ENDBRANCH   1  18
TORSDOF 9
ENDMDL
MODEL 5
REMARK VINA RESULT:    -7.157      2.438      3.329
REMARK INTER + INTRA:         -11.507
REMARK INTER:                 -10.389
REMARK INTRA:                  -1.118
REMARK UNBOUND:                -0.794
REMARK  Name = 
REMARK  9 active torsions:
REMARK  status: ('A' for Active; 'I' for Inactive)
REMARK    1  A    between atoms: N_1  and  C_2
REMARK    2  A    between atoms: C_2  and  N_3
REMARK    3  A    between atoms: C_2  and  C_19
REMARK    4  A    between atoms: N_3  and  C_4
REMARK    5  A    between atoms: C_4  and  C_5
REMARK    6  A    between atoms: C_8  and  C_9
REMARK    7  A    between atoms: C_9  and  N_10
REMARK    8  A    between atoms: N_10  and  C_11
REMARK    9  A    between atoms: C_11  and  C_12
REMARK                            x       y       z     vdW  Elec       q    Type
REMARK                         _______ _______ _______ _____ _____    ______ ____
ROOT
ATOM      1  N   UNL     1      49.681   6.616  14.313  0.00  0.00    +0.000 NA
ATOM      2  H   UNL     1      49.037   6.117  14.933  0.00  0.00    +0.000 HD
ENDROOT
BRANCH   1   3
ATOM      3  C   UNL     1      50.486   7.453  15.181  0.00  0.00    +0.000 C 
BRANCH   3   4
ATOM      4  C   UNL     1      49.659   7.860  16.390  0.00  0.00    +0.000 A 
ATOM      5  C   UNL     1      49.471   9.165  16.843  0.00  0.00    +0.000 A 
ATOM      6  S   UNL     1      48.435   9.293  18.188  0.00  0.00    +0.000 S 
ATOM      7  C   UNL     1      48.186   7.614  18.224  0.00  0.00    +0.000 A 
ATOM      8  N   UNL     1      47.366   7.045  19.148  0.00  0.00    +0.000 NA
ATOM      9  C   UNL     1      47.269   5.761  19.050  0.00  0.00    +0.000 A 
ATOM     10  N   UNL     1      47.922   4.992  18.119  0.00  0.00    +0.000 N 
ATOM     11  C   UNL     1      48.786   5.523  17.184  0.00  0.00    +0.000 A 
ATOM     12  O   UNL     1      49.412   4.815  16.397  0.00  0.00    +0.000 OA
ATOM     13  C   UNL     1      48.899   6.964  17.234  0.00  0.00    +0.000 A 
ATOM     14  H   UNL     1      47.815   3.989  18.117  0.00  0.00    +0.000 HD
ENDBRANCH   3   4
BRANCH   3  15
ATOM     15  N   UNL     1      51.582   6.638  15.646  0.00  0.00    +0.000 NA
ATOM     16  H   UNL     1      52.301   6.595  14.935  0.00  0.00    +0.000 HD
ATOM     17  H   UNL     1      51.200   5.695  15.719  0.00  0.00    +0.000 HD
ENDBRANCH   3  15
ENDBRANCH   1   3
BRANCH   1  18
ATOM     18  C   UNL     1      48.852   7.374  13.370  0.00  0.00    +0.000 C 
BRANCH  18  19
ATOM     19  C   UNL     1      47.655   6.599  12.887  0.00  0.00    +0.000 A 
ATOM     20  C   UNL     1      47.022   6.891  11.679  0.00  0.00    +0.000 A 
ATOM     21  C   UNL     1      45.978   6.085  11.233  0.00  0.00    +0.000 A 
ATOM     22  C   UNL     1      45.589   4.993  12.005  0.00  0.00    +0.000 A 
ATOM     23  N   UNL     1      46.173   4.697  13.194  0.00  0.00    +0.000 NA
ATOM     24  C   UNL     1      47.179   5.502  13.605  0.00  0.00    +0.000 A 
BRANCH  22  25
ATOM     25  C   UNL     1      44.470   4.083  11.535  0.00  0.00    +0.000 C 
BRANCH  25  26
ATOM     26  N   UNL     1      44.918   2.770  11.049  0.00  0.00    +0.000 NA
ATOM     27  H   UNL     1      44.604   2.082  11.739  0.00  0.00    +0.000 HD
BRANCH  26  28
ATOM     28  C   UNL     1      44.292   2.421   9.778  0.00  0.00    +0.000 C 
BRANCH  28  29
ATOM     29  C   UNL     1      45.323   2.476   8.706  0.00  0.00    +0.000 A 
ATOM     30  C   UNL     1      45.699   3.501   7.860  0.00  0.00    +0.000 A 
ATOM     31  C   UNL     1      46.737   3.012   7.031  0.00  0.00    +0.000 A 
ATOM     32  C   UNL     1      46.964   1.702   7.386  0.00  0.00    +0.000 A 
ATOM     33  N   UNL     1      46.096   1.382   8.395  0.00  0.00    +0.000 N 
ATOM     34  H   UNL     1      45.998   0.475   8.833  0.00  0.00    +0.000 HD
ENDBRANCH  28  29
ENDBRANCH  26  28
ENDBRANCH  25  26
ENDBRANCH  22  25
ENDBRANCH  18  19
ENDBRANCH   1  18
TORSDOF 9
ENDMDL
MODEL 6
REMARK VINA RESULT:    -7.059      2.142      2.414
REMARK INTER + INTRA:         -11.361
REMARK INTER:                 -10.440
REMARK INTRA:                  -0.922
REMARK UNBOUND:                -0.794
REMARK  Name = 
REMARK  9 active torsions:
REMARK  status: ('A' for Active; 'I' for Inactive)
REMARK    1  A    between atoms: N_1  and  C_2
REMARK    2  A    between atoms: C_2  and  N_3
REMARK    3  A    between atoms: C_2  and  C_19
REMARK    4  A    between atoms: N_3  and  C_4
REMARK    5  A    between atoms: C_4  and  C_5
REMARK    6  A    between atoms: C_8  and  C_9
REMARK    7  A    between atoms: C_9  and  N_10
REMARK    8  A    between atoms: N_10  and  C_11
REMARK    9  A    between atoms: C_11  and  C_12
REMARK                            x       y       z     vdW  Elec       q    Type
REMARK                         _______ _______ _______ _____ _____    ______ ____
ROOT
ATOM      1  N   UNL     1      47.357   5.509  15.734  0.00  0.00    +0.000 NA
ATOM      2  H   UNL     1      47.723   6.419  16.027  0.00  0.00    +0.000 HD
ENDROOT
BRANCH   1   3
ATOM      3  C   UNL     1      47.865   4.556  16.701  0.00  0.00    +0.000 C 
BRANCH   3   4
ATOM      4  C   UNL     1      48.181   5.282  17.999  0.00  0.00    +0.000 A 
ATOM      5  C   UNL     1      47.361   5.326  19.126  0.00  0.00    +0.000 A 
ATOM      6  S   UNL     1      48.031   6.170  20.443  0.00  0.00    +0.000 S 
ATOM      7  C   UNL     1      49.449   6.511  19.573  0.00  0.00    +0.000 A 
ATOM      8  N   UNL     1      50.470   7.208  20.138  0.00  0.00    +0.000 NA
ATOM      9  C   UNL     1      51.485   7.386  19.360  0.00  0.00    +0.000 A 
ATOM     10  N   UNL     1      51.569   6.939  18.065  0.00  0.00    +0.000 N 
ATOM     11  C   UNL     1      50.546   6.256  17.441  0.00  0.00    +0.000 A 
ATOM     12  O   UNL     1      50.612   5.917  16.261  0.00  0.00    +0.000 OA
ATOM     13  C   UNL     1      49.401   6.003  18.288  0.00  0.00    +0.000 A 
ATOM     14  H   UNL     1      52.387   7.135  17.508  0.00  0.00    +0.000 HD
ENDBRANCH   3   4
BRANCH   3  15
ATOM     15  N   UNL     1      46.797   3.621  16.964  0.00  0.00    +0.000 NA
ATOM     16  H   UNL     1      46.304   3.892  17.805  0.00  0.00    +0.000 HD
ATOM     17  H   UNL     1      47.263   2.740  17.181  0.00  0.00    +0.000 HD
ENDBRANCH   3  15
ENDBRANCH   1   3
BRANCH   1  18
ATOM     18  C   UNL     1      47.847   5.279  14.371  0.00  0.00    +0.000 C 
BRANCH  18  19
ATOM     19  C   UNL     1      46.744   4.951  13.399  0.00  0.00    +0.000 A 
ATOM     20  C   UNL     1      46.264   5.885  12.481  0.00  0.00    +0.000 A 
ATOM     21  C   UNL     1      45.309   5.504  11.543  0.00  0.00    +0.000 A 
ATOM     22  C   UNL     1      44.854   4.188  11.536  0.00  0.00    +0.000 A 
ATOM     23  N   UNL     1      45.288   3.264  12.429  0.00  0.00    +0.000 NA
ATOM     24  C   UNL     1      46.210   3.664  13.334  0.00  0.00    +0.000 A 
BRANCH  22  25
ATOM     25  C   UNL     1      43.831   3.737  10.511  0.00  0.00    +0.000 C 
BRANCH  25  26
ATOM     26  N   UNL     1      44.374   2.883   9.445  0.00  0.00    +0.000 NA
ATOM     27  H   UNL     1      43.607   2.279   9.137  0.00  0.00    +0.000 HD
BRANCH  26  28
ATOM     28  C   UNL     1      44.797   3.664   8.287  0.00  0.00    +0.000 C 
BRANCH  28  29
ATOM     29  C   UNL     1      45.910   2.949   7.607  0.00  0.00    +0.000 A 
ATOM     30  C   UNL     1      46.689   3.302   6.523  0.00  0.00    +0.000 A 
ATOM     31  C   UNL     1      47.609   2.251   6.295  0.00  0.00    +0.000 A 
ATOM     32  C   UNL     1      47.366   1.281   7.241  0.00  0.00    +0.000 A 
ATOM     33  N   UNL     1      46.329   1.708   8.026  0.00  0.00    +0.000 N 
ATOM     34  H   UNL     1      45.898   1.188   8.780  0.00  0.00    +0.000 HD
ENDBRANCH  28  29
ENDBRANCH  26  28
ENDBRANCH  25  26
ENDBRANCH  22  25
ENDBRANCH  18  19
ENDBRANCH   1  18
TORSDOF 9
ENDMDL
MODEL 7
REMARK VINA RESULT:    -7.058      3.308      8.711
REMARK INTER + INTRA:         -11.359
REMARK INTER:                  -9.977
REMARK INTRA:                  -1.381
REMARK UNBOUND:                -0.794
REMARK  Name = 
REMARK  9 active torsions:
REMARK  status: ('A' for Active; 'I' for Inactive)
REMARK    1  A    between atoms: N_1  and  C_2
REMARK    2  A    between atoms: C_2  and  N_3
REMARK    3  A    between atoms: C_2  and  C_19
REMARK    4  A    between atoms: N_3  and  C_4
REMARK    5  A    between atoms: C_4  and  C_5
REMARK    6  A    between atoms: C_8  and  C_9
REMARK    7  A    between atoms: C_9  and  N_10
REMARK    8  A    between atoms: N_10  and  C_11
REMARK    9  A    between atoms: C_11  and  C_12
REMARK                            x       y       z     vdW  Elec       q    Type
REMARK                         _______ _______ _______ _____ _____    ______ ____
ROOT
ATOM      1  N   UNL     1      46.603   6.845  11.601  0.00  0.00    +0.000 NA
ATOM      2  H   UNL     1      47.020   6.808  10.667  0.00  0.00    +0.000 HD
ENDROOT
BRANCH   1   3
ATOM      3  C   UNL     1      45.169   6.852  11.385  0.00  0.00    +0.000 C 
BRANCH   3   4
ATOM      4  C   UNL     1      44.650   5.424  11.429  0.00  0.00    +0.000 A 
ATOM      5  C   UNL     1      43.927   4.854  12.477  0.00  0.00    +0.000 A 
ATOM      6  S   UNL     1      43.434   3.251  12.192  0.00  0.00    +0.000 S 
ATOM      7  C   UNL     1      44.158   3.244  10.656  0.00  0.00    +0.000 A 
ATOM      8  N   UNL     1      44.090   2.149   9.853  0.00  0.00    +0.000 NA
ATOM      9  C   UNL     1      44.680   2.292   8.713  0.00  0.00    +0.000 A 
ATOM     10  N   UNL     1      45.339   3.425   8.306  0.00  0.00    +0.000 N 
ATOM     11  C   UNL     1      45.460   4.546   9.099  0.00  0.00    +0.000 A 
ATOM     12  O   UNL     1      46.107   5.530   8.746  0.00  0.00    +0.000 OA
ATOM     13  C   UNL     1      44.783   4.444  10.374  0.00  0.00    +0.000 A 
ATOM     14  H   UNL     1      45.797   3.456   7.408  0.00  0.00    +0.000 HD
ENDBRANCH   3   4
BRANCH   3  15
ATOM     15  N   UNL     1      44.585   7.572  12.491  0.00  0.00    +0.000 NA
ATOM     16  H   UNL     1      43.723   7.123  12.774  0.00  0.00    +0.000 HD
ATOM     17  H   UNL     1      44.319   8.479  12.108  0.00  0.00    +0.000 HD
ENDBRANCH   3  15
ENDBRANCH   1   3
BRANCH   1  18
ATOM     18  C   UNL     1      47.106   8.067  12.238  0.00  0.00    +0.000 C 
BRANCH  18  19
ATOM     19  C   UNL     1      48.167   7.795  13.271  0.00  0.00    +0.000 A 
ATOM     20  C   UNL     1      49.132   8.744  13.609  0.00  0.00    +0.000 A 
ATOM     21  C   UNL     1      50.033   8.478  14.637  0.00  0.00    +0.000 A 
ATOM     22  C   UNL     1      49.947   7.264  15.315  0.00  0.00    +0.000 A 
ATOM     23  N   UNL     1      49.032   6.315  14.994  0.00  0.00    +0.000 NA
ATOM     24  C   UNL     1      48.175   6.598  13.987  0.00  0.00    +0.000 A 
BRANCH  22  25
ATOM     25  C   UNL     1      50.899   6.954  16.454  0.00  0.00    +0.000 C 
BRANCH  25  26
ATOM     26  N   UNL     1      51.117   5.521  16.691  0.00  0.00    +0.000 NA
ATOM     27  H   UNL     1      52.131   5.382  16.724  0.00  0.00    +0.000 HD
BRANCH  26  28
ATOM     28  C   UNL     1      50.583   5.097  17.982  0.00  0.00    +0.000 C 
BRANCH  28  29
ATOM     29  C   UNL     1      49.310   4.361  17.755  0.00  0.00    +0.000 A 
ATOM     30  C   UNL     1      49.060   3.014  17.577  0.00  0.00    +0.000 A 
ATOM     31  C   UNL     1      47.664   2.858  17.405  0.00  0.00    +0.000 A 
ATOM     32  C   UNL     1      47.098   4.111  17.476  0.00  0.00    +0.000 A 
ATOM     33  N   UNL     1      48.105   5.017  17.679  0.00  0.00    +0.000 N 
ATOM     34  H   UNL     1      48.001   6.022  17.731  0.00  0.00    +0.000 HD
ENDBRANCH  28  29
ENDBRANCH  26  28
ENDBRANCH  25  26
ENDBRANCH  22  25
ENDBRANCH  18  19
ENDBRANCH   1  18
TORSDOF 9
ENDMDL
MODEL 8
REMARK VINA RESULT:    -6.515      2.456      3.407
REMARK INTER + INTRA:         -10.547
REMARK INTER:                  -9.524
REMARK INTRA:                  -1.023
REMARK UNBOUND:                -0.794
REMARK  Name = 
REMARK  9 active torsions:
REMARK  status: ('A' for Active; 'I' for Inactive)
REMARK    1  A    between atoms: N_1  and  C_2
REMARK    2  A    between atoms: C_2  and  N_3
REMARK    3  A    between atoms: C_2  and  C_19
REMARK    4  A    between atoms: N_3  and  C_4
REMARK    5  A    between atoms: C_4  and  C_5
REMARK    6  A    between atoms: C_8  and  C_9
REMARK    7  A    between atoms: C_9  and  N_10
REMARK    8  A    between atoms: N_10  and  C_11
REMARK    9  A    between atoms: C_11  and  C_12
REMARK                            x       y       z     vdW  Elec       q    Type
REMARK                         _______ _______ _______ _____ _____    ______ ____
ROOT
ATOM      1  N   UNL     1      49.683   6.735  14.004  0.00  0.00    +0.000 NA
ATOM      2  H   UNL     1      49.092   6.247  14.683  0.00  0.00    +0.000 HD
ENDROOT
BRANCH   1   3
ATOM      3  C   UNL     1      50.492   7.652  14.783  0.00  0.00    +0.000 C 
BRANCH   3   4
ATOM      4  C   UNL     1      51.280   6.868  15.819  0.00  0.00    +0.000 A 
ATOM      5  C   UNL     1      52.670   6.838  15.931  0.00  0.00    +0.000 A 
ATOM      6  S   UNL     1      53.244   5.914  17.239  0.00  0.00    +0.000 S 
ATOM      7  C   UNL     1      51.666   5.514  17.721  0.00  0.00    +0.000 A 
ATOM      8  N   UNL     1      51.439   4.739  18.814  0.00  0.00    +0.000 NA
ATOM      9  C   UNL     1      50.190   4.524  19.061  0.00  0.00    +0.000 A 
ATOM     10  N   UNL     1      49.146   5.006  18.311  0.00  0.00    +0.000 N 
ATOM     11  C   UNL     1      49.330   5.769  17.178  0.00  0.00    +0.000 A 
ATOM     12  O   UNL     1      48.388   6.141  16.481  0.00  0.00    +0.000 OA
ATOM     13  C   UNL     1      50.715   6.065  16.881  0.00  0.00    +0.000 A 
ATOM     14  H   UNL     1      48.194   4.778  18.553  0.00  0.00    +0.000 HD
ENDBRANCH   3   4
BRANCH   3  15
ATOM     15  N   UNL     1      51.434   8.255  13.870  0.00  0.00    +0.000 NA
ATOM     16  H   UNL     1      51.449   9.258  14.009  0.00  0.00    +0.000 HD
ATOM     17  H   UNL     1      51.039   8.104  12.942  0.00  0.00    +0.000 HD
ENDBRANCH   3  15
ENDBRANCH   1   3
BRANCH   1  18
ATOM     18  C   UNL     1      48.779   7.403  13.063  0.00  0.00    +0.000 C 
BRANCH  18  19
ATOM     19  C   UNL     1      47.422   6.755  12.993  0.00  0.00    +0.000 A 
ATOM     20  C   UNL     1      47.241   5.390  13.216  0.00  0.00    +0.000 A 
ATOM     21  C   UNL     1      45.955   4.857  13.232  0.00  0.00    +0.000 A 
ATOM     22  C   UNL     1      44.868   5.704  13.030  0.00  0.00    +0.000 A 
ATOM     23  N   UNL     1      45.016   7.032  12.791  0.00  0.00    +0.000 NA
ATOM     24  C   UNL     1      46.277   7.520  12.774  0.00  0.00    +0.000 A 
BRANCH  22  25
ATOM     25  C   UNL     1      43.454   5.158  13.065  0.00  0.00    +0.000 C 
BRANCH  25  26
ATOM     26  N   UNL     1      43.120   4.265  11.946  0.00  0.00    +0.000 NA
ATOM     27  H   UNL     1      42.117   4.070  12.019  0.00  0.00    +0.000 HD
BRANCH  26  28
ATOM     28  C   UNL     1      43.338   4.909  10.655  0.00  0.00    +0.000 C 
BRANCH  28  29
ATOM     29  C   UNL     1      44.174   4.015   9.809  0.00  0.00    +0.000 A 
ATOM     30  C   UNL     1      44.529   2.690   9.964  0.00  0.00    +0.000 A 
ATOM     31  C   UNL     1      45.339   2.331   8.861  0.00  0.00    +0.000 A 
ATOM     32  C   UNL     1      45.463   3.446   8.063  0.00  0.00    +0.000 A 
ATOM     33  N   UNL     1      44.761   4.464   8.650  0.00  0.00    +0.000 N 
ATOM     34  H   UNL     1      44.703   5.418   8.316  0.00  0.00    +0.000 HD
ENDBRANCH  28  29
ENDBRANCH  26  28
ENDBRANCH  25  26
ENDBRANCH  22  25
ENDBRANCH  18  19
ENDBRANCH   1  18
TORSDOF 9
ENDMDL
MODEL 9
REMARK VINA RESULT:    -6.286      4.130      8.872
REMARK INTER + INTRA:         -10.204
REMARK INTER:                  -8.756
REMARK INTRA:                  -1.448
REMARK UNBOUND:                -0.794
REMARK  Name = 
REMARK  9 active torsions:
REMARK  status: ('A' for Active; 'I' for Inactive)
REMARK    1  A    between atoms: N_1  and  C_2
REMARK    2  A    between atoms: C_2  and  N_3
REMARK    3  A    between atoms: C_2  and  C_19
REMARK    4  A    between atoms: N_3  and  C_4
REMARK    5  A    between atoms: C_4  and  C_5
REMARK    6  A    between atoms: C_8  and  C_9
REMARK    7  A    between atoms: C_9  and  N_10
REMARK    8  A    between atoms: N_10  and  C_11
REMARK    9  A    between atoms: C_11  and  C_12
REMARK                            x       y       z     vdW  Elec       q    Type
REMARK                         _______ _______ _______ _____ _____    ______ ____
ROOT
ATOM      1  N   UNL     1      48.218   8.303  13.473  0.00  0.00    +0.000 NA
ATOM      2  H   UNL     1      48.980   8.477  12.812  0.00  0.00    +0.000 HD
ENDROOT
BRANCH   1   3
ATOM      3  C   UNL     1      47.005   8.313  12.679  0.00  0.00    +0.000 C 
BRANCH   3   4
ATOM      4  C   UNL     1      46.334   6.952  12.774  0.00  0.00    +0.000 A 
ATOM      5  C   UNL     1      46.854   5.834  13.424  0.00  0.00    +0.000 A 
ATOM      6  S   UNL     1      45.827   4.477  13.405  0.00  0.00    +0.000 S 
ATOM      7  C   UNL     1      44.639   5.320  12.533  0.00  0.00    +0.000 A 
ATOM      8  N   UNL     1      43.464   4.728  12.193  0.00  0.00    +0.000 NA
ATOM      9  C   UNL     1      42.656   5.492  11.537  0.00  0.00    +0.000 A 
ATOM     10  N   UNL     1      42.918   6.792  11.182  0.00  0.00    +0.000 N 
ATOM     11  C   UNL     1      44.108   7.423  11.479  0.00  0.00    +0.000 A 
ATOM     12  O   UNL     1      44.353   8.566  11.100  0.00  0.00    +0.000 OA
ATOM     13  C   UNL     1      45.031   6.614  12.245  0.00  0.00    +0.000 A 
ATOM     14  H   UNL     1      42.246   7.323  10.648  0.00  0.00    +0.000 HD
ENDBRANCH   3   4
BRANCH   3  15
ATOM     15  N   UNL     1      46.124   9.286  13.278  0.00  0.00    +0.000 NA
ATOM     16  H   UNL     1      45.819   9.949  12.575  0.00  0.00    +0.000 HD
ATOM     17  H   UNL     1      46.709   9.812  13.927  0.00  0.00    +0.000 HD
ENDBRANCH   3  15
ENDBRANCH   1   3
BRANCH   1  18
ATOM     18  C   UNL     1      48.274   9.375  14.471  0.00  0.00    +0.000 C 
BRANCH  18  19
ATOM     19  C   UNL     1      48.522   8.865  15.867  0.00  0.00    +0.000 A 
ATOM     20  C   UNL     1      48.166   9.600  16.997  0.00  0.00    +0.000 A 
ATOM     21  C   UNL     1      48.331   9.044  18.263  0.00  0.00    +0.000 A 
ATOM     22  C   UNL     1      48.846   7.755  18.374  0.00  0.00    +0.000 A 
ATOM     23  N   UNL     1      49.219   7.025  17.292  0.00  0.00    +0.000 NA
ATOM     24  C   UNL     1      49.054   7.594  16.077  0.00  0.00    +0.000 A 
BRANCH  22  25
ATOM     25  C   UNL     1      49.016   7.112  19.738  0.00  0.00    +0.000 C 
BRANCH  25  26
ATOM     26  N   UNL     1      48.017   6.082  20.053  0.00  0.00    +0.000 NA
ATOM     27  H   UNL     1      47.326   6.106  19.298  0.00  0.00    +0.000 HD
BRANCH  26  28
ATOM     28  C   UNL     1      48.601   4.744  20.058  0.00  0.00    +0.000 C 
BRANCH  28  29
ATOM     29  C   UNL     1      48.303   4.087  18.757  0.00  0.00    +0.000 A 
ATOM     30  C   UNL     1      48.976   3.100  18.064  0.00  0.00    +0.000 A 
ATOM     31  C   UNL     1      48.251   2.841  16.876  0.00  0.00    +0.000 A 
ATOM     32  C   UNL     1      47.159   3.679  16.871  0.00  0.00    +0.000 A 
ATOM     33  N   UNL     1      47.204   4.437  18.010  0.00  0.00    +0.000 N 
ATOM     34  H   UNL     1      46.556   5.173  18.263  0.00  0.00    +0.000 HD
ENDBRANCH  28  29
ENDBRANCH  26  28
ENDBRANCH  25  26
ENDBRANCH  22  25
ENDBRANCH  18  19
ENDBRANCH   1  18
TORSDOF 9
ENDMDL
