MODEL 1
REMARK VINA RESULT:    -7.381      0.000      0.000
REMARK INTER + INTRA:          -9.898
REMARK INTER:                  -9.323
REMARK INTRA:                  -0.575
REMARK UNBOUND:                -0.575
REMARK  Name = 
REMARK  5 active torsions:
REMARK  status: ('A' for Active; 'I' for Inactive)
REMARK    1  A    between atoms: N_1  and  C_2
REMARK    2  A    between atoms: C_2  and  C_3
REMARK    3  A    between atoms: C_3  and  C_4
REMARK    4  A    between atoms: C_8  and  C_9
REMARK    5  A    between atoms: C_9  and  N_10
REMARK                            x       y       z     vdW  Elec       q    Type
REMARK                         _______ _______ _______ _____ _____    ______ ____
ROOT
ATOM      1  C   UNL     1      46.906   4.896  13.605  0.00  0.00    +0.000 A 
ATOM      2  C   UNL     1      47.732   5.997  13.382  0.00  0.00    +0.000 A 
ATOM      3  C   UNL     1      47.539   6.836  12.278  0.00  0.00    +0.000 A 
ATOM      4  C   UNL     1      46.511   6.582  11.369  0.00  0.00    +0.000 A 
ATOM      5  C   UNL     1      45.644   5.500  11.566  0.00  0.00    +0.000 A 
ATOM      6  C   UNL     1      45.863   4.662  12.675  0.00  0.00    +0.000 A 
ENDROOT
BRANCH   1   7
ATOM      7  C   UNL     1      47.100   3.887  14.698  0.00  0.00    +0.000 C 
BRANCH   7   8
ATOM      8  C   UNL     1      47.227   4.446  16.135  0.00  0.00    +0.000 C 
BRANCH   8   9
ATOM      9  N   UNL     1      46.750   3.457  17.109  0.00  0.00    +0.000 NA
ATOM     10  H   UNL     1      47.409   2.681  17.154  0.00  0.00    +0.000 HD
ATOM     11  H   UNL     1      45.864   3.063  16.789  0.00  0.00    +0.000 HD
ENDBRANCH   8   9
ENDBRANCH   7   8
ENDBRANCH   1   7
BRANCH   5  12
ATOM     12  C   UNL     1      44.468   5.266  10.655  0.00  0.00    +0.000 C 
BRANCH  12  13
ATOM     13  N   UNL     1      44.490   3.962   9.999  0.00  0.00    +0.000 N 
ATOM     14  C   UNL     1      43.971   2.819  10.560  0.00  0.00    +0.000 A 
ATOM     15  C   UNL     1      44.239   1.768   9.714  0.00  0.00    +0.000 A 
ATOM     16  C   UNL     1      45.260   2.217   8.842  0.00  0.00    +0.000 A 
ATOM     17  C   UNL     1      46.196   1.556   8.025  0.00  0.00    +0.000 A 
ATOM     18  C   UNL     1      47.082   2.323   7.274  0.00  0.00    +0.000 A 
ATOM     19  F   UNL     1      48.067   1.712   6.602  0.00  0.00    +0.000 F 
ATOM     20  C   UNL     1      46.980   3.706   7.223  0.00  0.00    +0.000 A 
ATOM     21  C   UNL     1      46.062   4.382   8.034  0.00  0.00    +0.000 A 
ATOM     22  C   UNL     1      45.283   3.616   8.919  0.00  0.00    +0.000 A 
ENDBRANCH  12  13
ENDBRANCH   5  12
TORSDOF 5
ENDMDL
MODEL 2
REMARK VINA RESULT:    -7.040      2.898      6.721
REMARK INTER + INTRA:          -9.467
REMARK INTER:                  -8.900
REMARK INTRA:                  -0.567
REMARK UNBOUND:                -0.575
REMARK  Name = 
REMARK  5 active torsions:
REMARK  status: ('A' for Active; 'I' for Inactive)
REMARK    1  A    between atoms: N_1  and  C_2
REMARK    2  A    between atoms: C_2  and  C_3
REMARK    3  A    between atoms: C_3  and  C_4
REMARK    4  A    between atoms: C_8  and  C_9
REMARK    5  A    between atoms: C_9  and  N_10
REMARK                            x       y       z     vdW  Elec       q    Type
REMARK                         _______ _______ _______ _____ _____    ______ ____
ROOT
ATOM      1  C   UNL     1      45.923   3.370   7.765  0.00  0.00    +0.000 A 
ATOM      2  C   UNL     1      45.321   2.133   7.992  0.00  0.00    +0.000 A 
ATOM      3  C   UNL     1      44.595   1.884   9.164  0.00  0.00    +0.000 A 
ATOM      4  C   UNL     1      44.464   2.875  10.137  0.00  0.00    +0.000 A 
ATOM      5  C   UNL     1      45.033   4.139   9.941  0.00  0.00    +0.000 A 
ATOM      6  C   UNL     1      45.769   4.364   8.762  0.00  0.00    +0.000 A 
ENDROOT
BRANCH   1   7
ATOM      7  C   UNL     1      46.802   3.692   6.594  0.00  0.00    +0.000 C 
BRANCH   7   8
ATOM      8  C   UNL     1      47.051   2.546   5.585  0.00  0.00    +0.000 C 
BRANCH   8   9
ATOM      9  N   UNL     1      48.371   1.945   5.813  0.00  0.00    +0.000 NA
ATOM     10  H   UNL     1      48.271   1.123   6.408  0.00  0.00    +0.000 HD
ATOM     11  H   UNL     1      48.960   2.602   6.328  0.00  0.00    +0.000 HD
ENDBRANCH   8   9
ENDBRANCH   7   8
ENDBRANCH   1   7
BRANCH   5  12
ATOM     12  C   UNL     1      44.819   5.254  10.930  0.00  0.00    +0.000 C 
BRANCH  12  13
ATOM     13  N   UNL     1      45.738   5.212  12.063  0.00  0.00    +0.000 N 
ATOM     14  C   UNL     1      45.471   4.547  13.237  0.00  0.00    +0.000 A 
ATOM     15  C   UNL     1      46.505   4.787  14.110  0.00  0.00    +0.000 A 
ATOM     16  C   UNL     1      47.196   5.912  13.599  0.00  0.00    +0.000 A 
ATOM     17  C   UNL     1      48.078   6.849  14.170  0.00  0.00    +0.000 A 
ATOM     18  C   UNL     1      48.591   7.859  13.361  0.00  0.00    +0.000 A 
ATOM     19  F   UNL     1      49.318   8.836  13.920  0.00  0.00    +0.000 F 
ATOM     20  C   UNL     1      48.348   7.887  11.996  0.00  0.00    +0.000 A 
ATOM     21  C   UNL     1      47.467   6.970  11.410  0.00  0.00    +0.000 A 
ATOM     22  C   UNL     1      46.817   6.056  12.257  0.00  0.00    +0.000 A 
ENDBRANCH  12  13
ENDBRANCH   5  12
TORSDOF 5
ENDMDL
MODEL 3
REMARK VINA RESULT:    -6.974      1.702      2.515
REMARK INTER + INTRA:          -9.383
REMARK INTER:                  -8.828
REMARK INTRA:                  -0.555
REMARK UNBOUND:                -0.575
REMARK  Name = 
REMARK  5 active torsions:
REMARK  status: ('A' for Active; 'I' for Inactive)
REMARK    1  A    between atoms: N_1  and  C_2
REMARK    2  A    between atoms: C_2  and  C_3
REMARK    3  A    between atoms: C_3  and  C_4
REMARK    4  A    between atoms: C_8  and  C_9
REMARK    5  A    between atoms: C_9  and  N_10
REMARK                            x       y       z     vdW  Elec       q    Type
REMARK                         _______ _______ _______ _____ _____    ______ ____
ROOT
ATOM      1  C   UNL     1      47.082   6.438  12.309  0.00  0.00    +0.000 A 
ATOM      2  C   UNL     1      47.140   5.552  13.385  0.00  0.00    +0.000 A 
ATOM      3  C   UNL     1      46.250   4.476  13.487  0.00  0.00    +0.000 A 
ATOM      4  C   UNL     1      45.276   4.271  12.508  0.00  0.00    +0.000 A 
ATOM      5  C   UNL     1      45.195   5.122  11.400  0.00  0.00    +0.000 A 
ATOM      6  C   UNL     1      46.092   6.205  11.324  0.00  0.00    +0.000 A 
ENDROOT
BRANCH   1   7
ATOM      7  C   UNL     1      47.923   7.672  12.170  0.00  0.00    +0.000 C 
BRANCH   7   8
ATOM      8  C   UNL     1      47.231   9.015  12.502  0.00  0.00    +0.000 C 
BRANCH   8   9
ATOM      9  N   UNL     1      46.445   8.892  13.735  0.00  0.00    +0.000 NA
ATOM     10  H   UNL     1      46.034   9.796  13.967  0.00  0.00    +0.000 HD
ATOM     11  H   UNL     1      47.063   8.650  14.511  0.00  0.00    +0.000 HD
ENDBRANCH   8   9
ENDBRANCH   7   8
ENDBRANCH   1   7
BRANCH   5  12
ATOM     12  C   UNL     1      44.219   4.861  10.284  0.00  0.00    +0.000 C 
BRANCH  12  13
ATOM     13  N   UNL     1      44.486   3.626   9.554  0.00  0.00    +0.000 N 
ATOM     14  C   UNL     1      44.095   2.382   9.992  0.00  0.00    +0.000 A 
ATOM     15  C   UNL     1      44.583   1.446   9.111  0.00  0.00    +0.000 A 
ATOM     16  C   UNL     1      45.596   2.098   8.367  0.00  0.00    +0.000 A 
ATOM     17  C   UNL     1      46.683   1.637   7.601  0.00  0.00    +0.000 A 
ATOM     18  C   UNL     1      47.506   2.575   6.984  0.00  0.00    +0.000 A 
ATOM     19  F   UNL     1      48.622   2.160   6.370  0.00  0.00    +0.000 F 
ATOM     20  C   UNL     1      47.207   3.929   7.009  0.00  0.00    +0.000 A 
ATOM     21  C   UNL     1      46.136   4.408   7.772  0.00  0.00    +0.000 A 
ATOM     22  C   UNL     1      45.407   3.476   8.532  0.00  0.00    +0.000 A 
ENDBRANCH  12  13
ENDBRANCH   5  12
TORSDOF 5
ENDMDL
MODEL 4
REMARK VINA RESULT:    -6.869      1.999      2.850
REMARK INTER + INTRA:          -9.251
REMARK INTER:                  -8.664
REMARK INTRA:                  -0.587
REMARK UNBOUND:                -0.575
REMARK  Name = 
REMARK  5 active torsions:
REMARK  status: ('A' for Active; 'I' for Inactive)
REMARK    1  A    between atoms: N_1  and  C_2
REMARK    2  A    between atoms: C_2  and  C_3
REMARK    3  A    between atoms: C_3  and  C_4
REMARK    4  A    between atoms: C_8  and  C_9
REMARK    5  A    between atoms: C_9  and  N_10
REMARK                            x       y       z     vdW  Elec       q    Type
REMARK                         _______ _______ _______ _____ _____    ______ ____
ROOT
ATOM      1  C   UNL     1      47.938   7.023  12.204  0.00  0.00    +0.000 A 
ATOM      2  C   UNL     1      48.128   6.250  13.348  0.00  0.00    +0.000 A 
ATOM      3  C   UNL     1      47.145   5.355  13.790  0.00  0.00    +0.000 A 
ATOM      4  C   UNL     1      45.945   5.223  13.091  0.00  0.00    +0.000 A 
ATOM      5  C   UNL     1      45.721   5.963  11.924  0.00  0.00    +0.000 A 
ATOM      6  C   UNL     1      46.716   6.865  11.504  0.00  0.00    +0.000 A 
ENDROOT
BRANCH   1   7
ATOM      7  C   UNL     1      48.886   8.077  11.715  0.00  0.00    +0.000 C 
BRANCH   7   8
ATOM      8  C   UNL     1      50.334   7.618  11.424  0.00  0.00    +0.000 C 
BRANCH   8   9
ATOM      9  N   UNL     1      51.196   7.888  12.582  0.00  0.00    +0.000 NA
ATOM     10  H   UNL     1      51.861   7.124  12.695  0.00  0.00    +0.000 HD
ATOM     11  H   UNL     1      50.630   7.905  13.432  0.00  0.00    +0.000 HD
ENDBRANCH   8   9
ENDBRANCH   7   8
ENDBRANCH   1   7
BRANCH   5  12
ATOM     12  C   UNL     1      44.477   5.763  11.099  0.00  0.00    +0.000 C 
BRANCH  12  13
ATOM     13  N   UNL     1      44.349   4.415  10.555  0.00  0.00    +0.000 N 
ATOM     14  C   UNL     1      43.842   3.352  11.264  0.00  0.00    +0.000 A 
ATOM     15  C   UNL     1      43.949   2.226  10.482  0.00  0.00    +0.000 A 
ATOM     16  C   UNL     1      44.879   2.544   9.463  0.00  0.00    +0.000 A 
ATOM     17  C   UNL     1      45.672   1.766   8.599  0.00  0.00    +0.000 A 
ATOM     18  C   UNL     1      46.500   2.417   7.689  0.00  0.00    +0.000 A 
ATOM     19  F   UNL     1      47.362   1.697   6.959  0.00  0.00    +0.000 F 
ATOM     20  C   UNL     1      46.466   3.796   7.537  0.00  0.00    +0.000 A 
ATOM     21  C   UNL     1      45.691   4.587   8.392  0.00  0.00    +0.000 A 
ATOM     22  C   UNL     1      44.986   3.940   9.421  0.00  0.00    +0.000 A 
ENDBRANCH  12  13
ENDBRANCH   5  12
TORSDOF 5
ENDMDL
MODEL 5
REMARK VINA RESULT:    -6.783      2.758      6.513
REMARK INTER + INTRA:          -9.142
REMARK INTER:                  -8.442
REMARK INTRA:                  -0.700
REMARK UNBOUND:                -0.575
REMARK  Name = 
REMARK  5 active torsions:
REMARK  status: ('A' for Active; 'I' for Inactive)
REMARK    1  A    between atoms: N_1  and  C_2
REMARK    2  A    between atoms: C_2  and  C_3
REMARK    3  A    between atoms: C_3  and  C_4
REMARK    4  A    between atoms: C_8  and  C_9
REMARK    5  A    between atoms: C_9  and  N_10
REMARK                            x       y       z     vdW  Elec       q    Type
REMARK                         _______ _______ _______ _____ _____    ______ ____
ROOT
ATOM      1  C   UNL     1      45.805   3.460   8.025  0.00  0.00    +0.000 A 
ATOM      2  C   UNL     1      45.627   2.127   8.391  0.00  0.00    +0.000 A 
ATOM      3  C   UNL     1      44.800   1.775   9.465  0.00  0.00    +0.000 A 
ATOM      4  C   UNL     1      44.137   2.760  10.198  0.00  0.00    +0.000 A 
ATOM      5  C   UNL     1      44.270   4.109   9.852  0.00  0.00    +0.000 A 
ATOM      6  C   UNL     1      45.115   4.443   8.777  0.00  0.00    +0.000 A 
ENDROOT
BRANCH   1   7
ATOM      7  C   UNL     1      46.748   3.937   6.961  0.00  0.00    +0.000 C 
BRANCH   7   8
ATOM      8  C   UNL     1      47.163   2.896   5.894  0.00  0.00    +0.000 C 
BRANCH   8   9
ATOM      9  N   UNL     1      48.515   2.395   6.171  0.00  0.00    +0.000 NA
ATOM     10  H   UNL     1      48.746   2.566   7.149  0.00  0.00    +0.000 HD
ATOM     11  H   UNL     1      49.194   2.923   5.619  0.00  0.00    +0.000 HD
ENDBRANCH   8   9
ENDBRANCH   7   8
ENDBRANCH   1   7
BRANCH   5  12
ATOM     12  C   UNL     1      43.486   5.180  10.565  0.00  0.00    +0.000 C 
BRANCH  12  13
ATOM     13  N   UNL     1      44.317   6.077  11.361  0.00  0.00    +0.000 N 
ATOM     14  C   UNL     1      44.693   7.334  10.948  0.00  0.00    +0.000 A 
ATOM     15  C   UNL     1      45.536   7.861  11.898  0.00  0.00    +0.000 A 
ATOM     16  C   UNL     1      45.976   6.768  12.682  0.00  0.00    +0.000 A 
ATOM     17  C   UNL     1      47.075   6.570  13.539  0.00  0.00    +0.000 A 
ATOM     18  C   UNL     1      47.211   5.338  14.172  0.00  0.00    +0.000 A 
ATOM     19  F   UNL     1      48.322   5.086  14.878  0.00  0.00    +0.000 F 
ATOM     20  C   UNL     1      46.233   4.359  14.071  0.00  0.00    +0.000 A 
ATOM     21  C   UNL     1      45.138   4.533  13.218  0.00  0.00    +0.000 A 
ATOM     22  C   UNL     1      45.089   5.708  12.448  0.00  0.00    +0.000 A 
ENDBRANCH  12  13
ENDBRANCH   5  12
TORSDOF 5
ENDMDL
MODEL 6
REMARK VINA RESULT:    -6.563      2.781      6.337
REMARK INTER + INTRA:          -8.865
REMARK INTER:                  -8.395
REMARK INTRA:                  -0.470
REMARK UNBOUND:                -0.575
REMARK  Name = 
REMARK  5 active torsions:
REMARK  status: ('A' for Active; 'I' for Inactive)
REMARK    1  A    between atoms: N_1  and  C_2
REMARK    2  A    between atoms: C_2  and  C_3
REMARK    3  A    between atoms: C_3  and  C_4
REMARK    4  A    between atoms: C_8  and  C_9
REMARK    5  A    between atoms: C_9  and  N_10
REMARK                            x       y       z     vdW  Elec       q    Type
REMARK                         _______ _______ _______ _____ _____    ______ ____
ROOT
ATOM      1  C   UNL     1      46.210   2.164   7.977  0.00  0.00    +0.000 A 
ATOM      2  C   UNL     1      46.249   3.455   7.451  0.00  0.00    +0.000 A 
ATOM      3  C   UNL     1      45.438   4.472   7.968  0.00  0.00    +0.000 A 
ATOM      4  C   UNL     1      44.564   4.212   9.024  0.00  0.00    +0.000 A 
ATOM      5  C   UNL     1      44.508   2.936   9.597  0.00  0.00    +0.000 A 
ATOM      6  C   UNL     1      45.323   1.924   9.055  0.00  0.00    +0.000 A 
ENDROOT
BRANCH   1   7
ATOM      7  C   UNL     1      46.962   0.990   7.424  0.00  0.00    +0.000 C 
BRANCH   7   8
ATOM      8  C   UNL     1      47.352   1.067   5.929  0.00  0.00    +0.000 C 
BRANCH   8   9
ATOM      9  N   UNL     1      48.591   1.837   5.766  0.00  0.00    +0.000 NA
ATOM     10  H   UNL     1      48.477   2.757   6.191  0.00  0.00    +0.000 HD
ATOM     11  H   UNL     1      48.763   2.000   4.772  0.00  0.00    +0.000 HD
ENDBRANCH   8   9
ENDBRANCH   7   8
ENDBRANCH   1   7
BRANCH   5  12
ATOM     12  C   UNL     1      43.648   2.658  10.802  0.00  0.00    +0.000 C 
BRANCH  12  13
ATOM     13  N   UNL     1      43.735   3.689  11.831  0.00  0.00    +0.000 N 
ATOM     14  C   UNL     1      42.851   4.738  11.934  0.00  0.00    +0.000 A 
ATOM     15  C   UNL     1      43.279   5.557  12.953  0.00  0.00    +0.000 A 
ATOM     16  C   UNL     1      44.630   5.209  13.195  0.00  0.00    +0.000 A 
ATOM     17  C   UNL     1      45.704   5.872  13.818  0.00  0.00    +0.000 A 
ATOM     18  C   UNL     1      46.934   5.224  13.889  0.00  0.00    +0.000 A 
ATOM     19  F   UNL     1      47.998   5.894  14.351  0.00  0.00    +0.000 F 
ATOM     20  C   UNL     1      47.086   3.910  13.472  0.00  0.00    +0.000 A 
ATOM     21  C   UNL     1      46.032   3.237  12.842  0.00  0.00    +0.000 A 
ATOM     22  C   UNL     1      44.842   3.950  12.618  0.00  0.00    +0.000 A 
ENDBRANCH  12  13
ENDBRANCH   5  12
TORSDOF 5
ENDMDL
MODEL 7
REMARK VINA RESULT:    -6.083      3.493      7.001
REMARK INTER + INTRA:          -8.258
REMARK INTER:                  -7.727
REMARK INTRA:                  -0.531
REMARK UNBOUND:                -0.575
REMARK  Name = 
REMARK  5 active torsions:
REMARK  status: ('A' for Active; 'I' for Inactive)
REMARK    1  A    between atoms: N_1  and  C_2
REMARK    2  A    between atoms: C_2  and  C_3
REMARK    3  A    between atoms: C_3  and  C_4
REMARK    4  A    between atoms: C_8  and  C_9
REMARK    5  A    between atoms: C_9  and  N_10
REMARK                            x       y       z     vdW  Elec       q    Type
REMARK                         _______ _______ _______ _____ _____    ______ ____
ROOT
ATOM      1  C   UNL     1      45.776   3.303   8.177  0.00  0.00    +0.000 A 
ATOM      2  C   UNL     1      45.334   2.015   8.480  0.00  0.00    +0.000 A 
ATOM      3  C   UNL     1      44.493   1.777   9.575  0.00  0.00    +0.000 A 
ATOM      4  C   UNL     1      44.081   2.831  10.391  0.00  0.00    +0.000 A 
ATOM      5  C   UNL     1      44.482   4.142  10.110  0.00  0.00    +0.000 A 
ATOM      6  C   UNL     1      45.337   4.358   9.013  0.00  0.00    +0.000 A 
ENDROOT
BRANCH   1   7
ATOM      7  C   UNL     1      46.757   3.638   7.093  0.00  0.00    +0.000 C 
BRANCH   7   8
ATOM      8  C   UNL     1      47.674   2.487   6.616  0.00  0.00    +0.000 C 
BRANCH   8   9
ATOM      9  N   UNL     1      48.238   2.799   5.297  0.00  0.00    +0.000 NA
ATOM     10  H   UNL     1      48.206   3.807   5.145  0.00  0.00    +0.000 HD
ATOM     11  H   UNL     1      47.655   2.381   4.569  0.00  0.00    +0.000 HD
ENDBRANCH   8   9
ENDBRANCH   7   8
ENDBRANCH   1   7
BRANCH   5  12
ATOM     12  C   UNL     1      43.969   5.306  10.917  0.00  0.00    +0.000 C 
BRANCH  12  13
ATOM     13  N   UNL     1      45.026   6.181  11.413  0.00  0.00    +0.000 N 
ATOM     14  C   UNL     1      45.988   5.781  12.310  0.00  0.00    +0.000 A 
ATOM     15  C   UNL     1      46.762   6.873  12.623  0.00  0.00    +0.000 A 
ATOM     16  C   UNL     1      46.020   8.009  12.217  0.00  0.00    +0.000 A 
ATOM     17  C   UNL     1      46.070   9.373  12.562  0.00  0.00    +0.000 A 
ATOM     18  C   UNL     1      45.170  10.245  11.958  0.00  0.00    +0.000 A 
ATOM     19  F   UNL     1      45.111  11.516  12.377  0.00  0.00    +0.000 F 
ATOM     20  C   UNL     1      44.319   9.822  10.947  0.00  0.00    +0.000 A 
ATOM     21  C   UNL     1      44.248   8.469  10.595  0.00  0.00    +0.000 A 
ATOM     22  C   UNL     1      45.036   7.562  11.325  0.00  0.00    +0.000 A 
ENDBRANCH  12  13
ENDBRANCH   5  12
TORSDOF 5
ENDMDL
MODEL 8
REMARK VINA RESULT:    -5.717      4.087      7.125
REMARK INTER + INTRA:          -7.796
REMARK INTER:                  -7.128
REMARK INTRA:                  -0.668
REMARK UNBOUND:                -0.575
REMARK  Name = 
REMARK  5 active torsions:
REMARK  status: ('A' for Active; 'I' for Inactive)
REMARK    1  A    between atoms: N_1  and  C_2
REMARK    2  A    between atoms: C_2  and  C_3
REMARK    3  A    between atoms: C_3  and  C_4
REMARK    4  A    between atoms: C_8  and  C_9
REMARK    5  A    between atoms: C_9  and  N_10
REMARK                            x       y       z     vdW  Elec       q    Type
REMARK                         _______ _______ _______ _____ _____    ______ ____
ROOT
ATOM      1  C   UNL     1      44.357   5.691  11.727  0.00  0.00    +0.000 A 
ATOM      2  C   UNL     1      44.067   7.027  11.451  0.00  0.00    +0.000 A 
ATOM      3  C   UNL     1      45.008   8.037  11.687  0.00  0.00    +0.000 A 
ATOM      4  C   UNL     1      46.263   7.724  12.211  0.00  0.00    +0.000 A 
ATOM      5  C   UNL     1      46.605   6.395  12.482  0.00  0.00    +0.000 A 
ATOM      6  C   UNL     1      45.640   5.396  12.250  0.00  0.00    +0.000 A 
ENDROOT
BRANCH   1   7
ATOM      7  C   UNL     1      43.380   4.560  11.605  0.00  0.00    +0.000 C 
BRANCH   7   8
ATOM      8  C   UNL     1      43.794   3.221  12.261  0.00  0.00    +0.000 C 
BRANCH   8   9
ATOM      9  N   UNL     1      43.046   2.109  11.662  0.00  0.00    +0.000 NA
ATOM     10  H   UNL     1      43.258   2.055  10.667  0.00  0.00    +0.000 HD
ATOM     11  H   UNL     1      42.044   2.294  11.733  0.00  0.00    +0.000 HD
ENDBRANCH   8   9
ENDBRANCH   7   8
ENDBRANCH   1   7
BRANCH   5  12
ATOM     12  C   UNL     1      47.986   6.024  12.954  0.00  0.00    +0.000 C 
BRANCH  12  13
ATOM     13  N   UNL     1      48.221   6.323  14.362  0.00  0.00    +0.000 N 
ATOM     14  C   UNL     1      49.031   7.345  14.799  0.00  0.00    +0.000 A 
ATOM     15  C   UNL     1      49.093   7.285  16.171  0.00  0.00    +0.000 A 
ATOM     16  C   UNL     1      48.640   5.991  16.528  0.00  0.00    +0.000 A 
ATOM     17  C   UNL     1      48.793   5.195  17.678  0.00  0.00    +0.000 A 
ATOM     18  C   UNL     1      48.199   3.936  17.698  0.00  0.00    +0.000 A 
ATOM     19  F   UNL     1      48.451   3.112  18.725  0.00  0.00    +0.000 F 
ATOM     20  C   UNL     1      47.372   3.508  16.670  0.00  0.00    +0.000 A 
ATOM     21  C   UNL     1      47.215   4.281  15.514  0.00  0.00    +0.000 A 
ATOM     22  C   UNL     1      47.950   5.476  15.422  0.00  0.00    +0.000 A 
ENDBRANCH  12  13
ENDBRANCH   5  12
TORSDOF 5
ENDMDL
MODEL 9
REMARK VINA RESULT:    -5.684      3.387      7.491
REMARK INTER + INTRA:          -7.755
REMARK INTER:                  -7.334
REMARK INTRA:                  -0.421
REMARK UNBOUND:                -0.575
REMARK  Name = 
REMARK  5 active torsions:
REMARK  status: ('A' for Active; 'I' for Inactive)
REMARK    1  A    between atoms: N_1  and  C_2
REMARK    2  A    between atoms: C_2  and  C_3
REMARK    3  A    between atoms: C_3  and  C_4
REMARK    4  A    between atoms: C_8  and  C_9
REMARK    5  A    between atoms: C_9  and  N_10
REMARK                            x       y       z     vdW  Elec       q    Type
REMARK                         _______ _______ _______ _____ _____    ______ ____
ROOT
ATOM      1  C   UNL     1      44.242   4.232  10.530  0.00  0.00    +0.000 A 
ATOM      2  C   UNL     1      43.298   5.099  11.080  0.00  0.00    +0.000 A 
ATOM      3  C   UNL     1      43.359   5.474  12.428  0.00  0.00    +0.000 A 
ATOM      4  C   UNL     1      44.370   4.981  13.254  0.00  0.00    +0.000 A 
ATOM      5  C   UNL     1      45.350   4.126  12.738  0.00  0.00    +0.000 A 
ATOM      6  C   UNL     1      45.264   3.751  11.384  0.00  0.00    +0.000 A 
ENDROOT
BRANCH   1   7
ATOM      7  C   UNL     1      44.197   3.695   9.130  0.00  0.00    +0.000 C 
BRANCH   7   8
ATOM      8  C   UNL     1      45.492   3.842   8.296  0.00  0.00    +0.000 C 
BRANCH   8   9
ATOM      9  N   UNL     1      46.028   5.203   8.424  0.00  0.00    +0.000 NA
ATOM     10  H   UNL     1      46.453   5.484   7.541  0.00  0.00    +0.000 HD
ATOM     11  H   UNL     1      46.777   5.210   9.118  0.00  0.00    +0.000 HD
ENDBRANCH   8   9
ENDBRANCH   7   8
ENDBRANCH   1   7
BRANCH   5  12
ATOM     12  C   UNL     1      46.506   3.661  13.585  0.00  0.00    +0.000 C 
BRANCH  12  13
ATOM     13  N   UNL     1      47.118   4.728  14.371  0.00  0.00    +0.000 N 
ATOM     14  C   UNL     1      47.714   5.837  13.817  0.00  0.00    +0.000 A 
ATOM     15  C   UNL     1      48.256   6.584  14.836  0.00  0.00    +0.000 A 
ATOM     16  C   UNL     1      48.328   5.723  15.958  0.00  0.00    +0.000 A 
ATOM     17  C   UNL     1      49.078   5.745  17.149  0.00  0.00    +0.000 A 
ATOM     18  C   UNL     1      48.898   4.714  18.067  0.00  0.00    +0.000 A 
ATOM     19  F   UNL     1      49.702   4.645  19.136  0.00  0.00    +0.000 F 
ATOM     20  C   UNL     1      47.920   3.746  17.887  0.00  0.00    +0.000 A 
ATOM     21  C   UNL     1      47.171   3.702  16.706  0.00  0.00    +0.000 A 
ATOM     22  C   UNL     1      47.471   4.644  15.706  0.00  0.00    +0.000 A 
ENDBRANCH  12  13
ENDBRANCH   5  12
TORSDOF 5
ENDMDL
