MODEL 1
REMARK VINA RESULT:    -8.122      0.000      0.000
REMARK INTER + INTRA:         -11.230
REMARK INTER:                 -10.970
REMARK INTRA:                  -0.260
REMARK UNBOUND:                -0.260
REMARK  Name = 
REMARK  7 active torsions:
REMARK  status: ('A' for Active; 'I' for Inactive)
REMARK    1  A    between atoms: C_1  and  C_2
REMARK    2  A    between atoms: C_2  and  O_3
REMARK    3  A    between atoms: C_2  and  C_17
REMARK    4  A    between atoms: O_3  and  C_4
REMARK    5  A    between atoms: C_7  and  C_8
REMARK    6  A    between atoms: C_11  and  C_12
REMARK    7  A    between atoms: C_21  and  C_22
REMARK                            x       y       z     vdW  Elec       q    Type
REMARK                         _______ _______ _______ _____ _____    ______ ____
ROOT
ATOM      1  C   UNL     1      44.369   3.528   9.474  0.00  0.00    +0.000 A 
ATOM      2  C   UNL     1      44.165   2.160   9.551  0.00  0.00    +0.000 A 
ATOM      3  C   UNL     1      45.001   1.291   8.841  0.00  0.00    +0.000 A 
ATOM      4  C   UNL     1      46.056   1.763   8.034  0.00  0.00    +0.000 A 
ATOM      5  C   UNL     1      46.247   3.146   7.914  0.00  0.00    +0.000 A 
ATOM      6  C   UNL     1      45.409   4.007   8.670  0.00  0.00    +0.000 A 
ENDROOT
BRANCH   4   7
ATOM      7  C   UNL     1      46.835   0.686   7.365  0.00  0.00    +0.000 C 
ATOM      8  N   UNL     1      46.696  -0.606   7.795  0.00  0.00    +0.000 N 
ATOM      9  O   UNL     1      47.540   0.930   6.395  0.00  0.00    +0.000 OA
ATOM     10  H   UNL     1      46.323  -0.872   8.693  0.00  0.00    +0.000 HD
ATOM     11  H   UNL     1      47.304  -1.280   7.343  0.00  0.00    +0.000 HD
ENDBRANCH   4   7
BRANCH   5  12
ATOM     12  C   UNL     1      47.225   3.817   6.989  0.00  0.00    +0.000 C 
ATOM     13  F   UNL     1      48.446   3.233   6.889  0.00  0.00    +0.000 F 
ATOM     14  F   UNL     1      46.758   3.883   5.709  0.00  0.00    +0.000 F 
ATOM     15  F   UNL     1      47.471   5.105   7.356  0.00  0.00    +0.000 F 
ENDBRANCH   5  12
BRANCH   1  16
ATOM     16  O   UNL     1      43.601   4.491  10.055  0.00  0.00    +0.000 OA
BRANCH  16  18
ATOM     17  C   UNL     1      42.358   5.518  11.912  0.00  0.00    +0.000 C 
ATOM     18  C   UNL     1      43.377   4.461  11.476  0.00  0.00    +0.000 C 
BRANCH  18  19
ATOM     19  C   UNL     1      44.715   4.754  12.154  0.00  0.00    +0.000 A 
ATOM     20  N   UNL     1      45.264   3.802  12.935  0.00  0.00    +0.000 NA
ATOM     21  C   UNL     1      46.439   4.092  13.519  0.00  0.00    +0.000 A 
ATOM     22  C   UNL     1      47.089   5.289  13.355  0.00  0.00    +0.000 A 
ATOM     23  C   UNL     1      46.471   6.220  12.539  0.00  0.00    +0.000 A 
ATOM     24  N   UNL     1      45.283   5.957  11.925  0.00  0.00    +0.000 NA
BRANCH  23  25
ATOM     25  C   UNL     1      47.120   7.577  12.315  0.00  0.00    +0.000 C 
ATOM     26  F   UNL     1      47.631   8.128  13.458  0.00  0.00    +0.000 F 
ATOM     27  F   UNL     1      48.163   7.527  11.438  0.00  0.00    +0.000 F 
ATOM     28  F   UNL     1      46.254   8.509  11.822  0.00  0.00    +0.000 F 
ENDBRANCH  23  25
ENDBRANCH  18  19
ENDBRANCH  16  18
ENDBRANCH   1  16
TORSDOF 6
ENDMDL
MODEL 2
REMARK VINA RESULT:    -7.781      4.385      6.496
REMARK INTER + INTRA:         -10.770
REMARK INTER:                  -9.846
REMARK INTRA:                  -0.924
REMARK UNBOUND:                -0.260
REMARK  Name = 
REMARK  7 active torsions:
REMARK  status: ('A' for Active; 'I' for Inactive)
REMARK    1  A    between atoms: C_1  and  C_2
REMARK    2  A    between atoms: C_2  and  O_3
REMARK    3  A    between atoms: C_2  and  C_17
REMARK    4  A    between atoms: O_3  and  C_4
REMARK    5  A    between atoms: C_7  and  C_8
REMARK    6  A    between atoms: C_11  and  C_12
REMARK    7  A    between atoms: C_21  and  C_22
REMARK                            x       y       z     vdW  Elec       q    Type
REMARK                         _______ _______ _______ _____ _____    ______ ____
ROOT
ATOM      1  C   UNL     1      47.198   6.362  13.062  0.00  0.00    +0.000 A 
ATOM      2  C   UNL     1      46.442   7.396  12.535  0.00  0.00    +0.000 A 
ATOM      3  C   UNL     1      45.202   7.122  11.950  0.00  0.00    +0.000 A 
ATOM      4  C   UNL     1      44.687   5.812  11.870  0.00  0.00    +0.000 A 
ATOM      5  C   UNL     1      45.460   4.752  12.360  0.00  0.00    +0.000 A 
ATOM      6  C   UNL     1      46.699   5.057  12.981  0.00  0.00    +0.000 A 
ENDROOT
BRANCH   4   7
ATOM      7  C   UNL     1      43.351   5.726  11.218  0.00  0.00    +0.000 C 
ATOM      8  N   UNL     1      42.285   6.368  11.788  0.00  0.00    +0.000 N 
ATOM      9  O   UNL     1      43.210   5.151  10.147  0.00  0.00    +0.000 OA
ATOM     10  H   UNL     1      42.250   6.673  12.748  0.00  0.00    +0.000 HD
ATOM     11  H   UNL     1      41.393   6.214  11.333  0.00  0.00    +0.000 HD
ENDBRANCH   4   7
BRANCH   5  12
ATOM     12  C   UNL     1      45.128   3.291  12.224  0.00  0.00    +0.000 C 
ATOM     13  F   UNL     1      43.893   2.920  12.647  0.00  0.00    +0.000 F 
ATOM     14  F   UNL     1      45.202   2.867  10.930  0.00  0.00    +0.000 F 
ATOM     15  F   UNL     1      45.997   2.506  12.918  0.00  0.00    +0.000 F 
ENDBRANCH   5  12
BRANCH   1  16
ATOM     16  O   UNL     1      48.444   6.468  13.602  0.00  0.00    +0.000 OA
BRANCH  16  18
ATOM     17  C   UNL     1      50.010   8.095  14.574  0.00  0.00    +0.000 C 
ATOM     18  C   UNL     1      48.669   7.368  14.702  0.00  0.00    +0.000 C 
BRANCH  18  19
ATOM     19  C   UNL     1      48.678   6.530  15.980  0.00  0.00    +0.000 A 
ATOM     20  N   UNL     1      48.897   7.152  17.156  0.00  0.00    +0.000 NA
ATOM     21  C   UNL     1      48.903   6.387  18.261  0.00  0.00    +0.000 A 
ATOM     22  C   UNL     1      48.698   5.030  18.241  0.00  0.00    +0.000 A 
ATOM     23  C   UNL     1      48.478   4.457  17.000  0.00  0.00    +0.000 A 
ATOM     24  N   UNL     1      48.458   5.204  15.862  0.00  0.00    +0.000 NA
BRANCH  23  25
ATOM     25  C   UNL     1      48.254   2.957  16.891  0.00  0.00    +0.000 C 
ATOM     26  F   UNL     1      49.350   2.219  17.247  0.00  0.00    +0.000 F 
ATOM     27  F   UNL     1      47.243   2.512  17.690  0.00  0.00    +0.000 F 
ATOM     28  F   UNL     1      47.944   2.554  15.626  0.00  0.00    +0.000 F 
ENDBRANCH  23  25
ENDBRANCH  18  19
ENDBRANCH  16  18
ENDBRANCH   1  16
TORSDOF 6
ENDMDL
MODEL 3
REMARK VINA RESULT:    -7.637      1.634      2.321
REMARK INTER + INTRA:         -10.576
REMARK INTER:                 -10.119
REMARK INTRA:                  -0.457
REMARK UNBOUND:                -0.260
REMARK  Name = 
REMARK  7 active torsions:
REMARK  status: ('A' for Active; 'I' for Inactive)
REMARK    1  A    between atoms: C_1  and  C_2
REMARK    2  A    between atoms: C_2  and  O_3
REMARK    3  A    between atoms: C_2  and  C_17
REMARK    4  A    between atoms: O_3  and  C_4
REMARK    5  A    between atoms: C_7  and  C_8
REMARK    6  A    between atoms: C_11  and  C_12
REMARK    7  A    between atoms: C_21  and  C_22
REMARK                            x       y       z     vdW  Elec       q    Type
REMARK                         _______ _______ _______ _____ _____    ______ ____
ROOT
ATOM      1  C   UNL     1      44.465   3.617   9.343  0.00  0.00    +0.000 A 
ATOM      2  C   UNL     1      44.402   2.288   9.731  0.00  0.00    +0.000 A 
ATOM      3  C   UNL     1      45.211   1.340   9.096  0.00  0.00    +0.000 A 
ATOM      4  C   UNL     1      46.098   1.690   8.058  0.00  0.00    +0.000 A 
ATOM      5  C   UNL     1      46.141   3.023   7.629  0.00  0.00    +0.000 A 
ATOM      6  C   UNL     1      45.337   3.974   8.310  0.00  0.00    +0.000 A 
ENDROOT
BRANCH   4   7
ATOM      7  C   UNL     1      46.876   0.544   7.515  0.00  0.00    +0.000 C 
ATOM      8  N   UNL     1      46.361  -0.721   7.609  0.00  0.00    +0.000 N 
ATOM      9  O   UNL     1      47.934   0.725   6.925  0.00  0.00    +0.000 OA
ATOM     10  H   UNL     1      45.628  -0.992   8.247  0.00  0.00    +0.000 HD
ATOM     11  H   UNL     1      46.969  -1.462   7.282  0.00  0.00    +0.000 HD
ENDBRANCH   4   7
BRANCH   5  12
ATOM     12  C   UNL     1      46.918   3.536   6.447  0.00  0.00    +0.000 C 
ATOM     13  F   UNL     1      46.704   4.834   6.112  0.00  0.00    +0.000 F 
ATOM     14  F   UNL     1      48.265   3.436   6.635  0.00  0.00    +0.000 F 
ATOM     15  F   UNL     1      46.652   2.824   5.316  0.00  0.00    +0.000 F 
ENDBRANCH   5  12
BRANCH   1  16
ATOM     16  O   UNL     1      43.696   4.634   9.824  0.00  0.00    +0.000 OA
BRANCH  16  18
ATOM     17  C   UNL     1      42.420   5.796  11.575  0.00  0.00    +0.000 C 
ATOM     18  C   UNL     1      43.520   4.784  11.244  0.00  0.00    +0.000 C 
BRANCH  18  19
ATOM     19  C   UNL     1      44.845   5.287  11.815  0.00  0.00    +0.000 A 
ATOM     20  N   UNL     1      45.475   6.299  11.186  0.00  0.00    +0.000 NA
ATOM     21  C   UNL     1      46.640   6.716  11.711  0.00  0.00    +0.000 A 
ATOM     22  C   UNL     1      47.199   6.169  12.839  0.00  0.00    +0.000 A 
ATOM     23  C   UNL     1      46.498   5.135  13.436  0.00  0.00    +0.000 A 
ATOM     24  N   UNL     1      45.311   4.693  12.933  0.00  0.00    +0.000 NA
BRANCH  23  25
ATOM     25  C   UNL     1      47.056   4.466  14.682  0.00  0.00    +0.000 C 
ATOM     26  F   UNL     1      47.504   3.193  14.458  0.00  0.00    +0.000 F 
ATOM     27  F   UNL     1      48.118   5.136  15.213  0.00  0.00    +0.000 F 
ATOM     28  F   UNL     1      46.138   4.354  15.684  0.00  0.00    +0.000 F 
ENDBRANCH  23  25
ENDBRANCH  18  19
ENDBRANCH  16  18
ENDBRANCH   1  16
TORSDOF 6
ENDMDL
MODEL 4
REMARK VINA RESULT:    -7.131      4.211      8.082
REMARK INTER + INTRA:          -9.891
REMARK INTER:                  -9.000
REMARK INTRA:                  -0.891
REMARK UNBOUND:                -0.260
REMARK  Name = 
REMARK  7 active torsions:
REMARK  status: ('A' for Active; 'I' for Inactive)
REMARK    1  A    between atoms: C_1  and  C_2
REMARK    2  A    between atoms: C_2  and  O_3
REMARK    3  A    between atoms: C_2  and  C_17
REMARK    4  A    between atoms: O_3  and  C_4
REMARK    5  A    between atoms: C_7  and  C_8
REMARK    6  A    between atoms: C_11  and  C_12
REMARK    7  A    between atoms: C_21  and  C_22
REMARK                            x       y       z     vdW  Elec       q    Type
REMARK                         _______ _______ _______ _____ _____    ______ ____
ROOT
ATOM      1  C   UNL     1      46.785   4.592  14.453  0.00  0.00    +0.000 A 
ATOM      2  C   UNL     1      47.411   5.793  14.158  0.00  0.00    +0.000 A 
ATOM      3  C   UNL     1      48.349   6.325  15.049  0.00  0.00    +0.000 A 
ATOM      4  C   UNL     1      48.683   5.678  16.256  0.00  0.00    +0.000 A 
ATOM      5  C   UNL     1      48.028   4.485  16.586  0.00  0.00    +0.000 A 
ATOM      6  C   UNL     1      47.105   3.946  15.652  0.00  0.00    +0.000 A 
ENDROOT
BRANCH   4   7
ATOM      7  C   UNL     1      49.706   6.397  17.064  0.00  0.00    +0.000 C 
ATOM      8  N   UNL     1      51.029   6.268  16.738  0.00  0.00    +0.000 N 
ATOM      9  O   UNL     1      49.375   7.154  17.968  0.00  0.00    +0.000 OA
ATOM     10  H   UNL     1      51.407   5.525  16.172  0.00  0.00    +0.000 HD
ATOM     11  H   UNL     1      51.677   6.728  17.368  0.00  0.00    +0.000 HD
ENDBRANCH   4   7
BRANCH   5  12
ATOM     12  C   UNL     1      48.158   3.748  17.891  0.00  0.00    +0.000 C 
ATOM     13  F   UNL     1      47.889   4.468  19.010  0.00  0.00    +0.000 F 
ATOM     14  F   UNL     1      47.327   2.669  17.957  0.00  0.00    +0.000 F 
ATOM     15  F   UNL     1      49.414   3.255  18.074  0.00  0.00    +0.000 F 
ENDBRANCH   5  12
BRANCH   1  16
ATOM     16  O   UNL     1      45.811   3.989  13.717  0.00  0.00    +0.000 OA
BRANCH  16  18
ATOM     17  C   UNL     1      43.410   4.228  13.241  0.00  0.00    +0.000 C 
ATOM     18  C   UNL     1      44.821   4.793  13.051  0.00  0.00    +0.000 C 
BRANCH  18  19
ATOM     19  C   UNL     1      45.160   4.791  11.562  0.00  0.00    +0.000 A 
ATOM     20  N   UNL     1      45.634   5.925  11.007  0.00  0.00    +0.000 NA
ATOM     21  C   UNL     1      45.918   5.891   9.694  0.00  0.00    +0.000 A 
ATOM     22  C   UNL     1      45.753   4.774   8.913  0.00  0.00    +0.000 A 
ATOM     23  C   UNL     1      45.265   3.645   9.548  0.00  0.00    +0.000 A 
ATOM     24  N   UNL     1      44.972   3.642  10.878  0.00  0.00    +0.000 NA
BRANCH  23  25
ATOM     25  C   UNL     1      45.041   2.369   8.751  0.00  0.00    +0.000 C 
ATOM     26  F   UNL     1      46.180   1.634   8.574  0.00  0.00    +0.000 F 
ATOM     27  F   UNL     1      44.151   1.523   9.345  0.00  0.00    +0.000 F 
ATOM     28  F   UNL     1      44.563   2.601   7.495  0.00  0.00    +0.000 F 
ENDBRANCH  23  25
ENDBRANCH  18  19
ENDBRANCH  16  18
ENDBRANCH   1  16
TORSDOF 6
ENDMDL
MODEL 5
REMARK VINA RESULT:    -7.066      4.651      6.848
REMARK INTER + INTRA:          -9.805
REMARK INTER:                  -9.239
REMARK INTRA:                  -0.566
REMARK UNBOUND:                -0.260
REMARK  Name = 
REMARK  7 active torsions:
REMARK  status: ('A' for Active; 'I' for Inactive)
REMARK    1  A    between atoms: C_1  and  C_2
REMARK    2  A    between atoms: C_2  and  O_3
REMARK    3  A    between atoms: C_2  and  C_17
REMARK    4  A    between atoms: O_3  and  C_4
REMARK    5  A    between atoms: C_7  and  C_8
REMARK    6  A    between atoms: C_11  and  C_12
REMARK    7  A    between atoms: C_21  and  C_22
REMARK                            x       y       z     vdW  Elec       q    Type
REMARK                         _______ _______ _______ _____ _____    ______ ____
ROOT
ATOM      1  C   UNL     1      47.140   6.036  13.485  0.00  0.00    +0.000 A 
ATOM      2  C   UNL     1      46.575   7.188  12.963  0.00  0.00    +0.000 A 
ATOM      3  C   UNL     1      45.398   7.107  12.212  0.00  0.00    +0.000 A 
ATOM      4  C   UNL     1      44.757   5.877  11.959  0.00  0.00    +0.000 A 
ATOM      5  C   UNL     1      45.341   4.700  12.445  0.00  0.00    +0.000 A 
ATOM      6  C   UNL     1      46.517   4.810  13.232  0.00  0.00    +0.000 A 
ENDROOT
BRANCH   4   7
ATOM      7  C   UNL     1      43.515   5.997  11.148  0.00  0.00    +0.000 C 
ATOM      8  N   UNL     1      42.684   7.066  11.350  0.00  0.00    +0.000 N 
ATOM      9  O   UNL     1      43.265   5.195  10.257  0.00  0.00    +0.000 OA
ATOM     10  H   UNL     1      42.687   7.642  12.177  0.00  0.00    +0.000 HD
ATOM     11  H   UNL     1      41.823   7.053  10.815  0.00  0.00    +0.000 HD
ENDBRANCH   4   7
BRANCH   5  12
ATOM     12  C   UNL     1      44.872   3.302  12.144  0.00  0.00    +0.000 C 
ATOM     13  F   UNL     1      44.861   2.948  10.834  0.00  0.00    +0.000 F 
ATOM     14  F   UNL     1      45.640   2.359  12.760  0.00  0.00    +0.000 F 
ATOM     15  F   UNL     1      43.602   3.086  12.586  0.00  0.00    +0.000 F 
ENDBRANCH   5  12
BRANCH   1  16
ATOM     16  O   UNL     1      48.311   5.954  14.176  0.00  0.00    +0.000 OA
BRANCH  16  18
ATOM     17  C   UNL     1      49.728   7.416  15.555  0.00  0.00    +0.000 C 
ATOM     18  C   UNL     1      48.431   6.609  15.452  0.00  0.00    +0.000 C 
BRANCH  18  19
ATOM     19  C   UNL     1      48.439   5.519  16.523  0.00  0.00    +0.000 A 
ATOM     20  N   UNL     1      48.535   4.232  16.132  0.00  0.00    +0.000 NA
ATOM     21  C   UNL     1      48.535   3.298  17.098  0.00  0.00    +0.000 A 
ATOM     22  C   UNL     1      48.449   3.594  18.436  0.00  0.00    +0.000 A 
ATOM     23  C   UNL     1      48.355   4.935  18.766  0.00  0.00    +0.000 A 
ATOM     24  N   UNL     1      48.358   5.907  17.813  0.00  0.00    +0.000 NA
BRANCH  23  25
ATOM     25  C   UNL     1      48.242   5.346  20.226  0.00  0.00    +0.000 C 
ATOM     26  F   UNL     1      47.025   5.882  20.545  0.00  0.00    +0.000 F 
ATOM     27  F   UNL     1      48.415   4.301  21.085  0.00  0.00    +0.000 F 
ATOM     28  F   UNL     1      49.157   6.290  20.587  0.00  0.00    +0.000 F 
ENDBRANCH  23  25
ENDBRANCH  18  19
ENDBRANCH  16  18
ENDBRANCH   1  16
TORSDOF 6
ENDMDL
MODEL 6
REMARK VINA RESULT:    -6.962      4.565      8.294
REMARK INTER + INTRA:          -9.663
REMARK INTER:                  -8.781
REMARK INTRA:                  -0.883
REMARK UNBOUND:                -0.260
REMARK  Name = 
REMARK  7 active torsions:
REMARK  status: ('A' for Active; 'I' for Inactive)
REMARK    1  A    between atoms: C_1  and  C_2
REMARK    2  A    between atoms: C_2  and  O_3
REMARK    3  A    between atoms: C_2  and  C_17
REMARK    4  A    between atoms: O_3  and  C_4
REMARK    5  A    between atoms: C_7  and  C_8
REMARK    6  A    between atoms: C_11  and  C_12
REMARK    7  A    between atoms: C_21  and  C_22
REMARK                            x       y       z     vdW  Elec       q    Type
REMARK                         _______ _______ _______ _____ _____    ______ ____
ROOT
ATOM      1  C   UNL     1      47.327   5.511  14.897  0.00  0.00    +0.000 A 
ATOM      2  C   UNL     1      48.286   6.510  14.935  0.00  0.00    +0.000 A 
ATOM      3  C   UNL     1      49.316   6.450  15.879  0.00  0.00    +0.000 A 
ATOM      4  C   UNL     1      49.413   5.396  16.811  0.00  0.00    +0.000 A 
ATOM      5  C   UNL     1      48.427   4.402  16.811  0.00  0.00    +0.000 A 
ATOM      6  C   UNL     1      47.411   4.465  15.822  0.00  0.00    +0.000 A 
ENDROOT
BRANCH   4   7
ATOM      7  C   UNL     1      50.581   5.506  17.728  0.00  0.00    +0.000 C 
ATOM      8  N   UNL     1      51.694   4.746  17.488  0.00  0.00    +0.000 N 
ATOM      9  O   UNL     1      50.586   6.315  18.646  0.00  0.00    +0.000 OA
ATOM     10  H   UNL     1      51.707   3.920  16.909  0.00  0.00    +0.000 HD
ATOM     11  H   UNL     1      52.426   4.817  18.186  0.00  0.00    +0.000 HD
ENDBRANCH   4   7
BRANCH   5  12
ATOM     12  C   UNL     1      48.300   3.296  17.822  0.00  0.00    +0.000 C 
ATOM     13  F   UNL     1      49.290   2.367  17.815  0.00  0.00    +0.000 F 
ATOM     14  F   UNL     1      48.268   3.770  19.101  0.00  0.00    +0.000 F 
ATOM     15  F   UNL     1      47.145   2.591  17.663  0.00  0.00    +0.000 F 
ENDBRANCH   5  12
BRANCH   1  16
ATOM     16  O   UNL     1      46.237   5.471  14.081  0.00  0.00    +0.000 OA
BRANCH  16  18
ATOM     17  C   UNL     1      46.202   6.717  11.961  0.00  0.00    +0.000 C 
ATOM     18  C   UNL     1      46.418   5.370  12.657  0.00  0.00    +0.000 C 
BRANCH  18  19
ATOM     19  C   UNL     1      45.384   4.372  12.137  0.00  0.00    +0.000 A 
ATOM     20  N   UNL     1      44.351   4.039  12.937  0.00  0.00    +0.000 NA
ATOM     21  C   UNL     1      43.461   3.157  12.451  0.00  0.00    +0.000 A 
ATOM     22  C   UNL     1      43.557   2.596  11.202  0.00  0.00    +0.000 A 
ATOM     23  C   UNL     1      44.641   2.983  10.434  0.00  0.00    +0.000 A 
ATOM     24  N   UNL     1      45.558   3.881  10.892  0.00  0.00    +0.000 NA
BRANCH  23  25
ATOM     25  C   UNL     1      44.828   2.398   9.043  0.00  0.00    +0.000 C 
ATOM     26  F   UNL     1      44.411   1.099   8.941  0.00  0.00    +0.000 F 
ATOM     27  F   UNL     1      44.135   3.077   8.085  0.00  0.00    +0.000 F 
ATOM     28  F   UNL     1      46.129   2.391   8.637  0.00  0.00    +0.000 F 
ENDBRANCH  23  25
ENDBRANCH  18  19
ENDBRANCH  16  18
ENDBRANCH   1  16
TORSDOF 6
ENDMDL
MODEL 7
REMARK VINA RESULT:    -6.837      4.635      7.120
REMARK INTER + INTRA:          -9.495
REMARK INTER:                  -8.601
REMARK INTRA:                  -0.894
REMARK UNBOUND:                -0.260
REMARK  Name = 
REMARK  7 active torsions:
REMARK  status: ('A' for Active; 'I' for Inactive)
REMARK    1  A    between atoms: C_1  and  C_2
REMARK    2  A    between atoms: C_2  and  O_3
REMARK    3  A    between atoms: C_2  and  C_17
REMARK    4  A    between atoms: O_3  and  C_4
REMARK    5  A    between atoms: C_7  and  C_8
REMARK    6  A    between atoms: C_11  and  C_12
REMARK    7  A    between atoms: C_21  and  C_22
REMARK                            x       y       z     vdW  Elec       q    Type
REMARK                         _______ _______ _______ _____ _____    ______ ____
ROOT
ATOM      1  C   UNL     1      48.822   6.979  13.359  0.00  0.00    +0.000 A 
ATOM      2  C   UNL     1      48.652   7.593  12.128  0.00  0.00    +0.000 A 
ATOM      3  C   UNL     1      47.559   7.250  11.325  0.00  0.00    +0.000 A 
ATOM      4  C   UNL     1      46.612   6.286  11.725  0.00  0.00    +0.000 A 
ATOM      5  C   UNL     1      46.795   5.627  12.948  0.00  0.00    +0.000 A 
ATOM      6  C   UNL     1      47.892   6.015  13.761  0.00  0.00    +0.000 A 
ENDROOT
BRANCH   4   7
ATOM      7  C   UNL     1      45.520   6.065  10.739  0.00  0.00    +0.000 C 
ATOM      8  N   UNL     1      44.315   6.689  10.922  0.00  0.00    +0.000 N 
ATOM      9  O   UNL     1      45.708   5.393   9.733  0.00  0.00    +0.000 OA
ATOM     10  H   UNL     1      44.000   7.072  11.799  0.00  0.00    +0.000 HD
ATOM     11  H   UNL     1      43.594   6.444  10.253  0.00  0.00    +0.000 HD
ENDBRANCH   4   7
BRANCH   5  12
ATOM     12  C   UNL     1      45.967   4.478  13.455  0.00  0.00    +0.000 C 
ATOM     13  F   UNL     1      46.337   3.962  14.655  0.00  0.00    +0.000 F 
ATOM     14  F   UNL     1      44.655   4.817  13.604  0.00  0.00    +0.000 F 
ATOM     15  F   UNL     1      45.978   3.424  12.592  0.00  0.00    +0.000 F 
ENDBRANCH   5  12
BRANCH   1  16
ATOM     16  O   UNL     1      49.866   7.164  14.214  0.00  0.00    +0.000 OA
BRANCH  16  18
ATOM     17  C   UNL     1      50.439   8.622  16.109  0.00  0.00    +0.000 C 
ATOM     18  C   UNL     1      49.608   7.440  15.602  0.00  0.00    +0.000 C 
BRANCH  18  19
ATOM     19  C   UNL     1      49.990   6.190  16.393  0.00  0.00    +0.000 A 
ATOM     20  N   UNL     1      51.275   6.035  16.771  0.00  0.00    +0.000 NA
ATOM     21  C   UNL     1      51.580   4.923  17.462  0.00  0.00    +0.000 A 
ATOM     22  C   UNL     1      50.657   3.963  17.794  0.00  0.00    +0.000 A 
ATOM     23  C   UNL     1      49.357   4.187  17.376  0.00  0.00    +0.000 A 
ATOM     24  N   UNL     1      49.012   5.306  16.680  0.00  0.00    +0.000 NA
BRANCH  23  25
ATOM     25  C   UNL     1      48.277   3.164  17.692  0.00  0.00    +0.000 C 
ATOM     26  F   UNL     1      48.361   2.034  16.927  0.00  0.00    +0.000 F 
ATOM     27  F   UNL     1      48.318   2.731  18.985  0.00  0.00    +0.000 F 
ATOM     28  F   UNL     1      47.015   3.641  17.492  0.00  0.00    +0.000 F 
ENDBRANCH  23  25
ENDBRANCH  18  19
ENDBRANCH  16  18
ENDBRANCH   1  16
TORSDOF 6
ENDMDL
MODEL 8
REMARK VINA RESULT:    -6.739      5.142      8.450
REMARK INTER + INTRA:          -9.362
REMARK INTER:                  -8.451
REMARK INTRA:                  -0.911
REMARK UNBOUND:                -0.260
REMARK  Name = 
REMARK  7 active torsions:
REMARK  status: ('A' for Active; 'I' for Inactive)
REMARK    1  A    between atoms: C_1  and  C_2
REMARK    2  A    between atoms: C_2  and  O_3
REMARK    3  A    between atoms: C_2  and  C_17
REMARK    4  A    between atoms: O_3  and  C_4
REMARK    5  A    between atoms: C_7  and  C_8
REMARK    6  A    between atoms: C_11  and  C_12
REMARK    7  A    between atoms: C_21  and  C_22
REMARK                            x       y       z     vdW  Elec       q    Type
REMARK                         _______ _______ _______ _____ _____    ______ ____
ROOT
ATOM      1  C   UNL     1      48.669   6.303  15.406  0.00  0.00    +0.000 A 
ATOM      2  C   UNL     1      49.834   6.817  15.952  0.00  0.00    +0.000 A 
ATOM      3  C   UNL     1      50.484   6.127  16.980  0.00  0.00    +0.000 A 
ATOM      4  C   UNL     1      49.988   4.911  17.493  0.00  0.00    +0.000 A 
ATOM      5  C   UNL     1      48.788   4.402  16.979  0.00  0.00    +0.000 A 
ATOM      6  C   UNL     1      48.164   5.101  15.913  0.00  0.00    +0.000 A 
ENDROOT
BRANCH   4   7
ATOM      7  C   UNL     1      50.822   4.327  18.578  0.00  0.00    +0.000 C 
ATOM      8  N   UNL     1      51.543   3.191  18.331  0.00  0.00    +0.000 N 
ATOM      9  O   UNL     1      50.927   4.888  19.662  0.00  0.00    +0.000 OA
ATOM     10  H   UNL     1      51.361   2.554  17.571  0.00  0.00    +0.000 HD
ATOM     11  H   UNL     1      52.036   2.807  19.130  0.00  0.00    +0.000 HD
ENDBRANCH   4   7
BRANCH   5  12
ATOM     12  C   UNL     1      48.050   3.203  17.509  0.00  0.00    +0.000 C 
ATOM     13  F   UNL     1      48.163   2.976  18.842  0.00  0.00    +0.000 F 
ATOM     14  F   UNL     1      46.708   3.281  17.275  0.00  0.00    +0.000 F 
ATOM     15  F   UNL     1      48.459   2.049  16.912  0.00  0.00    +0.000 F 
ENDBRANCH   5  12
BRANCH   1  16
ATOM     16  O   UNL     1      47.897   6.892  14.450  0.00  0.00    +0.000 OA
BRANCH  16  18
ATOM     17  C   UNL     1      48.832   7.369  12.226  0.00  0.00    +0.000 C 
ATOM     18  C   UNL     1      47.978   6.434  13.089  0.00  0.00    +0.000 C 
BRANCH  18  19
ATOM     19  C   UNL     1      46.556   6.408  12.532  0.00  0.00    +0.000 A 
ATOM     20  N   UNL     1      46.094   7.501  11.892  0.00  0.00    +0.000 NA
ATOM     21  C   UNL     1      44.837   7.448  11.418  0.00  0.00    +0.000 A 
ATOM     22  C   UNL     1      44.025   6.349  11.554  0.00  0.00    +0.000 A 
ATOM     23  C   UNL     1      44.563   5.262  12.220  0.00  0.00    +0.000 A 
ATOM     24  N   UNL     1      45.835   5.281  12.707  0.00  0.00    +0.000 NA
BRANCH  23  25
ATOM     25  C   UNL     1      43.723   4.011  12.424  0.00  0.00    +0.000 C 
ATOM     26  F   UNL     1      44.465   2.864  12.479  0.00  0.00    +0.000 F 
ATOM     27  F   UNL     1      43.008   4.036  13.585  0.00  0.00    +0.000 F 
ATOM     28  F   UNL     1      42.818   3.807  11.425  0.00  0.00    +0.000 F 
ENDBRANCH  23  25
ENDBRANCH  18  19
ENDBRANCH  16  18
ENDBRANCH   1  16
TORSDOF 6
ENDMDL
MODEL 9
REMARK VINA RESULT:    -6.691      3.301      5.302
REMARK INTER + INTRA:          -9.298
REMARK INTER:                  -8.372
REMARK INTRA:                  -0.926
REMARK UNBOUND:                -0.260
REMARK  Name = 
REMARK  7 active torsions:
REMARK  status: ('A' for Active; 'I' for Inactive)
REMARK    1  A    between atoms: C_1  and  C_2
REMARK    2  A    between atoms: C_2  and  O_3
REMARK    3  A    between atoms: C_2  and  C_17
REMARK    4  A    between atoms: O_3  and  C_4
REMARK    5  A    between atoms: C_7  and  C_8
REMARK    6  A    between atoms: C_11  and  C_12
REMARK    7  A    between atoms: C_21  and  C_22
REMARK                            x       y       z     vdW  Elec       q    Type
REMARK                         _______ _______ _______ _____ _____    ______ ____
ROOT
ATOM      1  C   UNL     1      46.287   6.940  11.885  0.00  0.00    +0.000 A 
ATOM      2  C   UNL     1      45.477   6.614  12.960  0.00  0.00    +0.000 A 
ATOM      3  C   UNL     1      44.623   5.509  12.877  0.00  0.00    +0.000 A 
ATOM      4  C   UNL     1      44.552   4.706  11.721  0.00  0.00    +0.000 A 
ATOM      5  C   UNL     1      45.335   5.049  10.612  0.00  0.00    +0.000 A 
ATOM      6  C   UNL     1      46.219   6.153  10.730  0.00  0.00    +0.000 A 
ENDROOT
BRANCH   4   7
ATOM      7  C   UNL     1      43.590   3.575  11.828  0.00  0.00    +0.000 C 
ATOM      8  N   UNL     1      43.954   2.449  12.517  0.00  0.00    +0.000 N 
ATOM      9  O   UNL     1      42.458   3.667  11.372  0.00  0.00    +0.000 OA
ATOM     10  H   UNL     1      44.906   2.196  12.734  0.00  0.00    +0.000 HD
ATOM     11  H   UNL     1      43.281   1.691  12.495  0.00  0.00    +0.000 HD
ENDBRANCH   4   7
BRANCH   5  12
ATOM     12  C   UNL     1      45.273   4.392   9.260  0.00  0.00    +0.000 C 
ATOM     13  F   UNL     1      46.142   4.862   8.329  0.00  0.00    +0.000 F 
ATOM     14  F   UNL     1      45.518   3.052   9.329  0.00  0.00    +0.000 F 
ATOM     15  F   UNL     1      44.040   4.511   8.693  0.00  0.00    +0.000 F 
ENDBRANCH   5  12
BRANCH   1  16
ATOM     16  O   UNL     1      47.117   8.017  11.799  0.00  0.00    +0.000 OA
BRANCH  16  18
ATOM     17  C   UNL     1      47.523  10.329  12.530  0.00  0.00    +0.000 C 
ATOM     18  C   UNL     1      47.294   8.872  12.942  0.00  0.00    +0.000 C 
BRANCH  18  19
ATOM     19  C   UNL     1      48.525   8.372  13.697  0.00  0.00    +0.000 A 
ATOM     20  N   UNL     1      49.741   8.803  13.306  0.00  0.00    +0.000 NA
ATOM     21  C   UNL     1      50.802   8.341  13.988  0.00  0.00    +0.000 A 
ATOM     22  C   UNL     1      50.701   7.471  15.045  0.00  0.00    +0.000 A 
ATOM     23  C   UNL     1      49.423   7.071  15.394  0.00  0.00    +0.000 A 
ATOM     24  N   UNL     1      48.325   7.525  14.729  0.00  0.00    +0.000 NA
BRANCH  23  25
ATOM     25  C   UNL     1      49.226   6.098  16.546  0.00  0.00    +0.000 C 
ATOM     26  F   UNL     1      50.346   5.369  16.837  0.00  0.00    +0.000 F 
ATOM     27  F   UNL     1      48.884   6.718  17.711  0.00  0.00    +0.000 F 
ATOM     28  F   UNL     1      48.250   5.177  16.306  0.00  0.00    +0.000 F 
ENDBRANCH  23  25
ENDBRANCH  18  19
ENDBRANCH  16  18
ENDBRANCH   1  16
TORSDOF 6
ENDMDL
