MODEL 1
REMARK VINA RESULT:    -8.595      0.000      0.000
REMARK INTER + INTRA:         -12.123
REMARK INTER:                 -11.107
REMARK INTRA:                  -1.016
REMARK UNBOUND:                -1.016
REMARK  Name = 
REMARK  5 active torsions:
REMARK  status: ('A' for Active; 'I' for Inactive)
REMARK    1  A    between atoms: C_2  and  C_4
REMARK    2  A    between atoms: C_7  and  O_8
REMARK    3  A    between atoms: O_8  and  C_9
REMARK    4  A    between atoms: C_9  and  C_10
REMARK    5  A    between atoms: C_15  and  N_16
REMARK                            x       y       z     vdW  Elec       q    Type
REMARK                         _______ _______ _______ _____ _____    ______ ____
ROOT
ATOM      1  C   UNL     1      44.519   4.763  12.123  0.00  0.00    +0.000 A 
ATOM      2  C   UNL     1      45.304   3.753  12.688  0.00  0.00    +0.000 A 
ATOM      3  C   UNL     1      46.449   4.082  13.395  0.00  0.00    +0.000 A 
ATOM      4  F   UNL     1      47.198   3.111  13.936  0.00  0.00    +0.000 F 
ATOM      5  C   UNL     1      46.856   5.401  13.510  0.00  0.00    +0.000 A 
ATOM      6  C   UNL     1      46.119   6.439  12.927  0.00  0.00    +0.000 A 
ATOM      7  C   UNL     1      44.921   6.099  12.277  0.00  0.00    +0.000 A 
ENDROOT
BRANCH   6   8
ATOM      8  N   UNL     1      46.583   7.735  12.942  0.00  0.00    +0.000 N 
ATOM      9  C   UNL     1      45.659   8.874  12.948  0.00  0.00    +0.000 C 
ATOM     10  C   UNL     1      45.992   9.832  11.790  0.00  0.00    +0.000 C 
ATOM     11  N   UNL     1      47.408  10.263  11.777  0.00  0.00    +0.000 NA
ATOM     12  C   UNL     1      48.274   9.061  11.753  0.00  0.00    +0.000 C 
ATOM     13  C   UNL     1      48.009   8.073  12.915  0.00  0.00    +0.000 C 
ATOM     14  H   UNL     1      47.589  10.755  12.652  0.00  0.00    +0.000 HD
ENDBRANCH   6   8
BRANCH   1  15
ATOM     15  C   UNL     1      43.357   4.386  11.236  0.00  0.00    +0.000 C 
BRANCH  15  16
ATOM     16  O   UNL     1      43.606   4.712   9.869  0.00  0.00    +0.000 OA
BRANCH  16  20
ATOM     17  C   UNL     1      46.391   2.455   7.731  0.00  0.00    +0.000 A 
ATOM     18  C   UNL     1      45.479   1.784   8.550  0.00  0.00    +0.000 A 
ATOM     19  C   UNL     1      44.534   2.504   9.287  0.00  0.00    +0.000 A 
ATOM     20  C   UNL     1      44.491   3.899   9.209  0.00  0.00    +0.000 A 
ATOM     21  C   UNL     1      45.414   4.567   8.400  0.00  0.00    +0.000 A 
ATOM     22  C   UNL     1      46.364   3.852   7.664  0.00  0.00    +0.000 A 
BRANCH  17  24
ATOM     23  N   UNL     1      48.486   2.450   6.492  0.00  0.00    +0.000 N 
ATOM     24  C   UNL     1      47.427   1.719   6.965  0.00  0.00    +0.000 C 
ATOM     25  O   UNL     1      47.357   0.514   6.782  0.00  0.00    +0.000 OA
ATOM     26  H   UNL     1      49.223   1.927   6.039  0.00  0.00    +0.000 HD
ATOM     27  H   UNL     1      48.696   3.377   6.824  0.00  0.00    +0.000 HD
ENDBRANCH  17  24
ENDBRANCH  16  20
ENDBRANCH  15  16
ENDBRANCH   1  15
TORSDOF 5
ENDMDL
MODEL 2
REMARK VINA RESULT:    -8.351      2.162      3.254
REMARK INTER + INTRA:         -11.808
REMARK INTER:                 -10.864
REMARK INTRA:                  -0.944
REMARK UNBOUND:                -1.016
REMARK  Name = 
REMARK  5 active torsions:
REMARK  status: ('A' for Active; 'I' for Inactive)
REMARK    1  A    between atoms: C_2  and  C_4
REMARK    2  A    between atoms: C_7  and  O_8
REMARK    3  A    between atoms: O_8  and  C_9
REMARK    4  A    between atoms: C_9  and  C_10
REMARK    5  A    between atoms: C_15  and  N_16
REMARK                            x       y       z     vdW  Elec       q    Type
REMARK                         _______ _______ _______ _____ _____    ______ ____
ROOT
ATOM      1  C   UNL     1      44.581   5.584  11.779  0.00  0.00    +0.000 A 
ATOM      2  C   UNL     1      44.445   6.962  11.585  0.00  0.00    +0.000 A 
ATOM      3  C   UNL     1      45.341   7.835  12.181  0.00  0.00    +0.000 A 
ATOM      4  F   UNL     1      45.207   9.156  11.992  0.00  0.00    +0.000 F 
ATOM      5  C   UNL     1      46.346   7.363  13.009  0.00  0.00    +0.000 A 
ATOM      6  C   UNL     1      46.493   5.993  13.259  0.00  0.00    +0.000 A 
ATOM      7  C   UNL     1      45.626   5.115  12.590  0.00  0.00    +0.000 A 
ENDROOT
BRANCH   6   8
ATOM      8  N   UNL     1      47.416   5.534  14.171  0.00  0.00    +0.000 N 
ATOM      9  C   UNL     1      47.269   4.219  14.805  0.00  0.00    +0.000 C 
ATOM     10  C   UNL     1      47.321   4.363  16.338  0.00  0.00    +0.000 C 
ATOM     11  N   UNL     1      48.524   5.081  16.817  0.00  0.00    +0.000 NA
ATOM     12  C   UNL     1      48.591   6.401  16.146  0.00  0.00    +0.000 C 
ATOM     13  C   UNL     1      48.576   6.321  14.600  0.00  0.00    +0.000 C 
ATOM     14  H   UNL     1      49.341   4.545  16.524  0.00  0.00    +0.000 HD
ENDBRANCH   6   8
BRANCH   1  15
ATOM     15  C   UNL     1      43.518   4.655  11.245  0.00  0.00    +0.000 C 
BRANCH  15  16
ATOM     16  O   UNL     1      43.489   4.645   9.818  0.00  0.00    +0.000 OA
BRANCH  16  20
ATOM     17  C   UNL     1      46.354   2.372   7.806  0.00  0.00    +0.000 A 
ATOM     18  C   UNL     1      45.488   1.720   8.688  0.00  0.00    +0.000 A 
ATOM     19  C   UNL     1      44.519   2.447   9.387  0.00  0.00    +0.000 A 
ATOM     20  C   UNL     1      44.405   3.828   9.206  0.00  0.00    +0.000 A 
ATOM     21  C   UNL     1      45.282   4.478   8.334  0.00  0.00    +0.000 A 
ATOM     22  C   UNL     1      46.257   3.757   7.637  0.00  0.00    +0.000 A 
BRANCH  17  24
ATOM     23  N   UNL     1      48.417   2.379   6.514  0.00  0.00    +0.000 N 
ATOM     24  C   UNL     1      47.416   1.632   7.080  0.00  0.00    +0.000 C 
ATOM     25  O   UNL     1      47.415   0.414   7.006  0.00  0.00    +0.000 OA
ATOM     26  H   UNL     1      49.175   1.861   6.089  0.00  0.00    +0.000 HD
ATOM     27  H   UNL     1      48.578   3.342   6.757  0.00  0.00    +0.000 HD
ENDBRANCH  17  24
ENDBRANCH  16  20
ENDBRANCH  15  16
ENDBRANCH   1  15
TORSDOF 5
ENDMDL
MODEL 3
REMARK VINA RESULT:    -7.610      2.112      2.658
REMARK INTER + INTRA:         -10.850
REMARK INTER:                 -10.167
REMARK INTRA:                  -0.683
REMARK UNBOUND:                -1.016
REMARK  Name = 
REMARK  5 active torsions:
REMARK  status: ('A' for Active; 'I' for Inactive)
REMARK    1  A    between atoms: C_2  and  C_4
REMARK    2  A    between atoms: C_7  and  O_8
REMARK    3  A    between atoms: O_8  and  C_9
REMARK    4  A    between atoms: C_9  and  C_10
REMARK    5  A    between atoms: C_15  and  N_16
REMARK                            x       y       z     vdW  Elec       q    Type
REMARK                         _______ _______ _______ _____ _____    ______ ____
ROOT
ATOM      1  C   UNL     1      44.764   4.908  11.668  0.00  0.00    +0.000 A 
ATOM      2  C   UNL     1      44.012   6.050  11.373  0.00  0.00    +0.000 A 
ATOM      3  C   UNL     1      44.569   7.307  11.548  0.00  0.00    +0.000 A 
ATOM      4  F   UNL     1      43.845   8.399  11.264  0.00  0.00    +0.000 F 
ATOM      5  C   UNL     1      45.848   7.451  12.059  0.00  0.00    +0.000 A 
ATOM      6  C   UNL     1      46.620   6.334  12.402  0.00  0.00    +0.000 A 
ATOM      7  C   UNL     1      46.073   5.065  12.150  0.00  0.00    +0.000 A 
ENDROOT
BRANCH   6   8
ATOM      8  N   UNL     1      47.843   6.478  13.016  0.00  0.00    +0.000 N 
ATOM      9  C   UNL     1      48.024   6.156  14.436  0.00  0.00    +0.000 C 
ATOM     10  C   UNL     1      48.637   7.359  15.177  0.00  0.00    +0.000 C 
ATOM     11  N   UNL     1      49.886   7.854  14.554  0.00  0.00    +0.000 NA
ATOM     12  C   UNL     1      49.617   8.173  13.132  0.00  0.00    +0.000 C 
ATOM     13  C   UNL     1      49.029   6.991  12.324  0.00  0.00    +0.000 C 
ATOM     14  H   UNL     1      50.565   7.093  14.575  0.00  0.00    +0.000 HD
ENDBRANCH   6   8
BRANCH   1  15
ATOM     15  C   UNL     1      44.101   3.553  11.612  0.00  0.00    +0.000 C 
BRANCH  15  16
ATOM     16  O   UNL     1      43.591   3.264  10.311  0.00  0.00    +0.000 OA
BRANCH  16  20
ATOM     17  C   UNL     1      46.403   2.681   7.282  0.00  0.00    +0.000 A 
ATOM     18  C   UNL     1      46.063   1.594   8.092  0.00  0.00    +0.000 A 
ATOM     19  C   UNL     1      45.130   1.750   9.122  0.00  0.00    +0.000 A 
ATOM     20  C   UNL     1      44.528   2.991   9.348  0.00  0.00    +0.000 A 
ATOM     21  C   UNL     1      44.881   4.078   8.544  0.00  0.00    +0.000 A 
ATOM     22  C   UNL     1      45.818   3.929   7.516  0.00  0.00    +0.000 A 
BRANCH  17  24
ATOM     23  N   UNL     1      48.657   2.099   6.572  0.00  0.00    +0.000 N 
ATOM     24  C   UNL     1      47.417   2.553   6.205  0.00  0.00    +0.000 C 
ATOM     25  O   UNL     1      47.157   2.817   5.043  0.00  0.00    +0.000 OA
ATOM     26  H   UNL     1      49.316   1.943   5.820  0.00  0.00    +0.000 HD
ATOM     27  H   UNL     1      48.831   1.651   7.456  0.00  0.00    +0.000 HD
ENDBRANCH  17  24
ENDBRANCH  16  20
ENDBRANCH  15  16
ENDBRANCH   1  15
TORSDOF 5
ENDMDL
MODEL 4
REMARK VINA RESULT:    -6.972      4.359      8.062
REMARK INTER + INTRA:         -10.026
REMARK INTER:                  -9.442
REMARK INTRA:                  -0.584
REMARK UNBOUND:                -1.016
REMARK  Name = 
REMARK  5 active torsions:
REMARK  status: ('A' for Active; 'I' for Inactive)
REMARK    1  A    between atoms: C_2  and  C_4
REMARK    2  A    between atoms: C_7  and  O_8
REMARK    3  A    between atoms: O_8  and  C_9
REMARK    4  A    between atoms: C_9  and  C_10
REMARK    5  A    between atoms: C_15  and  N_16
REMARK                            x       y       z     vdW  Elec       q    Type
REMARK                         _______ _______ _______ _____ _____    ______ ____
ROOT
ATOM      1  C   UNL     1      45.434   4.498  12.762  0.00  0.00    +0.000 A 
ATOM      2  C   UNL     1      44.205   5.110  13.032  0.00  0.00    +0.000 A 
ATOM      3  C   UNL     1      43.187   5.058  12.093  0.00  0.00    +0.000 A 
ATOM      4  F   UNL     1      42.011   5.645  12.357  0.00  0.00    +0.000 F 
ATOM      5  C   UNL     1      43.385   4.449  10.866  0.00  0.00    +0.000 A 
ATOM      6  C   UNL     1      44.612   3.857  10.541  0.00  0.00    +0.000 A 
ATOM      7  C   UNL     1      45.611   3.851  11.529  0.00  0.00    +0.000 A 
ENDROOT
BRANCH   6   8
ATOM      8  N   UNL     1      44.847   3.354   9.282  0.00  0.00    +0.000 N 
ATOM      9  C   UNL     1      44.785   1.912   9.015  0.00  0.00    +0.000 C 
ATOM     10  C   UNL     1      46.092   1.441   8.353  0.00  0.00    +0.000 C 
ATOM     11  N   UNL     1      46.448   2.217   7.143  0.00  0.00    +0.000 NA
ATOM     12  C   UNL     1      46.508   3.654   7.498  0.00  0.00    +0.000 C 
ATOM     13  C   UNL     1      45.208   4.197   8.139  0.00  0.00    +0.000 C 
ATOM     14  H   UNL     1      45.693   2.097   6.467  0.00  0.00    +0.000 HD
ENDBRANCH   6   8
BRANCH   1  15
ATOM     15  C   UNL     1      46.579   4.684  13.727  0.00  0.00    +0.000 C 
BRANCH  15  16
ATOM     16  O   UNL     1      46.909   3.470  14.401  0.00  0.00    +0.000 OA
BRANCH  16  20
ATOM     17  C   UNL     1      48.623   4.152  18.145  0.00  0.00    +0.000 A 
ATOM     18  C   UNL     1      48.776   2.890  17.563  0.00  0.00    +0.000 A 
ATOM     19  C   UNL     1      48.212   2.620  16.313  0.00  0.00    +0.000 A 
ATOM     20  C   UNL     1      47.493   3.608  15.633  0.00  0.00    +0.000 A 
ATOM     21  C   UNL     1      47.331   4.863  16.225  0.00  0.00    +0.000 A 
ATOM     22  C   UNL     1      47.889   5.137  17.478  0.00  0.00    +0.000 A 
BRANCH  17  24
ATOM     23  N   UNL     1      48.587   3.840  20.559  0.00  0.00    +0.000 N 
ATOM     24  C   UNL     1      49.180   4.455  19.487  0.00  0.00    +0.000 C 
ATOM     25  O   UNL     1      50.136   5.200  19.633  0.00  0.00    +0.000 OA
ATOM     26  H   UNL     1      49.022   3.994  21.459  0.00  0.00    +0.000 HD
ATOM     27  H   UNL     1      47.970   3.051  20.458  0.00  0.00    +0.000 HD
ENDBRANCH  17  24
ENDBRANCH  16  20
ENDBRANCH  15  16
ENDBRANCH   1  15
TORSDOF 5
ENDMDL
MODEL 5
REMARK VINA RESULT:    -6.830      2.577      3.826
REMARK INTER + INTRA:          -9.842
REMARK INTER:                  -9.194
REMARK INTRA:                  -0.648
REMARK UNBOUND:                -1.016
REMARK  Name = 
REMARK  5 active torsions:
REMARK  status: ('A' for Active; 'I' for Inactive)
REMARK    1  A    between atoms: C_2  and  C_4
REMARK    2  A    between atoms: C_7  and  O_8
REMARK    3  A    between atoms: O_8  and  C_9
REMARK    4  A    between atoms: C_9  and  C_10
REMARK    5  A    between atoms: C_15  and  N_16
REMARK                            x       y       z     vdW  Elec       q    Type
REMARK                         _______ _______ _______ _____ _____    ______ ____
ROOT
ATOM      1  C   UNL     1      45.972   6.050  12.038  0.00  0.00    +0.000 A 
ATOM      2  C   UNL     1      46.957   6.864  11.470  0.00  0.00    +0.000 A 
ATOM      3  C   UNL     1      48.152   7.071  12.139  0.00  0.00    +0.000 A 
ATOM      4  F   UNL     1      49.094   7.852  11.590  0.00  0.00    +0.000 F 
ATOM      5  C   UNL     1      48.369   6.518  13.390  0.00  0.00    +0.000 A 
ATOM      6  C   UNL     1      47.394   5.727  14.011  0.00  0.00    +0.000 A 
ATOM      7  C   UNL     1      46.217   5.465  13.290  0.00  0.00    +0.000 A 
ENDROOT
BRANCH   6   8
ATOM      8  N   UNL     1      47.562   5.275  15.299  0.00  0.00    +0.000 N 
ATOM      9  C   UNL     1      48.391   6.009  16.262  0.00  0.00    +0.000 C 
ATOM     10  C   UNL     1      49.456   5.074  16.864  0.00  0.00    +0.000 C 
ATOM     11  N   UNL     1      48.886   3.838  17.448  0.00  0.00    +0.000 NA
ATOM     12  C   UNL     1      48.081   3.148  16.413  0.00  0.00    +0.000 C 
ATOM     13  C   UNL     1      46.969   4.028  15.792  0.00  0.00    +0.000 C 
ATOM     14  H   UNL     1      48.252   4.115  18.197  0.00  0.00    +0.000 HD
ENDBRANCH   6   8
BRANCH   1  15
ATOM     15  C   UNL     1      44.621   5.950  11.371  0.00  0.00    +0.000 C 
BRANCH  15  16
ATOM     16  O   UNL     1      44.223   4.593  11.181  0.00  0.00    +0.000 OA
BRANCH  16  20
ATOM     17  C   UNL     1      46.025   2.841   7.849  0.00  0.00    +0.000 A 
ATOM     18  C   UNL     1      45.522   2.004   8.849  0.00  0.00    +0.000 A 
ATOM     19  C   UNL     1      44.917   2.553   9.984  0.00  0.00    +0.000 A 
ATOM     20  C   UNL     1      44.806   3.939  10.127  0.00  0.00    +0.000 A 
ATOM     21  C   UNL     1      45.323   4.771   9.130  0.00  0.00    +0.000 A 
ATOM     22  C   UNL     1      45.934   4.228   7.996  0.00  0.00    +0.000 A 
BRANCH  17  24
ATOM     23  N   UNL     1      47.302   1.061   6.787  0.00  0.00    +0.000 N 
ATOM     24  C   UNL     1      46.705   2.288   6.651  0.00  0.00    +0.000 C 
ATOM     25  O   UNL     1      46.716   2.883   5.585  0.00  0.00    +0.000 OA
ATOM     26  H   UNL     1      47.695   0.660   5.945  0.00  0.00    +0.000 HD
ATOM     27  H   UNL     1      47.109   0.447   7.560  0.00  0.00    +0.000 HD
ENDBRANCH  17  24
ENDBRANCH  16  20
ENDBRANCH  15  16
ENDBRANCH   1  15
TORSDOF 5
ENDMDL
MODEL 6
REMARK VINA RESULT:    -6.795      5.255      7.857
REMARK INTER + INTRA:          -9.797
REMARK INTER:                  -9.022
REMARK INTRA:                  -0.775
REMARK UNBOUND:                -1.016
REMARK  Name = 
REMARK  5 active torsions:
REMARK  status: ('A' for Active; 'I' for Inactive)
REMARK    1  A    between atoms: C_2  and  C_4
REMARK    2  A    between atoms: C_7  and  O_8
REMARK    3  A    between atoms: O_8  and  C_9
REMARK    4  A    between atoms: C_9  and  C_10
REMARK    5  A    between atoms: C_15  and  N_16
REMARK                            x       y       z     vdW  Elec       q    Type
REMARK                         _______ _______ _______ _____ _____    ______ ____
ROOT
ATOM      1  C   UNL     1      47.961   6.425  14.434  0.00  0.00    +0.000 A 
ATOM      2  C   UNL     1      48.545   7.038  13.321  0.00  0.00    +0.000 A 
ATOM      3  C   UNL     1      47.933   6.944  12.081  0.00  0.00    +0.000 A 
ATOM      4  F   UNL     1      48.496   7.534  11.016  0.00  0.00    +0.000 F 
ATOM      5  C   UNL     1      46.771   6.209  11.918  0.00  0.00    +0.000 A 
ATOM      6  C   UNL     1      46.175   5.548  13.000  0.00  0.00    +0.000 A 
ATOM      7  C   UNL     1      46.764   5.713  14.264  0.00  0.00    +0.000 A 
ENDROOT
BRANCH   6   8
ATOM      8  N   UNL     1      45.088   4.725  12.817  0.00  0.00    +0.000 N 
ATOM      9  C   UNL     1      45.247   3.355  12.315  0.00  0.00    +0.000 C 
ATOM     10  C   UNL     1      44.353   3.136  11.081  0.00  0.00    +0.000 C 
ATOM     11  N   UNL     1      42.933   3.481  11.319  0.00  0.00    +0.000 NA
ATOM     12  C   UNL     1      42.856   4.879  11.804  0.00  0.00    +0.000 C 
ATOM     13  C   UNL     1      43.709   5.154  13.066  0.00  0.00    +0.000 C 
ATOM     14  H   UNL     1      42.590   2.877  12.066  0.00  0.00    +0.000 HD
ENDBRANCH   6   8
BRANCH   1  15
ATOM     15  C   UNL     1      48.709   6.410  15.745  0.00  0.00    +0.000 C 
BRANCH  15  16
ATOM     16  O   UNL     1      48.221   5.397  16.624  0.00  0.00    +0.000 OA
BRANCH  16  20
ATOM     17  C   UNL     1      51.047   2.441  17.456  0.00  0.00    +0.000 A 
ATOM     18  C   UNL     1      49.761   2.044  17.081  0.00  0.00    +0.000 A 
ATOM     19  C   UNL     1      48.783   3.004  16.800  0.00  0.00    +0.000 A 
ATOM     20  C   UNL     1      49.084   4.366  16.888  0.00  0.00    +0.000 A 
ATOM     21  C   UNL     1      50.368   4.758  17.278  0.00  0.00    +0.000 A 
ATOM     22  C   UNL     1      51.348   3.802  17.565  0.00  0.00    +0.000 A 
BRANCH  17  24
ATOM     23  N   UNL     1      51.667   0.183  18.122  0.00  0.00    +0.000 N 
ATOM     24  C   UNL     1      52.093   1.444  17.795  0.00  0.00    +0.000 C 
ATOM     25  O   UNL     1      53.281   1.723  17.765  0.00  0.00    +0.000 OA
ATOM     26  H   UNL     1      52.390  -0.507  18.277  0.00  0.00    +0.000 HD
ATOM     27  H   UNL     1      50.734  -0.142  17.926  0.00  0.00    +0.000 HD
ENDBRANCH  17  24
ENDBRANCH  16  20
ENDBRANCH  15  16
ENDBRANCH   1  15
TORSDOF 5
ENDMDL
MODEL 7
REMARK VINA RESULT:    -6.691      3.529      7.411
REMARK INTER + INTRA:          -9.662
REMARK INTER:                  -8.935
REMARK INTRA:                  -0.728
REMARK UNBOUND:                -1.016
REMARK  Name = 
REMARK  5 active torsions:
REMARK  status: ('A' for Active; 'I' for Inactive)
REMARK    1  A    between atoms: C_2  and  C_4
REMARK    2  A    between atoms: C_7  and  O_8
REMARK    3  A    between atoms: O_8  and  C_9
REMARK    4  A    between atoms: C_9  and  C_10
REMARK    5  A    between atoms: C_15  and  N_16
REMARK                            x       y       z     vdW  Elec       q    Type
REMARK                         _______ _______ _______ _____ _____    ______ ____
ROOT
ATOM      1  C   UNL     1      45.450   6.064  11.607  0.00  0.00    +0.000 A 
ATOM      2  C   UNL     1      44.120   6.178  12.024  0.00  0.00    +0.000 A 
ATOM      3  C   UNL     1      43.142   5.395  11.432  0.00  0.00    +0.000 A 
ATOM      4  F   UNL     1      41.868   5.507  11.834  0.00  0.00    +0.000 F 
ATOM      5  C   UNL     1      43.456   4.531  10.396  0.00  0.00    +0.000 A 
ATOM      6  C   UNL     1      44.770   4.415   9.924  0.00  0.00    +0.000 A 
ATOM      7  C   UNL     1      45.763   5.159  10.582  0.00  0.00    +0.000 A 
ENDROOT
BRANCH   6   8
ATOM      8  N   UNL     1      45.063   3.645   8.822  0.00  0.00    +0.000 N 
ATOM      9  C   UNL     1      44.710   2.222   8.773  0.00  0.00    +0.000 C 
ATOM     10  C   UNL     1      45.956   1.380   8.441  0.00  0.00    +0.000 C 
ATOM     11  N   UNL     1      46.653   1.824   7.213  0.00  0.00    +0.000 NA
ATOM     12  C   UNL     1      46.989   3.261   7.347  0.00  0.00    +0.000 C 
ATOM     13  C   UNL     1      45.770   4.166   7.648  0.00  0.00    +0.000 C 
ATOM     14  H   UNL     1      45.997   1.733   6.436  0.00  0.00    +0.000 HD
ENDBRANCH   6   8
BRANCH   1  15
ATOM     15  C   UNL     1      46.480   7.023  12.156  0.00  0.00    +0.000 C 
BRANCH  15  16
ATOM     16  O   UNL     1      47.683   6.353  12.529  0.00  0.00    +0.000 OA
BRANCH  16  20
ATOM     17  C   UNL     1      48.007   5.089  16.494  0.00  0.00    +0.000 A 
ATOM     18  C   UNL     1      47.230   4.328  15.615  0.00  0.00    +0.000 A 
ATOM     19  C   UNL     1      47.092   4.722  14.280  0.00  0.00    +0.000 A 
ATOM     20  C   UNL     1      47.730   5.874  13.813  0.00  0.00    +0.000 A 
ATOM     21  C   UNL     1      48.494   6.639  14.699  0.00  0.00    +0.000 A 
ATOM     22  C   UNL     1      48.632   6.253  16.036  0.00  0.00    +0.000 A 
BRANCH  17  24
ATOM     23  N   UNL     1      47.082   5.003  18.743  0.00  0.00    +0.000 N 
ATOM     24  C   UNL     1      48.143   4.715  17.924  0.00  0.00    +0.000 C 
ATOM     25  O   UNL     1      49.140   4.157  18.351  0.00  0.00    +0.000 OA
ATOM     26  H   UNL     1      47.154   4.675  19.698  0.00  0.00    +0.000 HD
ATOM     27  H   UNL     1      46.169   5.234  18.388  0.00  0.00    +0.000 HD
ENDBRANCH  17  24
ENDBRANCH  16  20
ENDBRANCH  15  16
ENDBRANCH   1  15
TORSDOF 5
ENDMDL
MODEL 8
REMARK VINA RESULT:    -6.542      4.622      8.163
REMARK INTER + INTRA:          -9.471
REMARK INTER:                  -8.699
REMARK INTRA:                  -0.771
REMARK UNBOUND:                -1.016
REMARK  Name = 
REMARK  5 active torsions:
REMARK  status: ('A' for Active; 'I' for Inactive)
REMARK    1  A    between atoms: C_2  and  C_4
REMARK    2  A    between atoms: C_7  and  O_8
REMARK    3  A    between atoms: O_8  and  C_9
REMARK    4  A    between atoms: C_9  and  C_10
REMARK    5  A    between atoms: C_15  and  N_16
REMARK                            x       y       z     vdW  Elec       q    Type
REMARK                         _______ _______ _______ _____ _____    ______ ____
ROOT
ATOM      1  C   UNL     1      46.708   6.899  13.084  0.00  0.00    +0.000 A 
ATOM      2  C   UNL     1      46.322   8.201  12.750  0.00  0.00    +0.000 A 
ATOM      3  C   UNL     1      45.218   8.407  11.938  0.00  0.00    +0.000 A 
ATOM      4  F   UNL     1      44.850   9.656  11.621  0.00  0.00    +0.000 F 
ATOM      5  C   UNL     1      44.517   7.335  11.411  0.00  0.00    +0.000 A 
ATOM      6  C   UNL     1      44.894   6.016  11.690  0.00  0.00    +0.000 A 
ATOM      7  C   UNL     1      45.969   5.821  12.573  0.00  0.00    +0.000 A 
ENDROOT
BRANCH   6   8
ATOM      8  N   UNL     1      44.271   4.954  11.075  0.00  0.00    +0.000 N 
ATOM      9  C   UNL     1      43.124   4.282  11.695  0.00  0.00    +0.000 C 
ATOM     10  C   UNL     1      43.389   2.769  11.798  0.00  0.00    +0.000 C 
ATOM     11  N   UNL     1      43.764   2.152  10.505  0.00  0.00    +0.000 NA
ATOM     12  C   UNL     1      44.936   2.872   9.954  0.00  0.00    +0.000 C 
ATOM     13  C   UNL     1      44.719   4.396   9.795  0.00  0.00    +0.000 C 
ATOM     14  H   UNL     1      42.986   2.291   9.860  0.00  0.00    +0.000 HD
ENDBRANCH   6   8
BRANCH   1  15
ATOM     15  C   UNL     1      47.993   6.684  13.847  0.00  0.00    +0.000 C 
BRANCH  15  16
ATOM     16  O   UNL     1      48.107   5.345  14.328  0.00  0.00    +0.000 OA
BRANCH  16  20
ATOM     17  C   UNL     1      48.035   5.061  18.491  0.00  0.00    +0.000 A 
ATOM     18  C   UNL     1      47.308   4.127  17.749  0.00  0.00    +0.000 A 
ATOM     19  C   UNL     1      47.301   4.192  16.352  0.00  0.00    +0.000 A 
ATOM     20  C   UNL     1      48.023   5.187  15.687  0.00  0.00    +0.000 A 
ATOM     21  C   UNL     1      48.737   6.127  16.434  0.00  0.00    +0.000 A 
ATOM     22  C   UNL     1      48.744   6.070  17.832  0.00  0.00    +0.000 A 
BRANCH  17  24
ATOM     23  N   UNL     1      48.645   3.973  20.582  0.00  0.00    +0.000 N 
ATOM     24  C   UNL     1      48.031   5.038  19.976  0.00  0.00    +0.000 C 
ATOM     25  O   UNL     1      47.526   5.935  20.631  0.00  0.00    +0.000 OA
ATOM     26  H   UNL     1      48.703   4.006  21.591  0.00  0.00    +0.000 HD
ATOM     27  H   UNL     1      49.269   3.355  20.090  0.00  0.00    +0.000 HD
ENDBRANCH  17  24
ENDBRANCH  16  20
ENDBRANCH  15  16
ENDBRANCH   1  15
TORSDOF 5
ENDMDL
MODEL 9
REMARK VINA RESULT:    -6.386      4.668      7.091
REMARK INTER + INTRA:          -9.269
REMARK INTER:                  -8.234
REMARK INTRA:                  -1.035
REMARK UNBOUND:                -1.016
REMARK  Name = 
REMARK  5 active torsions:
REMARK  status: ('A' for Active; 'I' for Inactive)
REMARK    1  A    between atoms: C_2  and  C_4
REMARK    2  A    between atoms: C_7  and  O_8
REMARK    3  A    between atoms: O_8  and  C_9
REMARK    4  A    between atoms: C_9  and  C_10
REMARK    5  A    between atoms: C_15  and  N_16
REMARK                            x       y       z     vdW  Elec       q    Type
REMARK                         _______ _______ _______ _____ _____    ______ ____
ROOT
ATOM      1  C   UNL     1      49.134   7.688  14.902  0.00  0.00    +0.000 A 
ATOM      2  C   UNL     1      48.523   8.835  15.420  0.00  0.00    +0.000 A 
ATOM      3  C   UNL     1      48.285   8.935  16.781  0.00  0.00    +0.000 A 
ATOM      4  F   UNL     1      47.700  10.037  17.274  0.00  0.00    +0.000 F 
ATOM      5  C   UNL     1      48.601   7.892  17.635  0.00  0.00    +0.000 A 
ATOM      6  C   UNL     1      49.178   6.711  17.151  0.00  0.00    +0.000 A 
ATOM      7  C   UNL     1      49.483   6.652  15.781  0.00  0.00    +0.000 A 
ENDROOT
BRANCH   6   8
ATOM      8  N   UNL     1      49.385   5.631  17.979  0.00  0.00    +0.000 N 
ATOM      9  C   UNL     1      49.346   4.258  17.463  0.00  0.00    +0.000 C 
ATOM     10  C   UNL     1      48.348   3.415  18.278  0.00  0.00    +0.000 C 
ATOM     11  N   UNL     1      48.602   3.455  19.735  0.00  0.00    +0.000 NA
ATOM     12  C   UNL     1      48.609   4.869  20.181  0.00  0.00    +0.000 C 
ATOM     13  C   UNL     1      49.618   5.762  19.420  0.00  0.00    +0.000 C 
ATOM     14  H   UNL     1      49.536   3.078  19.896  0.00  0.00    +0.000 HD
ENDBRANCH   6   8
BRANCH   1  15
ATOM     15  C   UNL     1      49.255   7.529  13.406  0.00  0.00    +0.000 C 
BRANCH  15  16
ATOM     16  O   UNL     1      48.759   6.266  12.964  0.00  0.00    +0.000 OA
BRANCH  16  20
ATOM     17  C   UNL     1      44.631   5.755  12.622  0.00  0.00    +0.000 A 
ATOM     18  C   UNL     1      45.220   6.852  11.987  0.00  0.00    +0.000 A 
ATOM     19  C   UNL     1      46.599   7.062  12.083  0.00  0.00    +0.000 A 
ATOM     20  C   UNL     1      47.400   6.176  12.810  0.00  0.00    +0.000 A 
ATOM     21  C   UNL     1      46.804   5.089  13.455  0.00  0.00    +0.000 A 
ATOM     22  C   UNL     1      45.425   4.877  13.366  0.00  0.00    +0.000 A 
BRANCH  17  24
ATOM     23  N   UNL     1      42.455   6.275  11.664  0.00  0.00    +0.000 N 
ATOM     24  C   UNL     1      43.165   5.528  12.567  0.00  0.00    +0.000 C 
ATOM     25  O   UNL     1      42.616   4.700  13.276  0.00  0.00    +0.000 OA
ATOM     26  H   UNL     1      41.470   6.058  11.581  0.00  0.00    +0.000 HD
ATOM     27  H   UNL     1      42.895   6.778  10.911  0.00  0.00    +0.000 HD
ENDBRANCH  17  24
ENDBRANCH  16  20
ENDBRANCH  15  16
ENDBRANCH   1  15
TORSDOF 5
ENDMDL
