MODEL 1
REMARK VINA RESULT:    -6.826      0.000      0.000
REMARK INTER + INTRA:          -8.970
REMARK INTER:                  -8.621
REMARK INTRA:                  -0.349
REMARK UNBOUND:                -0.349
REMARK  Name = 
REMARK  8 active torsions:
REMARK  status: ('A' for Active; 'I' for Inactive)
REMARK    1  A    between atoms: C_1  and  C_2
REMARK    2  A    between atoms: C_2  and  C_3
REMARK    3  A    between atoms: C_2  and  C_4
REMARK    4  A    between atoms: C_2  and  C_5
REMARK    5  A    between atoms: C_8  and  C_9
REMARK    6  A    between atoms: N_16  and  C_17
REMARK    7  A    between atoms: C_17  and  C_18
REMARK    8  A    between atoms: C_21  and  O_22
REMARK                            x       y       z     vdW  Elec       q    Type
REMARK                         _______ _______ _______ _____ _____    ______ ____
ROOT
ATOM      1  C   UNL     1      47.550   7.580  13.255  0.00  0.00    +0.000 A 
ATOM      2  N   UNL     1      47.960   7.283  14.474  0.00  0.00    +0.000 NA
ATOM      3  C   UNL     1      47.786   5.935  14.646  0.00  0.00    +0.000 A 
ATOM      4  C   UNL     1      48.092   5.130  15.750  0.00  0.00    +0.000 A 
ATOM      5  C   UNL     1      47.770   3.791  15.620  0.00  0.00    +0.000 A 
ATOM      6  N   UNL     1      47.189   3.239  14.525  0.00  0.00    +0.000 NA
ATOM      7  C   UNL     1      46.911   4.019  13.450  0.00  0.00    +0.000 A 
ATOM      8  C   UNL     1      47.224   5.370  13.511  0.00  0.00    +0.000 A 
ATOM      9  N   UNL     1      47.118   6.417  12.610  0.00  0.00    +0.000 N 
ENDROOT
BRANCH   4  10
ATOM     10  C   UNL     1      48.745   5.654  16.952  0.00  0.00    +0.000 C 
ATOM     11  N   UNL     1      48.126   6.675  17.628  0.00  0.00    +0.000 N 
ATOM     12  O   UNL     1      49.814   5.201  17.342  0.00  0.00    +0.000 OA
ATOM     13  H   UNL     1      47.232   7.051  17.301  0.00  0.00    +0.000 HD
ATOM     14  H   UNL     1      48.558   7.066  18.445  0.00  0.00    +0.000 HD
ENDBRANCH   4  10
BRANCH   1  16
ATOM     15  C   UNL     1      48.864   8.880  11.609  0.00  0.00    +0.000 C 
ATOM     16  C   UNL     1      47.761   8.981  12.679  0.00  0.00    +0.000 C 
ATOM     17  C   UNL     1      48.312   9.940  13.776  0.00  0.00    +0.000 C 
ATOM     18  C   UNL     1      46.471   9.671  12.197  0.00  0.00    +0.000 C 
ENDBRANCH   1  16
BRANCH   9  19
ATOM     19  C   UNL     1      46.494   6.275  11.299  0.00  0.00    +0.000 C 
BRANCH  19  20
ATOM     20  C   UNL     1      45.250   5.420  11.174  0.00  0.00    +0.000 A 
ATOM     21  C   UNL     1      44.188   5.485  12.089  0.00  0.00    +0.000 A 
ATOM     22  C   UNL     1      43.277   4.428  12.195  0.00  0.00    +0.000 A 
ATOM     23  C   UNL     1      43.410   3.310  11.375  0.00  0.00    +0.000 A 
ATOM     24  C   UNL     1      44.382   3.288  10.384  0.00  0.00    +0.000 A 
ATOM     25  F   UNL     1      44.516   2.225   9.577  0.00  0.00    +0.000 F 
ATOM     26  C   UNL     1      45.299   4.330  10.281  0.00  0.00    +0.000 A 
BRANCH  23  27
ATOM     27  O   UNL     1      42.633   2.207  11.575  0.00  0.00    +0.000 OA
ATOM     28  H   UNL     1      41.974   2.167  10.860  0.00  0.00    +0.000 HD
ENDBRANCH  23  27
ENDBRANCH  19  20
ENDBRANCH   9  19
TORSDOF 5
ENDMDL
MODEL 2
REMARK VINA RESULT:    -6.749      3.062      6.639
REMARK INTER + INTRA:          -8.873
REMARK INTER:                  -8.256
REMARK INTRA:                  -0.617
REMARK UNBOUND:                -0.349
REMARK  Name = 
REMARK  8 active torsions:
REMARK  status: ('A' for Active; 'I' for Inactive)
REMARK    1  A    between atoms: C_1  and  C_2
REMARK    2  A    between atoms: C_2  and  C_3
REMARK    3  A    between atoms: C_2  and  C_4
REMARK    4  A    between atoms: C_2  and  C_5
REMARK    5  A    between atoms: C_8  and  C_9
REMARK    6  A    between atoms: N_16  and  C_17
REMARK    7  A    between atoms: C_17  and  C_18
REMARK    8  A    between atoms: C_21  and  O_22
REMARK                            x       y       z     vdW  Elec       q    Type
REMARK                         _______ _______ _______ _____ _____    ______ ____
ROOT
ATOM      1  C   UNL     1      44.991   5.862  11.672  0.00  0.00    +0.000 A 
ATOM      2  N   UNL     1      44.222   6.877  11.324  0.00  0.00    +0.000 NA
ATOM      3  C   UNL     1      44.926   8.026  11.575  0.00  0.00    +0.000 A 
ATOM      4  C   UNL     1      44.563   9.360  11.353  0.00  0.00    +0.000 A 
ATOM      5  C   UNL     1      45.497  10.304  11.741  0.00  0.00    +0.000 A 
ATOM      6  N   UNL     1      46.696  10.018  12.309  0.00  0.00    +0.000 NA
ATOM      7  C   UNL     1      47.050   8.723  12.505  0.00  0.00    +0.000 A 
ATOM      8  C   UNL     1      46.163   7.726  12.123  0.00  0.00    +0.000 A 
ATOM      9  N   UNL     1      46.217   6.342  12.141  0.00  0.00    +0.000 N 
ENDROOT
BRANCH   4  10
ATOM     10  C   UNL     1      43.298   9.740  10.719  0.00  0.00    +0.000 C 
ATOM     11  N   UNL     1      42.185   8.989  11.003  0.00  0.00    +0.000 N 
ATOM     12  O   UNL     1      43.234  10.693   9.954  0.00  0.00    +0.000 OA
ATOM     13  H   UNL     1      42.241   8.193  11.645  0.00  0.00    +0.000 HD
ATOM     14  H   UNL     1      41.308   9.215  10.570  0.00  0.00    +0.000 HD
ENDBRANCH   4  10
BRANCH   1  16
ATOM     15  C   UNL     1      44.958   4.129   9.905  0.00  0.00    +0.000 C 
ATOM     16  C   UNL     1      44.570   4.424  11.366  0.00  0.00    +0.000 C 
ATOM     17  C   UNL     1      43.020   4.286  11.436  0.00  0.00    +0.000 C 
ATOM     18  C   UNL     1      45.081   3.382  12.380  0.00  0.00    +0.000 C 
ENDBRANCH   1  16
BRANCH   9  19
ATOM     19  C   UNL     1      47.330   5.598  12.722  0.00  0.00    +0.000 C 
BRANCH  19  20
ATOM     20  C   UNL     1      47.513   5.620  14.225  0.00  0.00    +0.000 A 
ATOM     21  C   UNL     1      48.400   6.493  14.871  0.00  0.00    +0.000 A 
ATOM     22  C   UNL     1      48.853   6.216  16.166  0.00  0.00    +0.000 A 
ATOM     23  C   UNL     1      48.405   5.076  16.830  0.00  0.00    +0.000 A 
ATOM     24  C   UNL     1      47.434   4.271  16.250  0.00  0.00    +0.000 A 
ATOM     25  F   UNL     1      46.982   3.177  16.881  0.00  0.00    +0.000 F 
ATOM     26  C   UNL     1      46.990   4.535  14.957  0.00  0.00    +0.000 A 
BRANCH  23  27
ATOM     27  O   UNL     1      48.955   4.708  18.023  0.00  0.00    +0.000 OA
ATOM     28  H   UNL     1      49.170   5.516  18.519  0.00  0.00    +0.000 HD
ENDBRANCH  23  27
ENDBRANCH  19  20
ENDBRANCH   9  19
TORSDOF 5
ENDMDL
MODEL 3
REMARK VINA RESULT:    -6.703      2.389      4.374
REMARK INTER + INTRA:          -8.815
REMARK INTER:                  -8.451
REMARK INTRA:                  -0.364
REMARK UNBOUND:                -0.349
REMARK  Name = 
REMARK  8 active torsions:
REMARK  status: ('A' for Active; 'I' for Inactive)
REMARK    1  A    between atoms: C_1  and  C_2
REMARK    2  A    between atoms: C_2  and  C_3
REMARK    3  A    between atoms: C_2  and  C_4
REMARK    4  A    between atoms: C_2  and  C_5
REMARK    5  A    between atoms: C_8  and  C_9
REMARK    6  A    between atoms: N_16  and  C_17
REMARK    7  A    between atoms: C_17  and  C_18
REMARK    8  A    between atoms: C_21  and  O_22
REMARK                            x       y       z     vdW  Elec       q    Type
REMARK                         _______ _______ _______ _____ _____    ______ ____
ROOT
ATOM      1  C   UNL     1      44.975   4.940  12.276  0.00  0.00    +0.000 A 
ATOM      2  N   UNL     1      45.736   5.110  13.340  0.00  0.00    +0.000 NA
ATOM      3  C   UNL     1      46.816   5.860  12.953  0.00  0.00    +0.000 A 
ATOM      4  C   UNL     1      47.892   6.333  13.714  0.00  0.00    +0.000 A 
ATOM      5  C   UNL     1      48.845   7.052  13.017  0.00  0.00    +0.000 A 
ATOM      6  N   UNL     1      48.800   7.308  11.684  0.00  0.00    +0.000 NA
ATOM      7  C   UNL     1      47.745   6.864  10.955  0.00  0.00    +0.000 A 
ATOM      8  C   UNL     1      46.746   6.148  11.599  0.00  0.00    +0.000 A 
ATOM      9  N   UNL     1      45.546   5.597  11.181  0.00  0.00    +0.000 N 
ENDROOT
BRANCH   4  10
ATOM     10  C   UNL     1      47.992   6.118  15.160  0.00  0.00    +0.000 C 
ATOM     11  N   UNL     1      47.404   4.995  15.686  0.00  0.00    +0.000 N 
ATOM     12  O   UNL     1      48.575   6.917  15.881  0.00  0.00    +0.000 OA
ATOM     13  H   UNL     1      46.918   4.327  15.081  0.00  0.00    +0.000 HD
ATOM     14  H   UNL     1      47.441   4.830  16.676  0.00  0.00    +0.000 HD
ENDBRANCH   4  10
BRANCH   1  16
ATOM     15  C   UNL     1      42.616   5.108  11.545  0.00  0.00    +0.000 C 
ATOM     16  C   UNL     1      43.599   4.283  12.397  0.00  0.00    +0.000 C 
ATOM     17  C   UNL     1      43.081   4.376  13.863  0.00  0.00    +0.000 C 
ATOM     18  C   UNL     1      43.587   2.772  12.094  0.00  0.00    +0.000 C 
ENDBRANCH   1  16
BRANCH   9  19
ATOM     19  C   UNL     1      45.112   5.601   9.788  0.00  0.00    +0.000 C 
BRANCH  19  20
ATOM     20  C   UNL     1      45.314   4.348   8.961  0.00  0.00    +0.000 A 
ATOM     21  C   UNL     1      44.751   3.111   9.306  0.00  0.00    +0.000 A 
ATOM     22  C   UNL     1      45.278   1.922   8.788  0.00  0.00    +0.000 A 
ATOM     23  C   UNL     1      46.356   1.965   7.906  0.00  0.00    +0.000 A 
ATOM     24  C   UNL     1      46.842   3.188   7.464  0.00  0.00    +0.000 A 
ATOM     25  F   UNL     1      47.871   3.248   6.605  0.00  0.00    +0.000 F 
ATOM     26  C   UNL     1      46.331   4.373   7.984  0.00  0.00    +0.000 A 
BRANCH  23  27
ATOM     27  O   UNL     1      46.982   0.816   7.519  0.00  0.00    +0.000 OA
ATOM     28  H   UNL     1      47.667   1.049   6.869  0.00  0.00    +0.000 HD
ENDBRANCH  23  27
ENDBRANCH  19  20
ENDBRANCH   9  19
TORSDOF 5
ENDMDL
MODEL 4
REMARK VINA RESULT:    -6.643      3.176      5.083
REMARK INTER + INTRA:          -8.739
REMARK INTER:                  -7.810
REMARK INTRA:                  -0.930
REMARK UNBOUND:                -0.349
REMARK  Name = 
REMARK  8 active torsions:
REMARK  status: ('A' for Active; 'I' for Inactive)
REMARK    1  A    between atoms: C_1  and  C_2
REMARK    2  A    between atoms: C_2  and  C_3
REMARK    3  A    between atoms: C_2  and  C_4
REMARK    4  A    between atoms: C_2  and  C_5
REMARK    5  A    between atoms: C_8  and  C_9
REMARK    6  A    between atoms: N_16  and  C_17
REMARK    7  A    between atoms: C_17  and  C_18
REMARK    8  A    between atoms: C_21  and  O_22
REMARK                            x       y       z     vdW  Elec       q    Type
REMARK                         _______ _______ _______ _____ _____    ______ ____
ROOT
ATOM      1  C   UNL     1      45.814   4.480  12.963  0.00  0.00    +0.000 A 
ATOM      2  N   UNL     1      46.188   3.873  14.074  0.00  0.00    +0.000 NA
ATOM      3  C   UNL     1      47.136   4.663  14.670  0.00  0.00    +0.000 A 
ATOM      4  C   UNL     1      47.821   4.476  15.877  0.00  0.00    +0.000 A 
ATOM      5  C   UNL     1      48.746   5.454  16.195  0.00  0.00    +0.000 A 
ATOM      6  N   UNL     1      49.020   6.539  15.427  0.00  0.00    +0.000 NA
ATOM      7  C   UNL     1      48.340   6.725  14.267  0.00  0.00    +0.000 A 
ATOM      8  C   UNL     1      47.387   5.786  13.898  0.00  0.00    +0.000 A 
ATOM      9  N   UNL     1      46.507   5.687  12.832  0.00  0.00    +0.000 N 
ENDROOT
BRANCH   4  10
ATOM     10  C   UNL     1      47.556   3.344  16.769  0.00  0.00    +0.000 C 
ATOM     11  N   UNL     1      48.559   2.427  16.959  0.00  0.00    +0.000 N 
ATOM     12  O   UNL     1      46.473   3.214  17.324  0.00  0.00    +0.000 OA
ATOM     13  H   UNL     1      49.465   2.538  16.495  0.00  0.00    +0.000 HD
ATOM     14  H   UNL     1      48.401   1.632  17.551  0.00  0.00    +0.000 HD
ENDBRANCH   4  10
BRANCH   1  16
ATOM     15  C   UNL     1      43.379   4.704  12.582  0.00  0.00    +0.000 C 
ATOM     16  C   UNL     1      44.643   3.945  12.137  0.00  0.00    +0.000 C 
ATOM     17  C   UNL     1      44.385   2.446  12.472  0.00  0.00    +0.000 C 
ATOM     18  C   UNL     1      44.883   3.950  10.615  0.00  0.00    +0.000 C 
ENDBRANCH   1  16
BRANCH   9  19
ATOM     19  C   UNL     1      46.493   6.635  11.723  0.00  0.00    +0.000 C 
BRANCH  19  20
ATOM     20  C   UNL     1      45.606   7.859  11.825  0.00  0.00    +0.000 A 
ATOM     21  C   UNL     1      44.305   7.900  11.305  0.00  0.00    +0.000 A 
ATOM     22  C   UNL     1      43.684   9.126  11.040  0.00  0.00    +0.000 A 
ATOM     23  C   UNL     1      44.353  10.317  11.313  0.00  0.00    +0.000 A 
ATOM     24  C   UNL     1      45.591  10.290  11.940  0.00  0.00    +0.000 A 
ATOM     25  F   UNL     1      46.243  11.428  12.222  0.00  0.00    +0.000 F 
ATOM     26  C   UNL     1      46.218   9.074  12.195  0.00  0.00    +0.000 A 
BRANCH  23  27
ATOM     27  O   UNL     1      43.830  11.513  10.914  0.00  0.00    +0.000 OA
ATOM     28  H   UNL     1      42.863  11.467  11.009  0.00  0.00    +0.000 HD
ENDBRANCH  23  27
ENDBRANCH  19  20
ENDBRANCH   9  19
TORSDOF 5
ENDMDL
MODEL 5
REMARK VINA RESULT:    -6.548      2.416      5.832
REMARK INTER + INTRA:          -8.620
REMARK INTER:                  -8.372
REMARK INTRA:                  -0.248
REMARK UNBOUND:                -0.349
REMARK  Name = 
REMARK  8 active torsions:
REMARK  status: ('A' for Active; 'I' for Inactive)
REMARK    1  A    between atoms: C_1  and  C_2
REMARK    2  A    between atoms: C_2  and  C_3
REMARK    3  A    between atoms: C_2  and  C_4
REMARK    4  A    between atoms: C_2  and  C_5
REMARK    5  A    between atoms: C_8  and  C_9
REMARK    6  A    between atoms: N_16  and  C_17
REMARK    7  A    between atoms: C_17  and  C_18
REMARK    8  A    between atoms: C_21  and  O_22
REMARK                            x       y       z     vdW  Elec       q    Type
REMARK                         _______ _______ _______ _____ _____    ______ ____
ROOT
ATOM      1  C   UNL     1      46.929   7.216  13.002  0.00  0.00    +0.000 A 
ATOM      2  N   UNL     1      45.927   6.927  12.194  0.00  0.00    +0.000 NA
ATOM      3  C   UNL     1      45.682   5.584  12.312  0.00  0.00    +0.000 A 
ATOM      4  C   UNL     1      44.706   4.798  11.688  0.00  0.00    +0.000 A 
ATOM      5  C   UNL     1      44.734   3.451  12.003  0.00  0.00    +0.000 A 
ATOM      6  N   UNL     1      45.627   2.872  12.846  0.00  0.00    +0.000 NA
ATOM      7  C   UNL     1      46.559   3.642  13.462  0.00  0.00    +0.000 A 
ATOM      8  C   UNL     1      46.574   5.005  13.200  0.00  0.00    +0.000 A 
ATOM      9  N   UNL     1      47.339   6.059  13.672  0.00  0.00    +0.000 N 
ENDROOT
BRANCH   4  10
ATOM     10  C   UNL     1      43.694   5.359  10.789  0.00  0.00    +0.000 C 
ATOM     11  N   UNL     1      43.027   6.487  11.196  0.00  0.00    +0.000 N 
ATOM     12  O   UNL     1      43.444   4.838   9.711  0.00  0.00    +0.000 OA
ATOM     13  H   UNL     1      43.239   6.923  12.098  0.00  0.00    +0.000 HD
ATOM     14  H   UNL     1      42.316   6.886  10.610  0.00  0.00    +0.000 HD
ENDBRANCH   4  10
BRANCH   1  16
ATOM     15  C   UNL     1      46.276   9.569  12.599  0.00  0.00    +0.000 C 
ATOM     16  C   UNL     1      47.350   8.668  13.236  0.00  0.00    +0.000 C 
ATOM     17  C   UNL     1      48.676   8.976  12.478  0.00  0.00    +0.000 C 
ATOM     18  C   UNL     1      47.674   9.007  14.704  0.00  0.00    +0.000 C 
ENDBRANCH   1  16
BRANCH   9  19
ATOM     19  C   UNL     1      48.466   5.878  14.581  0.00  0.00    +0.000 C 
BRANCH  19  20
ATOM     20  C   UNL     1      48.183   5.552  16.033  0.00  0.00    +0.000 A 
ATOM     21  C   UNL     1      48.780   6.242  17.098  0.00  0.00    +0.000 A 
ATOM     22  C   UNL     1      48.835   5.669  18.374  0.00  0.00    +0.000 A 
ATOM     23  C   UNL     1      48.275   4.413  18.597  0.00  0.00    +0.000 A 
ATOM     24  C   UNL     1      47.575   3.775  17.581  0.00  0.00    +0.000 A 
ATOM     25  F   UNL     1      47.019   2.571  17.782  0.00  0.00    +0.000 F 
ATOM     26  C   UNL     1      47.528   4.334  16.308  0.00  0.00    +0.000 A 
BRANCH  23  27
ATOM     27  O   UNL     1      48.459   3.774  19.788  0.00  0.00    +0.000 OA
ATOM     28  H   UNL     1      47.702   3.181  19.933  0.00  0.00    +0.000 HD
ENDBRANCH  23  27
ENDBRANCH  19  20
ENDBRANCH   9  19
TORSDOF 5
ENDMDL
MODEL 6
REMARK VINA RESULT:    -6.348      3.505      7.232
REMARK INTER + INTRA:          -8.367
REMARK INTER:                  -7.397
REMARK INTRA:                  -0.970
REMARK UNBOUND:                -0.349
REMARK  Name = 
REMARK  8 active torsions:
REMARK  status: ('A' for Active; 'I' for Inactive)
REMARK    1  A    between atoms: C_1  and  C_2
REMARK    2  A    between atoms: C_2  and  C_3
REMARK    3  A    between atoms: C_2  and  C_4
REMARK    4  A    between atoms: C_2  and  C_5
REMARK    5  A    between atoms: C_8  and  C_9
REMARK    6  A    between atoms: N_16  and  C_17
REMARK    7  A    between atoms: C_17  and  C_18
REMARK    8  A    between atoms: C_21  and  O_22
REMARK                            x       y       z     vdW  Elec       q    Type
REMARK                         _______ _______ _______ _____ _____    ______ ____
ROOT
ATOM      1  C   UNL     1      47.877   4.588  16.296  0.00  0.00    +0.000 A 
ATOM      2  N   UNL     1      46.900   4.196  15.500  0.00  0.00    +0.000 NA
ATOM      3  C   UNL     1      46.905   5.025  14.410  0.00  0.00    +0.000 A 
ATOM      4  C   UNL     1      46.087   5.008  13.273  0.00  0.00    +0.000 A 
ATOM      5  C   UNL     1      46.330   6.008  12.348  0.00  0.00    +0.000 A 
ATOM      6  N   UNL     1      47.277   6.972  12.482  0.00  0.00    +0.000 NA
ATOM      7  C   UNL     1      48.078   6.973  13.576  0.00  0.00    +0.000 A 
ATOM      8  C   UNL     1      47.896   5.986  14.536  0.00  0.00    +0.000 A 
ATOM      9  N   UNL     1      48.543   5.675  15.720  0.00  0.00    +0.000 N 
ENDROOT
BRANCH   4  10
ATOM     10  C   UNL     1      45.066   3.982  13.050  0.00  0.00    +0.000 C 
ATOM     11  N   UNL     1      45.467   2.777  12.529  0.00  0.00    +0.000 N 
ATOM     12  O   UNL     1      43.889   4.191  13.312  0.00  0.00    +0.000 OA
ATOM     13  H   UNL     1      46.453   2.604  12.311  0.00  0.00    +0.000 HD
ATOM     14  H   UNL     1      44.787   2.060  12.349  0.00  0.00    +0.000 HD
ENDBRANCH   4  10
BRANCH   1  16
ATOM     15  C   UNL     1      49.582   3.052  17.222  0.00  0.00    +0.000 C 
ATOM     16  C   UNL     1      48.255   3.769  17.531  0.00  0.00    +0.000 C 
ATOM     17  C   UNL     1      47.205   2.645  17.777  0.00  0.00    +0.000 C 
ATOM     18  C   UNL     1      48.258   4.569  18.848  0.00  0.00    +0.000 C 
ENDBRANCH   1  16
BRANCH   9  19
ATOM     19  C   UNL     1      49.614   6.493  16.279  0.00  0.00    +0.000 C 
BRANCH  19  20
ATOM     20  C   UNL     1      49.257   7.819  16.917  0.00  0.00    +0.000 A 
ATOM     21  C   UNL     1      48.245   7.953  17.878  0.00  0.00    +0.000 A 
ATOM     22  C   UNL     1      47.665   9.202  18.130  0.00  0.00    +0.000 A 
ATOM     23  C   UNL     1      48.107  10.327  17.436  0.00  0.00    +0.000 A 
ATOM     24  C   UNL     1      49.189  10.228  16.572  0.00  0.00    +0.000 A 
ATOM     25  F   UNL     1      49.636  11.303  15.906  0.00  0.00    +0.000 F 
ATOM     26  C   UNL     1      49.762   8.987  16.309  0.00  0.00    +0.000 A 
BRANCH  23  27
ATOM     27  O   UNL     1      47.448  11.515  17.551  0.00  0.00    +0.000 OA
ATOM     28  H   UNL     1      47.973  12.098  18.126  0.00  0.00    +0.000 HD
ENDBRANCH  23  27
ENDBRANCH  19  20
ENDBRANCH   9  19
TORSDOF 5
ENDMDL
MODEL 7
REMARK VINA RESULT:    -6.299      3.025      5.654
REMARK INTER + INTRA:          -8.306
REMARK INTER:                  -7.539
REMARK INTRA:                  -0.767
REMARK UNBOUND:                -0.349
REMARK  Name = 
REMARK  8 active torsions:
REMARK  status: ('A' for Active; 'I' for Inactive)
REMARK    1  A    between atoms: C_1  and  C_2
REMARK    2  A    between atoms: C_2  and  C_3
REMARK    3  A    between atoms: C_2  and  C_4
REMARK    4  A    between atoms: C_2  and  C_5
REMARK    5  A    between atoms: C_8  and  C_9
REMARK    6  A    between atoms: N_16  and  C_17
REMARK    7  A    between atoms: C_17  and  C_18
REMARK    8  A    between atoms: C_21  and  O_22
REMARK                            x       y       z     vdW  Elec       q    Type
REMARK                         _______ _______ _______ _____ _____    ______ ____
ROOT
ATOM      1  C   UNL     1      46.365   5.311  13.349  0.00  0.00    +0.000 A 
ATOM      2  N   UNL     1      46.737   4.429  14.257  0.00  0.00    +0.000 NA
ATOM      3  C   UNL     1      47.595   5.065  15.115  0.00  0.00    +0.000 A 
ATOM      4  C   UNL     1      48.240   4.575  16.257  0.00  0.00    +0.000 A 
ATOM      5  C   UNL     1      49.071   5.471  16.904  0.00  0.00    +0.000 A 
ATOM      6  N   UNL     1      49.293   6.749  16.503  0.00  0.00    +0.000 NA
ATOM      7  C   UNL     1      48.651   7.225  15.406  0.00  0.00    +0.000 A 
ATOM      8  C   UNL     1      47.790   6.379  14.720  0.00  0.00    +0.000 A 
ATOM      9  N   UNL     1      46.968   6.544  13.618  0.00  0.00    +0.000 N 
ENDROOT
BRANCH   4  10
ATOM     10  C   UNL     1      48.026   3.217  16.764  0.00  0.00    +0.000 C 
ATOM     11  N   UNL     1      46.875   2.967  17.469  0.00  0.00    +0.000 N 
ATOM     12  O   UNL     1      48.848   2.331  16.573  0.00  0.00    +0.000 OA
ATOM     13  H   UNL     1      46.187   3.710  17.627  0.00  0.00    +0.000 HD
ATOM     14  H   UNL     1      46.708   2.051  17.844  0.00  0.00    +0.000 HD
ENDBRANCH   4  10
BRANCH   1  16
ATOM     15  C   UNL     1      43.940   5.497  12.889  0.00  0.00    +0.000 C 
ATOM     16  C   UNL     1      45.276   4.971  12.330  0.00  0.00    +0.000 C 
ATOM     17  C   UNL     1      45.112   3.427  12.207  0.00  0.00    +0.000 C 
ATOM     18  C   UNL     1      45.585   5.428  10.891  0.00  0.00    +0.000 C 
ENDBRANCH   1  16
BRANCH   9  19
ATOM     19  C   UNL     1      46.928   7.773  12.833  0.00  0.00    +0.000 C 
BRANCH  19  20
ATOM     20  C   UNL     1      48.147   8.157  12.022  0.00  0.00    +0.000 A 
ATOM     21  C   UNL     1      49.167   7.249  11.705  0.00  0.00    +0.000 A 
ATOM     22  C   UNL     1      50.438   7.707  11.338  0.00  0.00    +0.000 A 
ATOM     23  C   UNL     1      50.690   9.075  11.265  0.00  0.00    +0.000 A 
ATOM     24  C   UNL     1      49.657   9.982  11.457  0.00  0.00    +0.000 A 
ATOM     25  F   UNL     1      49.878  11.303  11.379  0.00  0.00    +0.000 F 
ATOM     26  C   UNL     1      48.394   9.533  11.835  0.00  0.00    +0.000 A 
BRANCH  23  27
ATOM     27  O   UNL     1      51.958   9.537  11.067  0.00  0.00    +0.000 OA
ATOM     28  H   UNL     1      51.899  10.409  10.640  0.00  0.00    +0.000 HD
ENDBRANCH  23  27
ENDBRANCH  19  20
ENDBRANCH   9  19
TORSDOF 5
ENDMDL
MODEL 8
REMARK VINA RESULT:    -6.154      3.596      7.701
REMARK INTER + INTRA:          -8.122
REMARK INTER:                  -6.991
REMARK INTRA:                  -1.131
REMARK UNBOUND:                -0.349
REMARK  Name = 
REMARK  8 active torsions:
REMARK  status: ('A' for Active; 'I' for Inactive)
REMARK    1  A    between atoms: C_1  and  C_2
REMARK    2  A    between atoms: C_2  and  C_3
REMARK    3  A    between atoms: C_2  and  C_4
REMARK    4  A    between atoms: C_2  and  C_5
REMARK    5  A    between atoms: C_8  and  C_9
REMARK    6  A    between atoms: N_16  and  C_17
REMARK    7  A    between atoms: C_17  and  C_18
REMARK    8  A    between atoms: C_21  and  O_22
REMARK                            x       y       z     vdW  Elec       q    Type
REMARK                         _______ _______ _______ _____ _____    ______ ____
ROOT
ATOM      1  C   UNL     1      47.882   4.579  16.343  0.00  0.00    +0.000 A 
ATOM      2  N   UNL     1      46.993   4.192  15.448  0.00  0.00    +0.000 NA
ATOM      3  C   UNL     1      46.997   5.121  14.440  0.00  0.00    +0.000 A 
ATOM      4  C   UNL     1      46.256   5.151  13.253  0.00  0.00    +0.000 A 
ATOM      5  C   UNL     1      46.474   6.250  12.442  0.00  0.00    +0.000 A 
ATOM      6  N   UNL     1      47.329   7.265  12.728  0.00  0.00    +0.000 NA
ATOM      7  C   UNL     1      48.058   7.222  13.872  0.00  0.00    +0.000 A 
ATOM      8  C   UNL     1      47.897   6.137  14.722  0.00  0.00    +0.000 A 
ATOM      9  N   UNL     1      48.492   5.763  15.916  0.00  0.00    +0.000 N 
ENDROOT
BRANCH   4  10
ATOM     10  C   UNL     1      45.338   4.077  12.866  0.00  0.00    +0.000 C 
ATOM     11  N   UNL     1      45.823   2.793  12.843  0.00  0.00    +0.000 N 
ATOM     12  O   UNL     1      44.175   4.313  12.566  0.00  0.00    +0.000 OA
ATOM     13  H   UNL     1      46.796   2.597  13.096  0.00  0.00    +0.000 HD
ATOM     14  H   UNL     1      45.222   2.038  12.565  0.00  0.00    +0.000 HD
ENDBRANCH   4  10
BRANCH   1  16
ATOM     15  C   UNL     1      49.459   2.826  17.095  0.00  0.00    +0.000 C 
ATOM     16  C   UNL     1      48.247   3.676  17.522  0.00  0.00    +0.000 C 
ATOM     17  C   UNL     1      47.095   2.668  17.809  0.00  0.00    +0.000 C 
ATOM     18  C   UNL     1      48.433   4.419  18.859  0.00  0.00    +0.000 C 
ENDBRANCH   1  16
BRANCH   9  19
ATOM     19  C   UNL     1      49.455   6.602  16.620  0.00  0.00    +0.000 C 
BRANCH  19  20
ATOM     20  C   UNL     1      50.931   6.409  16.335  0.00  0.00    +0.000 A 
ATOM     21  C   UNL     1      51.744   5.548  17.086  0.00  0.00    +0.000 A 
ATOM     22  C   UNL     1      53.135   5.702  17.082  0.00  0.00    +0.000 A 
ATOM     23  C   UNL     1      53.722   6.704  16.312  0.00  0.00    +0.000 A 
ATOM     24  C   UNL     1      52.938   7.482  15.472  0.00  0.00    +0.000 A 
ATOM     25  F   UNL     1      53.487   8.443  14.714  0.00  0.00    +0.000 F 
ATOM     26  C   UNL     1      51.553   7.343  15.481  0.00  0.00    +0.000 A 
BRANCH  23  27
ATOM     27  O   UNL     1      55.056   6.970  16.420  0.00  0.00    +0.000 OA
ATOM     28  H   UNL     1      55.495   6.643  15.617  0.00  0.00    +0.000 HD
ENDBRANCH  23  27
ENDBRANCH  19  20
ENDBRANCH   9  19
TORSDOF 5
ENDMDL
MODEL 9
REMARK VINA RESULT:    -6.055      2.229      2.873
REMARK INTER + INTRA:          -7.997
REMARK INTER:                  -7.094
REMARK INTRA:                  -0.903
REMARK UNBOUND:                -0.349
REMARK  Name = 
REMARK  8 active torsions:
REMARK  status: ('A' for Active; 'I' for Inactive)
REMARK    1  A    between atoms: C_1  and  C_2
REMARK    2  A    between atoms: C_2  and  C_3
REMARK    3  A    between atoms: C_2  and  C_4
REMARK    4  A    between atoms: C_2  and  C_5
REMARK    5  A    between atoms: C_8  and  C_9
REMARK    6  A    between atoms: N_16  and  C_17
REMARK    7  A    between atoms: C_17  and  C_18
REMARK    8  A    between atoms: C_21  and  O_22
REMARK                            x       y       z     vdW  Elec       q    Type
REMARK                         _______ _______ _______ _____ _____    ______ ____
ROOT
ATOM      1  C   UNL     1      48.718   7.249  15.398  0.00  0.00    +0.000 A 
ATOM      2  N   UNL     1      48.778   7.003  16.693  0.00  0.00    +0.000 NA
ATOM      3  C   UNL     1      48.324   5.725  16.887  0.00  0.00    +0.000 A 
ATOM      4  C   UNL     1      48.217   4.987  18.072  0.00  0.00    +0.000 A 
ATOM      5  C   UNL     1      47.692   3.714  17.937  0.00  0.00    +0.000 A 
ATOM      6  N   UNL     1      47.283   3.167  16.763  0.00  0.00    +0.000 NA
ATOM      7  C   UNL     1      47.406   3.880  15.616  0.00  0.00    +0.000 A 
ATOM      8  C   UNL     1      47.941   5.159  15.681  0.00  0.00    +0.000 A 
ATOM      9  N   UNL     1      48.236   6.120  14.728  0.00  0.00    +0.000 N 
ENDROOT
BRANCH   4  10
ATOM     10  C   UNL     1      48.665   5.503  19.368  0.00  0.00    +0.000 C 
ATOM     11  N   UNL     1      48.515   6.846  19.612  0.00  0.00    +0.000 N 
ATOM     12  O   UNL     1      49.163   4.765  20.207  0.00  0.00    +0.000 OA
ATOM     13  H   UNL     1      48.097   7.461  18.908  0.00  0.00    +0.000 HD
ATOM     14  H   UNL     1      48.828   7.232  20.484  0.00  0.00    +0.000 HD
ENDBRANCH   4  10
BRANCH   1  16
ATOM     15  C   UNL     1      50.587   8.153  14.051  0.00  0.00    +0.000 C 
ATOM     16  C   UNL     1      49.308   8.536  14.819  0.00  0.00    +0.000 C 
ATOM     17  C   UNL     1      49.764   9.486  15.966  0.00  0.00    +0.000 C 
ATOM     18  C   UNL     1      48.311   9.385  14.008  0.00  0.00    +0.000 C 
ENDBRANCH   1  16
BRANCH   9  19
ATOM     19  C   UNL     1      47.912   5.963  13.315  0.00  0.00    +0.000 C 
BRANCH  19  20
ATOM     20  C   UNL     1      46.455   5.945  12.901  0.00  0.00    +0.000 A 
ATOM     21  C   UNL     1      45.737   4.758  12.696  0.00  0.00    +0.000 A 
ATOM     22  C   UNL     1      44.565   4.760  11.930  0.00  0.00    +0.000 A 
ATOM     23  C   UNL     1      44.094   5.952  11.383  0.00  0.00    +0.000 A 
ATOM     24  C   UNL     1      44.729   7.150  11.680  0.00  0.00    +0.000 A 
ATOM     25  F   UNL     1      44.281   8.308  11.171  0.00  0.00    +0.000 F 
ATOM     26  C   UNL     1      45.901   7.153  12.430  0.00  0.00    +0.000 A 
BRANCH  23  27
ATOM     27  O   UNL     1      43.050   5.946  10.506  0.00  0.00    +0.000 OA
ATOM     28  H   UNL     1      43.349   6.356   9.676  0.00  0.00    +0.000 HD
ENDBRANCH  23  27
ENDBRANCH  19  20
ENDBRANCH   9  19
TORSDOF 5
ENDMDL
