MODEL 1
REMARK VINA RESULT:    -9.755      0.000      0.000
REMARK INTER + INTRA:         -12.832
REMARK INTER:                 -12.036
REMARK INTRA:                  -0.796
REMARK UNBOUND:                -0.796
REMARK  Name = 
REMARK  4 active torsions:
REMARK  status: ('A' for Active; 'I' for Inactive)
REMARK    1  A    between atoms: C_2  and  C_4
REMARK    2  A    between atoms: N_8  and  C_9
REMARK    3  A    between atoms: C_9  and  C_10
REMARK    4  A    between atoms: C_14  and  C_15
REMARK                            x       y       z     vdW  Elec       q    Type
REMARK                         _______ _______ _______ _____ _____    ______ ____
ROOT
ATOM      1  C   UNL     1      43.944   4.879  11.462  0.00  0.00    +0.000 C 
ATOM      2  C   UNL     1      42.693   5.032  12.311  0.00  0.00    +0.000 C 
ATOM      3  C   UNL     1      42.995   6.046  11.260  0.00  0.00    +0.000 C 
ENDROOT
BRANCH   1   8
ATOM      4  C   UNL     1      46.503   2.730   7.470  0.00  0.00    +0.000 A 
ATOM      5  C   UNL     1      46.144   4.064   7.647  0.00  0.00    +0.000 A 
ATOM      6  C   UNL     1      45.324   4.416   8.720  0.00  0.00    +0.000 A 
ATOM      7  C   UNL     1      44.870   3.430   9.586  0.00  0.00    +0.000 A 
ATOM      8  N   UNL     1      43.939   3.678  10.601  0.00  0.00    +0.000 N 
ATOM      9  N   UNL     1      45.211   2.132   9.426  0.00  0.00    +0.000 NA
ATOM     10  C   UNL     1      46.014   1.807   8.378  0.00  0.00    +0.000 A 
ATOM     11  H   UNL     1      43.867   2.791  11.099  0.00  0.00    +0.000 HD
BRANCH   4  13
ATOM     12  N   UNL     1      47.177   2.911   5.142  0.00  0.00    +0.000 N 
ATOM     13  C   UNL     1      47.337   2.267   6.337  0.00  0.00    +0.000 C 
ATOM     14  O   UNL     1      48.157   1.371   6.471  0.00  0.00    +0.000 OA
ATOM     15  H   UNL     1      47.808   2.644   4.397  0.00  0.00    +0.000 HD
ATOM     16  H   UNL     1      46.708   3.795   5.056  0.00  0.00    +0.000 HD
ENDBRANCH   4  13
ENDBRANCH   1   8
BRANCH   1  17
ATOM     17  C   UNL     1      45.310   5.144  12.086  0.00  0.00    +0.000 A 
ATOM     18  C   UNL     1      46.098   6.231  11.676  0.00  0.00    +0.000 A 
ATOM     19  C   UNL     1      47.237   6.610  12.387  0.00  0.00    +0.000 A 
ATOM     20  C   UNL     1      47.614   5.900  13.527  0.00  0.00    +0.000 A 
ATOM     21  C   UNL     1      46.887   4.779  13.960  0.00  0.00    +0.000 A 
ATOM     22  C   UNL     1      45.759   4.407  13.198  0.00  0.00    +0.000 A 
BRANCH  21  23
ATOM     23  C   UNL     1      47.218   4.068  15.210  0.00  0.00    +0.000 A 
ATOM     24  N   UNL     1      47.921   2.920  15.115  0.00  0.00    +0.000 NA
ATOM     25  C   UNL     1      48.317   2.359  16.271  0.00  0.00    +0.000 A 
ATOM     26  C   UNL     1      48.037   2.890  17.507  0.00  0.00    +0.000 A 
ATOM     27  C   UNL     1      47.303   4.050  17.502  0.00  0.00    +0.000 A 
ATOM     28  N   UNL     1      46.889   4.657  16.379  0.00  0.00    +0.000 NA
ENDBRANCH  21  23
ENDBRANCH   1  17
TORSDOF 4
ENDMDL
MODEL 2
REMARK VINA RESULT:    -8.874      2.088      3.458
REMARK INTER + INTRA:         -11.745
REMARK INTER:                 -10.689
REMARK INTRA:                  -1.056
REMARK UNBOUND:                -0.796
REMARK  Name = 
REMARK  4 active torsions:
REMARK  status: ('A' for Active; 'I' for Inactive)
REMARK    1  A    between atoms: C_2  and  C_4
REMARK    2  A    between atoms: N_8  and  C_9
REMARK    3  A    between atoms: C_9  and  C_10
REMARK    4  A    between atoms: C_14  and  C_15
REMARK                            x       y       z     vdW  Elec       q    Type
REMARK                         _______ _______ _______ _____ _____    ______ ____
ROOT
ATOM      1  C   UNL     1      43.704   5.120  11.337  0.00  0.00    +0.000 C 
ATOM      2  C   UNL     1      42.361   5.511  11.931  0.00  0.00    +0.000 C 
ATOM      3  C   UNL     1      43.028   6.426  10.961  0.00  0.00    +0.000 C 
ENDROOT
BRANCH   1   8
ATOM      4  C   UNL     1      46.486   2.542   7.771  0.00  0.00    +0.000 A 
ATOM      5  C   UNL     1      46.299   3.917   7.891  0.00  0.00    +0.000 A 
ATOM      6  C   UNL     1      45.389   4.406   8.830  0.00  0.00    +0.000 A 
ATOM      7  C   UNL     1      44.678   3.513   9.621  0.00  0.00    +0.000 A 
ATOM      8  N   UNL     1      43.654   3.912  10.487  0.00  0.00    +0.000 N 
ATOM      9  N   UNL     1      44.850   2.177   9.516  0.00  0.00    +0.000 NA
ATOM     10  C   UNL     1      45.743   1.718   8.599  0.00  0.00    +0.000 A 
ATOM     11  H   UNL     1      43.385   3.056  10.970  0.00  0.00    +0.000 HD
BRANCH   4  13
ATOM     12  N   UNL     1      48.415   2.729   6.304  0.00  0.00    +0.000 N 
ATOM     13  C   UNL     1      47.402   1.941   6.774  0.00  0.00    +0.000 C 
ATOM     14  O   UNL     1      47.280   0.780   6.412  0.00  0.00    +0.000 OA
ATOM     15  H   UNL     1      49.083   2.285   5.687  0.00  0.00    +0.000 HD
ATOM     16  H   UNL     1      48.694   3.583   6.751  0.00  0.00    +0.000 HD
ENDBRANCH   4  13
ENDBRANCH   1   8
BRANCH   1  17
ATOM     17  C   UNL     1      44.951   5.166  12.213  0.00  0.00    +0.000 A 
ATOM     18  C   UNL     1      45.343   4.057  12.980  0.00  0.00    +0.000 A 
ATOM     19  C   UNL     1      46.589   4.011  13.604  0.00  0.00    +0.000 A 
ATOM     20  C   UNL     1      47.472   5.083  13.476  0.00  0.00    +0.000 A 
ATOM     21  C   UNL     1      47.118   6.236  12.756  0.00  0.00    +0.000 A 
ATOM     22  C   UNL     1      45.837   6.259  12.165  0.00  0.00    +0.000 A 
BRANCH  21  23
ATOM     23  C   UNL     1      48.068   7.343  12.538  0.00  0.00    +0.000 A 
ATOM     24  N   UNL     1      49.380   7.098  12.743  0.00  0.00    +0.000 NA
ATOM     25  C   UNL     1      50.234   8.084  12.417  0.00  0.00    +0.000 A 
ATOM     26  C   UNL     1      49.836   9.295  11.906  0.00  0.00    +0.000 A 
ATOM     27  C   UNL     1      48.481   9.457  11.750  0.00  0.00    +0.000 A 
ATOM     28  N   UNL     1      47.584   8.505  12.051  0.00  0.00    +0.000 NA
ENDBRANCH  21  23
ENDBRANCH   1  17
TORSDOF 4
ENDMDL
MODEL 3
REMARK VINA RESULT:    -6.783      3.878      8.365
REMARK INTER + INTRA:          -9.165
REMARK INTER:                  -8.263
REMARK INTRA:                  -0.902
REMARK UNBOUND:                -0.796
REMARK  Name = 
REMARK  4 active torsions:
REMARK  status: ('A' for Active; 'I' for Inactive)
REMARK    1  A    between atoms: C_2  and  C_4
REMARK    2  A    between atoms: N_8  and  C_9
REMARK    3  A    between atoms: C_9  and  C_10
REMARK    4  A    between atoms: C_14  and  C_15
REMARK                            x       y       z     vdW  Elec       q    Type
REMARK                         _______ _______ _______ _____ _____    ______ ____
ROOT
ATOM      1  C   UNL     1      48.906   7.896  12.562  0.00  0.00    +0.000 C 
ATOM      2  C   UNL     1      49.859   8.111  11.397  0.00  0.00    +0.000 C 
ATOM      3  C   UNL     1      49.496   9.264  12.269  0.00  0.00    +0.000 C 
ENDROOT
BRANCH   1   8
ATOM      4  C   UNL     1      48.556   6.963  17.671  0.00  0.00    +0.000 A 
ATOM      5  C   UNL     1      48.619   8.193  17.022  0.00  0.00    +0.000 A 
ATOM      6  C   UNL     1      48.864   8.230  15.648  0.00  0.00    +0.000 A 
ATOM      7  C   UNL     1      49.052   7.042  14.954  0.00  0.00    +0.000 A 
ATOM      8  N   UNL     1      49.435   6.998  13.609  0.00  0.00    +0.000 N 
ATOM      9  N   UNL     1      48.993   5.842  15.573  0.00  0.00    +0.000 NA
ATOM     10  C   UNL     1      48.750   5.823  16.910  0.00  0.00    +0.000 A 
ATOM     11  H   UNL     1      49.418   6.006  13.375  0.00  0.00    +0.000 HD
BRANCH   4  13
ATOM     12  N   UNL     1      47.271   6.089  19.540  0.00  0.00    +0.000 N 
ATOM     13  C   UNL     1      48.339   6.837  19.131  0.00  0.00    +0.000 C 
ATOM     14  O   UNL     1      49.100   7.352  19.937  0.00  0.00    +0.000 OA
ATOM     15  H   UNL     1      47.179   5.940  20.538  0.00  0.00    +0.000 HD
ATOM     16  H   UNL     1      46.782   5.458  18.932  0.00  0.00    +0.000 HD
ENDBRANCH   4  13
ENDBRANCH   1   8
BRANCH   1  17
ATOM     17  C   UNL     1      47.425   7.662  12.285  0.00  0.00    +0.000 A 
ATOM     18  C   UNL     1      46.472   8.663  12.531  0.00  0.00    +0.000 A 
ATOM     19  C   UNL     1      45.159   8.541  12.077  0.00  0.00    +0.000 A 
ATOM     20  C   UNL     1      44.770   7.405  11.368  0.00  0.00    +0.000 A 
ATOM     21  C   UNL     1      45.670   6.353  11.128  0.00  0.00    +0.000 A 
ATOM     22  C   UNL     1      46.981   6.498  11.629  0.00  0.00    +0.000 A 
BRANCH  21  23
ATOM     23  C   UNL     1      45.303   5.184  10.307  0.00  0.00    +0.000 A 
ATOM     24  N   UNL     1      45.699   5.170   9.016  0.00  0.00    +0.000 NA
ATOM     25  C   UNL     1      45.461   4.041   8.327  0.00  0.00    +0.000 A 
ATOM     26  C   UNL     1      44.844   2.938   8.864  0.00  0.00    +0.000 A 
ATOM     27  C   UNL     1      44.463   3.054  10.178  0.00  0.00    +0.000 A 
ATOM     28  N   UNL     1      44.682   4.153  10.917  0.00  0.00    +0.000 NA
ENDBRANCH  21  23
ENDBRANCH   1  17
TORSDOF 4
ENDMDL
MODEL 4
REMARK VINA RESULT:    -6.781      2.996      7.620
REMARK INTER + INTRA:          -9.163
REMARK INTER:                  -9.185
REMARK INTRA:                   0.022
REMARK UNBOUND:                -0.796
REMARK  Name = 
REMARK  4 active torsions:
REMARK  status: ('A' for Active; 'I' for Inactive)
REMARK    1  A    between atoms: C_2  and  C_4
REMARK    2  A    between atoms: N_8  and  C_9
REMARK    3  A    between atoms: C_9  and  C_10
REMARK    4  A    between atoms: C_14  and  C_15
REMARK                            x       y       z     vdW  Elec       q    Type
REMARK                         _______ _______ _______ _____ _____    ______ ____
ROOT
ATOM      1  C   UNL     1      48.504   7.740  12.774  0.00  0.00    +0.000 C 
ATOM      2  C   UNL     1      49.655   7.137  11.985  0.00  0.00    +0.000 C 
ATOM      3  C   UNL     1      49.406   8.605  11.914  0.00  0.00    +0.000 C 
ENDROOT
BRANCH   1   8
ATOM      4  C   UNL     1      48.015   4.299  16.650  0.00  0.00    +0.000 A 
ATOM      5  C   UNL     1      47.174   4.493  15.558  0.00  0.00    +0.000 A 
ATOM      6  C   UNL     1      47.398   5.574  14.704  0.00  0.00    +0.000 A 
ATOM      7  C   UNL     1      48.448   6.445  14.964  0.00  0.00    +0.000 A 
ATOM      8  N   UNL     1      48.657   7.624  14.240  0.00  0.00    +0.000 N 
ATOM      9  N   UNL     1      49.272   6.268  16.021  0.00  0.00    +0.000 NA
ATOM     10  C   UNL     1      49.042   5.208  16.840  0.00  0.00    +0.000 A 
ATOM     11  H   UNL     1      49.529   7.997  14.612  0.00  0.00    +0.000 HD
BRANCH   4  13
ATOM     12  N   UNL     1      48.842   2.965  18.505  0.00  0.00    +0.000 N 
ATOM     13  C   UNL     1      47.823   3.201  17.626  0.00  0.00    +0.000 C 
ATOM     14  O   UNL     1      46.787   2.556  17.666  0.00  0.00    +0.000 OA
ATOM     15  H   UNL     1      48.669   2.269  19.220  0.00  0.00    +0.000 HD
ATOM     16  H   UNL     1      49.587   3.618  18.667  0.00  0.00    +0.000 HD
ENDBRANCH   4  13
ENDBRANCH   1   8
BRANCH   1  17
ATOM     17  C   UNL     1      47.071   7.491  12.316  0.00  0.00    +0.000 A 
ATOM     18  C   UNL     1      46.080   8.475  12.461  0.00  0.00    +0.000 A 
ATOM     19  C   UNL     1      44.833   8.345  11.850  0.00  0.00    +0.000 A 
ATOM     20  C   UNL     1      44.550   7.216  11.080  0.00  0.00    +0.000 A 
ATOM     21  C   UNL     1      45.488   6.181  10.933  0.00  0.00    +0.000 A 
ATOM     22  C   UNL     1      46.726   6.334  11.592  0.00  0.00    +0.000 A 
BRANCH  21  23
ATOM     23  C   UNL     1      45.241   5.022  10.055  0.00  0.00    +0.000 A 
ATOM     24  N   UNL     1      45.782   5.042   8.818  0.00  0.00    +0.000 NA
ATOM     25  C   UNL     1      45.647   3.923   8.085  0.00  0.00    +0.000 A 
ATOM     26  C   UNL     1      44.995   2.798   8.528  0.00  0.00    +0.000 A 
ATOM     27  C   UNL     1      44.464   2.881   9.792  0.00  0.00    +0.000 A 
ATOM     28  N   UNL     1      44.575   3.968  10.571  0.00  0.00    +0.000 NA
ENDBRANCH  21  23
ENDBRANCH   1  17
TORSDOF 4
ENDMDL
