MODEL 1
REMARK VINA RESULT:    -8.514      0.000      0.000
REMARK INTER + INTRA:         -12.353
REMARK INTER:                 -11.500
REMARK INTRA:                  -0.853
REMARK UNBOUND:                -0.853
REMARK  Name = 
REMARK  7 active torsions:
REMARK  status: ('A' for Active; 'I' for Inactive)
REMARK    1  A    between atoms: C_1  and  C_2
REMARK    2  A    between atoms: C_2  and  N_3
REMARK    3  A    between atoms: C_2  and  C_21
REMARK    4  A    between atoms: C_4  and  C_6
REMARK    5  A    between atoms: C_9  and  C_10
REMARK    6  A    between atoms: C_10  and  N_11
REMARK    7  A    between atoms: C_12  and  C_14
REMARK                            x       y       z     vdW  Elec       q    Type
REMARK                         _______ _______ _______ _____ _____    ______ ____
ROOT
ATOM      1  N   UNL     1      47.179   5.019  16.100  0.00  0.00    +0.000 N 
ATOM      2  C   UNL     1      47.258   4.024  15.146  0.00  0.00    +0.000 C 
ATOM      3  O   UNL     1      47.862   2.968  15.317  0.00  0.00    +0.000 OA
ATOM      4  H   UNL     1      46.597   5.820  15.877  0.00  0.00    +0.000 HD
ENDROOT
BRANCH   2   5
ATOM      5  C   UNL     1      46.538   4.289  13.852  0.00  0.00    +0.000 A 
ATOM      6  C   UNL     1      46.597   5.561  13.288  0.00  0.00    +0.000 A 
ATOM      7  C   UNL     1      45.964   5.784  12.065  0.00  0.00    +0.000 A 
ATOM      8  C   UNL     1      45.280   4.739  11.438  0.00  0.00    +0.000 A 
ATOM      9  C   UNL     1      45.271   3.505  12.088  0.00  0.00    +0.000 A 
ATOM     10  N   UNL     1      45.880   3.247  13.277  0.00  0.00    +0.000 NA
BRANCH   8  11
ATOM     11  C   UNL     1      44.575   4.935  10.122  0.00  0.00    +0.000 C 
BRANCH  11  12
ATOM     12  N   UNL     1      45.373   4.545   8.987  0.00  0.00    +0.000 N 
ATOM     13  C   UNL     1      45.326   3.263   8.476  0.00  0.00    +0.000 C 
ATOM     14  O   UNL     1      44.618   2.380   8.947  0.00  0.00    +0.000 OA
ATOM     15  H   UNL     1      45.934   5.211   8.463  0.00  0.00    +0.000 HD
BRANCH  13  16
ATOM     16  C   UNL     1      46.208   3.052   7.313  0.00  0.00    +0.000 A 
ATOM     17  C   UNL     1      46.983   1.896   7.021  0.00  0.00    +0.000 A 
ATOM     18  C   UNL     1      47.646   2.185   5.852  0.00  0.00    +0.000 A 
ATOM     19  N   UNL     1      47.263   3.447   5.511  0.00  0.00    +0.000 N 
ATOM     20  N   UNL     1      46.382   3.997   6.365  0.00  0.00    +0.000 NA
ATOM     21  H   UNL     1      47.561   3.993   4.709  0.00  0.00    +0.000 HD
ENDBRANCH  13  16
ENDBRANCH  11  12
ENDBRANCH   8  11
ENDBRANCH   2   5
BRANCH   1  23
ATOM     22  C   UNL     1      46.912   5.507  18.509  0.00  0.00    +0.000 C 
ATOM     23  C   UNL     1      47.780   4.871  17.418  0.00  0.00    +0.000 C 
BRANCH  23  24
ATOM     24  C   UNL     1      49.171   5.466  17.391  0.00  0.00    +0.000 A 
ATOM     25  C   UNL     1      49.445   6.822  17.276  0.00  0.00    +0.000 A 
ATOM     26  S   UNL     1      51.113   7.183  17.321  0.00  0.00    +0.000 S 
ATOM     27  C   UNL     1      51.527   5.543  17.503  0.00  0.00    +0.000 A 
ATOM     28  N   UNL     1      52.827   5.156  17.620  0.00  0.00    +0.000 NA
ATOM     29  C   UNL     1      52.990   3.883  17.768  0.00  0.00    +0.000 A 
ATOM     30  N   UNL     1      51.976   2.962  17.806  0.00  0.00    +0.000 N 
ATOM     31  C   UNL     1      50.646   3.304  17.689  0.00  0.00    +0.000 A 
ATOM     32  O   UNL     1      49.772   2.448  17.738  0.00  0.00    +0.000 OA
ATOM     33  C   UNL     1      50.410   4.729  17.524  0.00  0.00    +0.000 A 
ATOM     34  H   UNL     1      52.169   1.981  17.929  0.00  0.00    +0.000 HD
ENDBRANCH  23  24
ENDBRANCH   1  23
TORSDOF 6
ENDMDL
MODEL 2
REMARK VINA RESULT:    -8.065      1.646      2.166
REMARK INTER + INTRA:         -11.748
REMARK INTER:                 -10.944
REMARK INTRA:                  -0.803
REMARK UNBOUND:                -0.853
REMARK  Name = 
REMARK  7 active torsions:
REMARK  status: ('A' for Active; 'I' for Inactive)
REMARK    1  A    between atoms: C_1  and  C_2
REMARK    2  A    between atoms: C_2  and  N_3
REMARK    3  A    between atoms: C_2  and  C_21
REMARK    4  A    between atoms: C_4  and  C_6
REMARK    5  A    between atoms: C_9  and  C_10
REMARK    6  A    between atoms: C_10  and  N_11
REMARK    7  A    between atoms: C_12  and  C_14
REMARK                            x       y       z     vdW  Elec       q    Type
REMARK                         _______ _______ _______ _____ _____    ______ ____
ROOT
ATOM      1  N   UNL     1      47.829   5.470  16.215  0.00  0.00    +0.000 N 
ATOM      2  C   UNL     1      47.220   4.438  15.526  0.00  0.00    +0.000 C 
ATOM      3  O   UNL     1      47.138   3.292  15.959  0.00  0.00    +0.000 OA
ATOM      4  H   UNL     1      47.778   6.391  15.793  0.00  0.00    +0.000 HD
ENDROOT
BRANCH   2   5
ATOM      5  C   UNL     1      46.629   4.793  14.189  0.00  0.00    +0.000 A 
ATOM      6  C   UNL     1      47.159   5.863  13.473  0.00  0.00    +0.000 A 
ATOM      7  C   UNL     1      46.634   6.155  12.214  0.00  0.00    +0.000 A 
ATOM      8  C   UNL     1      45.588   5.381  11.702  0.00  0.00    +0.000 A 
ATOM      9  C   UNL     1      45.121   4.337  12.501  0.00  0.00    +0.000 A 
ATOM     10  N   UNL     1      45.610   4.018  13.730  0.00  0.00    +0.000 NA
BRANCH   8  11
ATOM     11  C   UNL     1      44.985   5.663  10.352  0.00  0.00    +0.000 C 
BRANCH  11  12
ATOM     12  N   UNL     1      45.680   5.011   9.272  0.00  0.00    +0.000 N 
ATOM     13  C   UNL     1      45.298   3.765   8.814  0.00  0.00    +0.000 C 
ATOM     14  O   UNL     1      44.360   3.135   9.289  0.00  0.00    +0.000 OA
ATOM     15  H   UNL     1      46.419   5.470   8.746  0.00  0.00    +0.000 HD
BRANCH  13  16
ATOM     16  C   UNL     1      46.124   3.260   7.701  0.00  0.00    +0.000 A 
ATOM     17  C   UNL     1      46.675   1.956   7.563  0.00  0.00    +0.000 A 
ATOM     18  C   UNL     1      47.377   1.978   6.382  0.00  0.00    +0.000 A 
ATOM     19  N   UNL     1      47.229   3.238   5.886  0.00  0.00    +0.000 N 
ATOM     20  N   UNL     1      46.464   4.037   6.651  0.00  0.00    +0.000 NA
ATOM     21  H   UNL     1      47.619   3.621   5.030  0.00  0.00    +0.000 HD
ENDBRANCH  13  16
ENDBRANCH  11  12
ENDBRANCH   8  11
ENDBRANCH   2   5
BRANCH   1  23
ATOM     22  C   UNL     1      47.924   6.372  18.514  0.00  0.00    +0.000 C 
ATOM     23  C   UNL     1      48.390   5.282  17.544  0.00  0.00    +0.000 C 
BRANCH  23  24
ATOM     24  C   UNL     1      49.900   5.236  17.435  0.00  0.00    +0.000 A 
ATOM     25  C   UNL     1      50.699   4.247  17.991  0.00  0.00    +0.000 A 
ATOM     26  S   UNL     1      52.360   4.449  17.656  0.00  0.00    +0.000 S 
ATOM     27  C   UNL     1      52.070   5.861  16.752  0.00  0.00    +0.000 A 
ATOM     28  N   UNL     1      53.092   6.538  16.159  0.00  0.00    +0.000 NA
ATOM     29  C   UNL     1      52.722   7.581  15.493  0.00  0.00    +0.000 A 
ATOM     30  N   UNL     1      51.426   8.010  15.367  0.00  0.00    +0.000 N 
ATOM     31  C   UNL     1      50.359   7.363  15.950  0.00  0.00    +0.000 A 
ATOM     32  O   UNL     1      49.217   7.777  15.802  0.00  0.00    +0.000 OA
ATOM     33  C   UNL     1      50.725   6.178  16.709  0.00  0.00    +0.000 A 
ATOM     34  H   UNL     1      51.201   8.832  14.827  0.00  0.00    +0.000 HD
ENDBRANCH  23  24
ENDBRANCH   1  23
TORSDOF 6
ENDMDL
MODEL 3
REMARK VINA RESULT:    -7.987      2.080      2.662
REMARK INTER + INTRA:         -11.642
REMARK INTER:                 -10.982
REMARK INTRA:                  -0.661
REMARK UNBOUND:                -0.853
REMARK  Name = 
REMARK  7 active torsions:
REMARK  status: ('A' for Active; 'I' for Inactive)
REMARK    1  A    between atoms: C_1  and  C_2
REMARK    2  A    between atoms: C_2  and  N_3
REMARK    3  A    between atoms: C_2  and  C_21
REMARK    4  A    between atoms: C_4  and  C_6
REMARK    5  A    between atoms: C_9  and  C_10
REMARK    6  A    between atoms: C_10  and  N_11
REMARK    7  A    between atoms: C_12  and  C_14
REMARK                            x       y       z     vdW  Elec       q    Type
REMARK                         _______ _______ _______ _____ _____    ______ ____
ROOT
ATOM      1  N   UNL     1      47.480   5.148  15.883  0.00  0.00    +0.000 N 
ATOM      2  C   UNL     1      47.373   4.052  15.049  0.00  0.00    +0.000 C 
ATOM      3  O   UNL     1      47.845   2.950  15.316  0.00  0.00    +0.000 OA
ATOM      4  H   UNL     1      46.993   5.990  15.593  0.00  0.00    +0.000 HD
ENDROOT
BRANCH   2   5
ATOM      5  C   UNL     1      46.616   4.267  13.767  0.00  0.00    +0.000 A 
ATOM      6  C   UNL     1      46.693   5.502  13.129  0.00  0.00    +0.000 A 
ATOM      7  C   UNL     1      46.025   5.675  11.917  0.00  0.00    +0.000 A 
ATOM      8  C   UNL     1      45.287   4.619  11.374  0.00  0.00    +0.000 A 
ATOM      9  C   UNL     1      45.264   3.424  12.095  0.00  0.00    +0.000 A 
ATOM     10  N   UNL     1      45.906   3.215  13.276  0.00  0.00    +0.000 NA
BRANCH   8  11
ATOM     11  C   UNL     1      44.543   4.762  10.074  0.00  0.00    +0.000 C 
BRANCH  11  12
ATOM     12  N   UNL     1      45.335   4.407   8.924  0.00  0.00    +0.000 N 
ATOM     13  C   UNL     1      45.470   3.094   8.517  0.00  0.00    +0.000 C 
ATOM     14  O   UNL     1      44.938   2.155   9.098  0.00  0.00    +0.000 OA
ATOM     15  H   UNL     1      45.754   5.105   8.316  0.00  0.00    +0.000 HD
BRANCH  13  16
ATOM     16  C   UNL     1      46.315   2.925   7.320  0.00  0.00    +0.000 A 
ATOM     17  C   UNL     1      47.051   1.767   6.944  0.00  0.00    +0.000 A 
ATOM     18  C   UNL     1      47.690   2.104   5.774  0.00  0.00    +0.000 A 
ATOM     19  N   UNL     1      47.332   3.391   5.513  0.00  0.00    +0.000 N 
ATOM     20  N   UNL     1      46.488   3.916   6.420  0.00  0.00    +0.000 NA
ATOM     21  H   UNL     1      47.622   3.973   4.733  0.00  0.00    +0.000 HD
ENDBRANCH  13  16
ENDBRANCH  11  12
ENDBRANCH   8  11
ENDBRANCH   2   5
BRANCH   1  23
ATOM     22  C   UNL     1      47.379   4.143  18.139  0.00  0.00    +0.000 C 
ATOM     23  C   UNL     1      48.135   5.068  17.180  0.00  0.00    +0.000 C 
BRANCH  23  24
ATOM     24  C   UNL     1      48.275   6.466  17.744  0.00  0.00    +0.000 A 
ATOM     25  C   UNL     1      47.682   6.902  18.920  0.00  0.00    +0.000 A 
ATOM     26  S   UNL     1      48.066   8.518  19.314  0.00  0.00    +0.000 S 
ATOM     27  C   UNL     1      49.043   8.689  17.932  0.00  0.00    +0.000 A 
ATOM     28  N   UNL     1      49.697   9.855  17.674  0.00  0.00    +0.000 NA
ATOM     29  C   UNL     1      50.413   9.835  16.599  0.00  0.00    +0.000 A 
ATOM     30  N   UNL     1      50.534   8.759  15.758  0.00  0.00    +0.000 N 
ATOM     31  C   UNL     1      49.891   7.560  15.974  0.00  0.00    +0.000 A 
ATOM     32  O   UNL     1      50.035   6.622  15.201  0.00  0.00    +0.000 OA
ATOM     33  C   UNL     1      49.073   7.531  17.176  0.00  0.00    +0.000 A 
ATOM     34  H   UNL     1      51.115   8.805  14.935  0.00  0.00    +0.000 HD
ENDBRANCH  23  24
ENDBRANCH   1  23
TORSDOF 6
ENDMDL
MODEL 4
REMARK VINA RESULT:    -7.772      2.812      3.513
REMARK INTER + INTRA:         -11.352
REMARK INTER:                 -10.589
REMARK INTRA:                  -0.763
REMARK UNBOUND:                -0.853
REMARK  Name = 
REMARK  7 active torsions:
REMARK  status: ('A' for Active; 'I' for Inactive)
REMARK    1  A    between atoms: C_1  and  C_2
REMARK    2  A    between atoms: C_2  and  N_3
REMARK    3  A    between atoms: C_2  and  C_21
REMARK    4  A    between atoms: C_4  and  C_6
REMARK    5  A    between atoms: C_9  and  C_10
REMARK    6  A    between atoms: C_10  and  N_11
REMARK    7  A    between atoms: C_12  and  C_14
REMARK                            x       y       z     vdW  Elec       q    Type
REMARK                         _______ _______ _______ _____ _____    ______ ____
ROOT
ATOM      1  N   UNL     1      47.445   8.018  14.235  0.00  0.00    +0.000 N 
ATOM      2  C   UNL     1      46.436   8.193  13.307  0.00  0.00    +0.000 C 
ATOM      3  O   UNL     1      46.038   9.295  12.941  0.00  0.00    +0.000 OA
ATOM      4  H   UNL     1      47.740   7.063  14.412  0.00  0.00    +0.000 HD
ENDROOT
BRANCH   2   5
ATOM      5  C   UNL     1      45.837   6.937  12.735  0.00  0.00    +0.000 A 
ATOM      6  C   UNL     1      46.205   5.704  13.267  0.00  0.00    +0.000 A 
ATOM      7  C   UNL     1      45.609   4.549  12.760  0.00  0.00    +0.000 A 
ATOM      8  C   UNL     1      44.669   4.648  11.729  0.00  0.00    +0.000 A 
ATOM      9  C   UNL     1      44.376   5.929  11.259  0.00  0.00    +0.000 A 
ATOM     10  N   UNL     1      44.931   7.077  11.731  0.00  0.00    +0.000 NA
BRANCH   8  11
ATOM     11  C   UNL     1      44.006   3.430  11.145  0.00  0.00    +0.000 C 
BRANCH  11  12
ATOM     12  N   UNL     1      44.864   2.689  10.256  0.00  0.00    +0.000 N 
ATOM     13  C   UNL     1      45.039   3.067   8.939  0.00  0.00    +0.000 C 
ATOM     14  O   UNL     1      44.484   4.039   8.442  0.00  0.00    +0.000 OA
ATOM     15  H   UNL     1      45.440   1.915  10.576  0.00  0.00    +0.000 HD
BRANCH  13  16
ATOM     16  C   UNL     1      45.955   2.191   8.185  0.00  0.00    +0.000 A 
ATOM     17  C   UNL     1      46.880   2.580   7.176  0.00  0.00    +0.000 A 
ATOM     18  C   UNL     1      47.482   1.415   6.763  0.00  0.00    +0.000 A 
ATOM     19  N   UNL     1      46.917   0.422   7.503  0.00  0.00    +0.000 N 
ATOM     20  N   UNL     1      45.998   0.857   8.385  0.00  0.00    +0.000 NA
ATOM     21  H   UNL     1      47.110  -0.574   7.461  0.00  0.00    +0.000 HD
ENDBRANCH  13  16
ENDBRANCH  11  12
ENDBRANCH   8  11
ENDBRANCH   2   5
BRANCH   1  23
ATOM     22  C   UNL     1      49.492   9.398  14.129  0.00  0.00    +0.000 C 
ATOM     23  C   UNL     1      48.152   9.144  14.826  0.00  0.00    +0.000 C 
BRANCH  23  24
ATOM     24  C   UNL     1      48.329   8.887  16.307  0.00  0.00    +0.000 A 
ATOM     25  C   UNL     1      47.931   9.761  17.310  0.00  0.00    +0.000 A 
ATOM     26  S   UNL     1      48.227   9.167  18.883  0.00  0.00    +0.000 S 
ATOM     27  C   UNL     1      48.892   7.721  18.280  0.00  0.00    +0.000 A 
ATOM     28  N   UNL     1      49.337   6.748  19.122  0.00  0.00    +0.000 NA
ATOM     29  C   UNL     1      49.801   5.701  18.524  0.00  0.00    +0.000 A 
ATOM     30  N   UNL     1      49.862   5.538  17.165  0.00  0.00    +0.000 N 
ATOM     31  C   UNL     1      49.428   6.493  16.273  0.00  0.00    +0.000 A 
ATOM     32  O   UNL     1      49.493   6.300  15.065  0.00  0.00    +0.000 OA
ATOM     33  C   UNL     1      48.892   7.692  16.897  0.00  0.00    +0.000 A 
ATOM     34  H   UNL     1      50.232   4.692  16.759  0.00  0.00    +0.000 HD
ENDBRANCH  23  24
ENDBRANCH   1  23
TORSDOF 6
ENDMDL
MODEL 5
REMARK VINA RESULT:    -7.376      1.533      1.954
REMARK INTER + INTRA:         -10.816
REMARK INTER:                 -10.370
REMARK INTRA:                  -0.447
REMARK UNBOUND:                -0.853
REMARK  Name = 
REMARK  7 active torsions:
REMARK  status: ('A' for Active; 'I' for Inactive)
REMARK    1  A    between atoms: C_1  and  C_2
REMARK    2  A    between atoms: C_2  and  N_3
REMARK    3  A    between atoms: C_2  and  C_21
REMARK    4  A    between atoms: C_4  and  C_6
REMARK    5  A    between atoms: C_9  and  C_10
REMARK    6  A    between atoms: C_10  and  N_11
REMARK    7  A    between atoms: C_12  and  C_14
REMARK                            x       y       z     vdW  Elec       q    Type
REMARK                         _______ _______ _______ _____ _____    ______ ____
ROOT
ATOM      1  N   UNL     1      47.819   5.829  16.375  0.00  0.00    +0.000 N 
ATOM      2  C   UNL     1      48.249   6.102  15.091  0.00  0.00    +0.000 C 
ATOM      3  O   UNL     1      49.292   6.700  14.840  0.00  0.00    +0.000 OA
ATOM      4  H   UNL     1      46.977   5.270  16.465  0.00  0.00    +0.000 HD
ENDROOT
BRANCH   2   5
ATOM      5  C   UNL     1      47.366   5.608  13.978  0.00  0.00    +0.000 A 
ATOM      6  C   UNL     1      46.809   4.335  14.064  0.00  0.00    +0.000 A 
ATOM      7  C   UNL     1      45.955   3.905  13.048  0.00  0.00    +0.000 A 
ATOM      8  C   UNL     1      45.683   4.748  11.967  0.00  0.00    +0.000 A 
ATOM      9  C   UNL     1      46.297   6.001  11.969  0.00  0.00    +0.000 A 
ATOM     10  N   UNL     1      47.130   6.458  12.943  0.00  0.00    +0.000 NA
BRANCH   8  11
ATOM     11  C   UNL     1      44.774   4.324  10.845  0.00  0.00    +0.000 C 
BRANCH  11  12
ATOM     12  N   UNL     1      45.473   4.090   9.607  0.00  0.00    +0.000 N 
ATOM     13  C   UNL     1      45.494   2.843   9.013  0.00  0.00    +0.000 C 
ATOM     14  O   UNL     1      44.933   1.864   9.491  0.00  0.00    +0.000 OA
ATOM     15  H   UNL     1      45.903   4.842   9.075  0.00  0.00    +0.000 HD
BRANCH  13  16
ATOM     16  C   UNL     1      46.254   2.798   7.750  0.00  0.00    +0.000 A 
ATOM     17  C   UNL     1      47.037   1.716   7.258  0.00  0.00    +0.000 A 
ATOM     18  C   UNL     1      47.561   2.157   6.066  0.00  0.00    +0.000 A 
ATOM     19  N   UNL     1      47.097   3.427   5.903  0.00  0.00    +0.000 N 
ATOM     20  N   UNL     1      46.291   3.843   6.897  0.00  0.00    +0.000 NA
ATOM     21  H   UNL     1      47.287   4.067   5.138  0.00  0.00    +0.000 HD
ENDBRANCH  13  16
ENDBRANCH  11  12
ENDBRANCH   8  11
ENDBRANCH   2   5
BRANCH   1  23
ATOM     22  C   UNL     1      48.798   7.714  17.640  0.00  0.00    +0.000 C 
ATOM     23  C   UNL     1      48.603   6.197  17.545  0.00  0.00    +0.000 C 
BRANCH  23  24
ATOM     24  C   UNL     1      49.926   5.463  17.498  0.00  0.00    +0.000 A 
ATOM     25  C   UNL     1      51.169   6.078  17.558  0.00  0.00    +0.000 A 
ATOM     26  S   UNL     1      52.472   4.976  17.527  0.00  0.00    +0.000 S 
ATOM     27  C   UNL     1      51.422   3.640  17.440  0.00  0.00    +0.000 A 
ATOM     28  N   UNL     1      51.906   2.368  17.402  0.00  0.00    +0.000 NA
ATOM     29  C   UNL     1      50.994   1.455  17.352  0.00  0.00    +0.000 A 
ATOM     30  N   UNL     1      49.645   1.695  17.335  0.00  0.00    +0.000 N 
ATOM     31  C   UNL     1      49.107   2.963  17.369  0.00  0.00    +0.000 A 
ATOM     32  O   UNL     1      47.894   3.130  17.362  0.00  0.00    +0.000 OA
ATOM     33  C   UNL     1      50.095   4.027  17.429  0.00  0.00    +0.000 A 
ATOM     34  H   UNL     1      48.982   0.936  17.301  0.00  0.00    +0.000 HD
ENDBRANCH  23  24
ENDBRANCH   1  23
TORSDOF 6
ENDMDL
MODEL 6
REMARK VINA RESULT:    -7.215      3.534      9.253
REMARK INTER + INTRA:         -10.599
REMARK INTER:                  -9.872
REMARK INTRA:                  -0.727
REMARK UNBOUND:                -0.853
REMARK  Name = 
REMARK  7 active torsions:
REMARK  status: ('A' for Active; 'I' for Inactive)
REMARK    1  A    between atoms: C_1  and  C_2
REMARK    2  A    between atoms: C_2  and  N_3
REMARK    3  A    between atoms: C_2  and  C_21
REMARK    4  A    between atoms: C_4  and  C_6
REMARK    5  A    between atoms: C_9  and  C_10
REMARK    6  A    between atoms: C_10  and  N_11
REMARK    7  A    between atoms: C_12  and  C_14
REMARK                            x       y       z     vdW  Elec       q    Type
REMARK                         _______ _______ _______ _____ _____    ______ ____
ROOT
ATOM      1  N   UNL     1      46.554   6.507  12.858  0.00  0.00    +0.000 N 
ATOM      2  C   UNL     1      47.903   6.596  13.140  0.00  0.00    +0.000 C 
ATOM      3  O   UNL     1      48.734   7.028  12.345  0.00  0.00    +0.000 OA
ATOM      4  H   UNL     1      45.949   6.199  13.612  0.00  0.00    +0.000 HD
ENDROOT
BRANCH   2   5
ATOM      5  C   UNL     1      48.324   6.141  14.511  0.00  0.00    +0.000 A 
ATOM      6  C   UNL     1      47.586   5.152  15.156  0.00  0.00    +0.000 A 
ATOM      7  C   UNL     1      48.012   4.705  16.407  0.00  0.00    +0.000 A 
ATOM      8  C   UNL     1      49.155   5.260  16.991  0.00  0.00    +0.000 A 
ATOM      9  C   UNL     1      49.818   6.252  16.268  0.00  0.00    +0.000 A 
ATOM     10  N   UNL     1      49.438   6.710  15.045  0.00  0.00    +0.000 NA
BRANCH   8  11
ATOM     11  C   UNL     1      49.647   4.816  18.341  0.00  0.00    +0.000 C 
BRANCH  11  12
ATOM     12  N   UNL     1      50.375   3.573  18.300  0.00  0.00    +0.000 N 
ATOM     13  C   UNL     1      51.726   3.536  18.014  0.00  0.00    +0.000 C 
ATOM     14  O   UNL     1      52.388   4.540  17.774  0.00  0.00    +0.000 OA
ATOM     15  H   UNL     1      49.953   2.687  18.562  0.00  0.00    +0.000 HD
BRANCH  13  16
ATOM     16  C   UNL     1      52.300   2.178  18.020  0.00  0.00    +0.000 A 
ATOM     17  C   UNL     1      53.678   1.827  18.066  0.00  0.00    +0.000 A 
ATOM     18  C   UNL     1      53.707   0.453  18.031  0.00  0.00    +0.000 A 
ATOM     19  N   UNL     1      52.407   0.056  17.964  0.00  0.00    +0.000 N 
ATOM     20  N   UNL     1      51.526   1.073  17.970  0.00  0.00    +0.000 NA
ATOM     21  H   UNL     1      52.046  -0.892  17.913  0.00  0.00    +0.000 HD
ENDBRANCH  13  16
ENDBRANCH  11  12
ENDBRANCH   8  11
ENDBRANCH   2   5
BRANCH   1  23
ATOM     22  C   UNL     1      44.884   7.993  11.803  0.00  0.00    +0.000 C 
ATOM     23  C   UNL     1      46.001   6.966  11.592  0.00  0.00    +0.000 C 
BRANCH  23  24
ATOM     24  C   UNL     1      45.517   5.766  10.806  0.00  0.00    +0.000 A 
ATOM     25  C   UNL     1      45.814   5.528   9.471  0.00  0.00    +0.000 A 
ATOM     26  S   UNL     1      45.158   4.066   8.881  0.00  0.00    +0.000 S 
ATOM     27  C   UNL     1      44.461   3.697  10.388  0.00  0.00    +0.000 A 
ATOM     28  N   UNL     1      43.756   2.547  10.573  0.00  0.00    +0.000 NA
ATOM     29  C   UNL     1      43.298   2.392  11.771  0.00  0.00    +0.000 A 
ATOM     30  N   UNL     1      43.478   3.281  12.799  0.00  0.00    +0.000 N 
ATOM     31  C   UNL     1      44.179   4.458  12.661  0.00  0.00    +0.000 A 
ATOM     32  O   UNL     1      44.323   5.218  13.611  0.00  0.00    +0.000 OA
ATOM     33  C   UNL     1      44.719   4.677  11.329  0.00  0.00    +0.000 A 
ATOM     34  H   UNL     1      43.098   3.099  13.716  0.00  0.00    +0.000 HD
ENDBRANCH  23  24
ENDBRANCH   1  23
TORSDOF 6
ENDMDL
MODEL 7
REMARK VINA RESULT:    -7.033      2.176      3.064
REMARK INTER + INTRA:         -10.353
REMARK INTER:                  -9.506
REMARK INTRA:                  -0.846
REMARK UNBOUND:                -0.853
REMARK  Name = 
REMARK  7 active torsions:
REMARK  status: ('A' for Active; 'I' for Inactive)
REMARK    1  A    between atoms: C_1  and  C_2
REMARK    2  A    between atoms: C_2  and  N_3
REMARK    3  A    between atoms: C_2  and  C_21
REMARK    4  A    between atoms: C_4  and  C_6
REMARK    5  A    between atoms: C_9  and  C_10
REMARK    6  A    between atoms: C_10  and  N_11
REMARK    7  A    between atoms: C_12  and  C_14
REMARK                            x       y       z     vdW  Elec       q    Type
REMARK                         _______ _______ _______ _____ _____    ______ ____
ROOT
ATOM      1  N   UNL     1      49.624   4.529  17.359  0.00  0.00    +0.000 N 
ATOM      2  C   UNL     1      48.320   4.236  17.013  0.00  0.00    +0.000 C 
ATOM      3  O   UNL     1      47.596   3.492  17.669  0.00  0.00    +0.000 OA
ATOM      4  H   UNL     1      50.107   5.209  16.782  0.00  0.00    +0.000 HD
ENDROOT
BRANCH   2   5
ATOM      5  C   UNL     1      47.802   4.897  15.765  0.00  0.00    +0.000 A 
ATOM      6  C   UNL     1      48.382   6.087  15.334  0.00  0.00    +0.000 A 
ATOM      7  C   UNL     1      47.924   6.668  14.151  0.00  0.00    +0.000 A 
ATOM      8  C   UNL     1      46.894   6.056  13.430  0.00  0.00    +0.000 A 
ATOM      9  C   UNL     1      46.372   4.871  13.951  0.00  0.00    +0.000 A 
ATOM     10  N   UNL     1      46.795   4.272  15.097  0.00  0.00    +0.000 NA
BRANCH   8  11
ATOM     11  C   UNL     1      46.363   6.650  12.154  0.00  0.00    +0.000 C 
BRANCH  11  12
ATOM     12  N   UNL     1      46.177   5.676  11.108  0.00  0.00    +0.000 N 
ATOM     13  C   UNL     1      44.918   5.322  10.665  0.00  0.00    +0.000 C 
ATOM     14  O   UNL     1      43.887   5.799  11.125  0.00  0.00    +0.000 OA
ATOM     15  H   UNL     1      46.958   5.274  10.595  0.00  0.00    +0.000 HD
BRANCH  13  16
ATOM     16  C   UNL     1      44.927   4.314   9.588  0.00  0.00    +0.000 A 
ATOM     17  C   UNL     1      44.494   2.962   9.674  0.00  0.00    +0.000 A 
ATOM     18  C   UNL     1      44.719   2.426   8.428  0.00  0.00    +0.000 A 
ATOM     19  N   UNL     1      45.257   3.431   7.683  0.00  0.00    +0.000 N 
ATOM     20  N   UNL     1      45.384   4.593   8.349  0.00  0.00    +0.000 NA
ATOM     21  H   UNL     1      45.558   3.396   6.714  0.00  0.00    +0.000 HD
ENDBRANCH  13  16
ENDBRANCH  11  12
ENDBRANCH   8  11
ENDBRANCH   2   5
BRANCH   1  23
ATOM     22  C   UNL     1      49.926   4.886  19.787  0.00  0.00    +0.000 C 
ATOM     23  C   UNL     1      50.235   4.005  18.572  0.00  0.00    +0.000 C 
BRANCH  23  24
ATOM     24  C   UNL     1      51.725   3.863  18.346  0.00  0.00    +0.000 A 
ATOM     25  C   UNL     1      52.658   4.859  18.602  0.00  0.00    +0.000 A 
ATOM     26  S   UNL     1      54.266   4.379  18.289  0.00  0.00    +0.000 S 
ATOM     27  C   UNL     1      53.773   2.823  17.807  0.00  0.00    +0.000 A 
ATOM     28  N   UNL     1      54.683   1.886  17.422  0.00  0.00    +0.000 NA
ATOM     29  C   UNL     1      54.167   0.747  17.098  0.00  0.00    +0.000 A 
ATOM     30  N   UNL     1      52.828   0.458  17.123  0.00  0.00    +0.000 N 
ATOM     31  C   UNL     1      51.869   1.372  17.502  0.00  0.00    +0.000 A 
ATOM     32  O   UNL     1      50.683   1.067  17.518  0.00  0.00    +0.000 OA
ATOM     33  C   UNL     1      52.401   2.671  17.879  0.00  0.00    +0.000 A 
ATOM     34  H   UNL     1      52.488  -0.454  16.862  0.00  0.00    +0.000 HD
ENDBRANCH  23  24
ENDBRANCH   1  23
TORSDOF 6
ENDMDL
MODEL 8
REMARK VINA RESULT:    -6.936      2.766      3.737
REMARK INTER + INTRA:         -10.222
REMARK INTER:                  -9.341
REMARK INTRA:                  -0.881
REMARK UNBOUND:                -0.853
REMARK  Name = 
REMARK  7 active torsions:
REMARK  status: ('A' for Active; 'I' for Inactive)
REMARK    1  A    between atoms: C_1  and  C_2
REMARK    2  A    between atoms: C_2  and  N_3
REMARK    3  A    between atoms: C_2  and  C_21
REMARK    4  A    between atoms: C_4  and  C_6
REMARK    5  A    between atoms: C_9  and  C_10
REMARK    6  A    between atoms: C_10  and  N_11
REMARK    7  A    between atoms: C_12  and  C_14
REMARK                            x       y       z     vdW  Elec       q    Type
REMARK                         _______ _______ _______ _____ _____    ______ ____
ROOT
ATOM      1  N   UNL     1      48.637   6.855  15.064  0.00  0.00    +0.000 N 
ATOM      2  C   UNL     1      47.774   7.616  14.298  0.00  0.00    +0.000 C 
ATOM      3  O   UNL     1      47.648   8.831  14.426  0.00  0.00    +0.000 OA
ATOM      4  H   UNL     1      48.710   5.871  14.827  0.00  0.00    +0.000 HD
ENDROOT
BRANCH   2   5
ATOM      5  C   UNL     1      46.982   6.872  13.258  0.00  0.00    +0.000 A 
ATOM      6  C   UNL     1      46.846   5.490  13.364  0.00  0.00    +0.000 A 
ATOM      7  C   UNL     1      46.071   4.817  12.420  0.00  0.00    +0.000 A 
ATOM      8  C   UNL     1      45.459   5.532  11.387  0.00  0.00    +0.000 A 
ATOM      9  C   UNL     1      45.664   6.912  11.362  0.00  0.00    +0.000 A 
ATOM     10  N   UNL     1      46.407   7.605  12.267  0.00  0.00    +0.000 NA
BRANCH   8  11
ATOM     11  C   UNL     1      44.621   4.847  10.341  0.00  0.00    +0.000 C 
BRANCH  11  12
ATOM     12  N   UNL     1      45.380   4.429   9.190  0.00  0.00    +0.000 N 
ATOM     13  C   UNL     1      45.384   3.115   8.765  0.00  0.00    +0.000 C 
ATOM     14  O   UNL     1      44.758   2.226   9.331  0.00  0.00    +0.000 OA
ATOM     15  H   UNL     1      45.870   5.090   8.593  0.00  0.00    +0.000 HD
BRANCH  13  16
ATOM     16  C   UNL     1      46.214   2.879   7.569  0.00  0.00    +0.000 A 
ATOM     17  C   UNL     1      47.028   1.744   7.299  0.00  0.00    +0.000 A 
ATOM     18  C   UNL     1      47.615   1.995   6.082  0.00  0.00    +0.000 A 
ATOM     19  N   UNL     1      47.154   3.216   5.693  0.00  0.00    +0.000 N 
ATOM     20  N   UNL     1      46.292   3.774   6.562  0.00  0.00    +0.000 NA
ATOM     21  H   UNL     1      47.383   3.728   4.847  0.00  0.00    +0.000 HD
ENDBRANCH  13  16
ENDBRANCH  11  12
ENDBRANCH   8  11
ENDBRANCH   2   5
BRANCH   1  23
ATOM     22  C   UNL     1      50.976   7.410  15.638  0.00  0.00    +0.000 C 
ATOM     23  C   UNL     1      49.506   7.452  16.067  0.00  0.00    +0.000 C 
BRANCH  23  24
ATOM     24  C   UNL     1      49.286   6.746  17.388  0.00  0.00    +0.000 A 
ATOM     25  C   UNL     1      49.789   5.490  17.700  0.00  0.00    +0.000 A 
ATOM     26  S   UNL     1      49.407   4.983  19.285  0.00  0.00    +0.000 S 
ATOM     27  C   UNL     1      48.564   6.424  19.611  0.00  0.00    +0.000 A 
ATOM     28  N   UNL     1      47.990   6.643  20.826  0.00  0.00    +0.000 NA
ATOM     29  C   UNL     1      47.397   7.786  20.935  0.00  0.00    +0.000 A 
ATOM     30  N   UNL     1      47.324   8.728  19.942  0.00  0.00    +0.000 N 
ATOM     31  C   UNL     1      47.885   8.552  18.696  0.00  0.00    +0.000 A 
ATOM     32  O   UNL     1      47.803   9.426  17.842  0.00  0.00    +0.000 OA
ATOM     33  C   UNL     1      48.568   7.280  18.525  0.00  0.00    +0.000 A 
ATOM     34  H   UNL     1      46.850   9.605  20.091  0.00  0.00    +0.000 HD
ENDBRANCH  23  24
ENDBRANCH   1  23
TORSDOF 6
ENDMDL
MODEL 9
REMARK VINA RESULT:    -6.443      2.545      3.335
REMARK INTER + INTRA:          -9.556
REMARK INTER:                  -8.773
REMARK INTRA:                  -0.783
REMARK UNBOUND:                -0.853
REMARK  Name = 
REMARK  7 active torsions:
REMARK  status: ('A' for Active; 'I' for Inactive)
REMARK    1  A    between atoms: C_1  and  C_2
REMARK    2  A    between atoms: C_2  and  N_3
REMARK    3  A    between atoms: C_2  and  C_21
REMARK    4  A    between atoms: C_4  and  C_6
REMARK    5  A    between atoms: C_9  and  C_10
REMARK    6  A    between atoms: C_10  and  N_11
REMARK    7  A    between atoms: C_12  and  C_14
REMARK                            x       y       z     vdW  Elec       q    Type
REMARK                         _______ _______ _______ _____ _____    ______ ____
ROOT
ATOM      1  N   UNL     1      49.136   7.431  15.108  0.00  0.00    +0.000 N 
ATOM      2  C   UNL     1      48.202   8.251  14.505  0.00  0.00    +0.000 C 
ATOM      3  O   UNL     1      48.132   9.460  14.707  0.00  0.00    +0.000 OA
ATOM      4  H   UNL     1      49.145   6.459  14.816  0.00  0.00    +0.000 HD
ENDROOT
BRANCH   2   5
ATOM      5  C   UNL     1      47.253   7.581  13.549  0.00  0.00    +0.000 A 
ATOM      6  C   UNL     1      47.438   6.238  13.234  0.00  0.00    +0.000 A 
ATOM      7  C   UNL     1      46.525   5.616  12.382  0.00  0.00    +0.000 A 
ATOM      8  C   UNL     1      45.456   6.348  11.856  0.00  0.00    +0.000 A 
ATOM      9  C   UNL     1      45.363   7.690  12.225  0.00  0.00    +0.000 A 
ATOM     10  N   UNL     1      46.229   8.330  13.056  0.00  0.00    +0.000 NA
BRANCH   8  11
ATOM     11  C   UNL     1      44.451   5.721  10.928  0.00  0.00    +0.000 C 
BRANCH  11  12
ATOM     12  N   UNL     1      45.059   4.986   9.847  0.00  0.00    +0.000 N 
ATOM     13  C   UNL     1      44.959   3.611   9.761  0.00  0.00    +0.000 C 
ATOM     14  O   UNL     1      44.361   2.930  10.587  0.00  0.00    +0.000 OA
ATOM     15  H   UNL     1      45.507   5.448   9.061  0.00  0.00    +0.000 HD
BRANCH  13  16
ATOM     16  C   UNL     1      45.639   3.037   8.586  0.00  0.00    +0.000 A 
ATOM     17  C   UNL     1      46.073   3.729   7.421  0.00  0.00    +0.000 A 
ATOM     18  C   UNL     1      46.627   2.767   6.609  0.00  0.00    +0.000 A 
ATOM     19  N   UNL     1      46.503   1.593   7.287  0.00  0.00    +0.000 N 
ATOM     20  N   UNL     1      45.923   1.720   8.494  0.00  0.00    +0.000 NA
ATOM     21  H   UNL     1      46.794   0.667   6.988  0.00  0.00    +0.000 HD
ENDBRANCH  13  16
ENDBRANCH  11  12
ENDBRANCH   8  11
ENDBRANCH   2   5
BRANCH   1  23
ATOM     22  C   UNL     1      51.498   7.250  15.813  0.00  0.00    +0.000 C 
ATOM     23  C   UNL     1      50.151   7.953  16.010  0.00  0.00    +0.000 C 
BRANCH  23  24
ATOM     24  C   UNL     1      49.654   7.824  17.434  0.00  0.00    +0.000 A 
ATOM     25  C   UNL     1      49.473   8.891  18.304  0.00  0.00    +0.000 A 
ATOM     26  S   UNL     1      48.858   8.426  19.827  0.00  0.00    +0.000 S 
ATOM     27  C   UNL     1      48.805   6.787  19.376  0.00  0.00    +0.000 A 
ATOM     28  N   UNL     1      48.349   5.836  20.237  0.00  0.00    +0.000 NA
ATOM     29  C   UNL     1      48.352   4.638  19.754  0.00  0.00    +0.000 A 
ATOM     30  N   UNL     1      48.769   4.302  18.492  0.00  0.00    +0.000 N 
ATOM     31  C   UNL     1      49.242   5.227  17.587  0.00  0.00    +0.000 A 
ATOM     32  O   UNL     1      49.595   4.883  16.466  0.00  0.00    +0.000 OA
ATOM     33  C   UNL     1      49.255   6.593  18.083  0.00  0.00    +0.000 A 
ATOM     34  H   UNL     1      48.742   3.347  18.172  0.00  0.00    +0.000 HD
ENDBRANCH  23  24
ENDBRANCH   1  23
TORSDOF 6
ENDMDL
