MODEL 1
REMARK VINA RESULT:    -7.696      0.000      0.000
REMARK INTER + INTRA:         -11.373
REMARK INTER:                 -10.396
REMARK INTRA:                  -0.977
REMARK UNBOUND:                -0.977
REMARK  Name = 
REMARK  6 active torsions:
REMARK  status: ('A' for Active; 'I' for Inactive)
REMARK    1  A    between atoms: C_2  and  C_20
REMARK    2  A    between atoms: N_3  and  C_4
REMARK    3  A    between atoms: C_4  and  C_5
REMARK    4  A    between atoms: C_8  and  C_9
REMARK    5  A    between atoms: C_9  and  N_10
REMARK    6  A    between atoms: C_11  and  C_13
REMARK                            x       y       z     vdW  Elec       q    Type
REMARK                         _______ _______ _______ _____ _____    ______ ____
ROOT
ATOM      1  C   UNL     1      46.701   4.795  14.437  0.00  0.00    +0.000 A 
ATOM      2  C   UNL     1      45.922   4.041  13.548  0.00  0.00    +0.000 A 
ATOM      3  C   UNL     1      45.682   4.493  12.246  0.00  0.00    +0.000 A 
ATOM      4  C   UNL     1      46.235   5.699  11.794  0.00  0.00    +0.000 A 
ATOM      5  C   UNL     1      47.023   6.447  12.679  0.00  0.00    +0.000 A 
ATOM      6  C   UNL     1      47.264   5.994  13.981  0.00  0.00    +0.000 A 
ENDROOT
BRANCH   1   7
ATOM      7  C   UNL     1      46.923   4.329  15.854  0.00  0.00    +0.000 C 
BRANCH   7  10
ATOM      8  O   UNL     1      47.953   5.024  18.318  0.00  0.00    +0.000 OA
ATOM      9  C   UNL     1      48.723   4.552  17.486  0.00  0.00    +0.000 C 
ATOM     10  N   UNL     1      48.319   4.262  16.205  0.00  0.00    +0.000 N 
ATOM     11  H   UNL     1      48.918   3.695  15.611  0.00  0.00    +0.000 HD
BRANCH   9  12
ATOM     12  C   UNL     1      50.130   4.294  17.817  0.00  0.00    +0.000 A 
ATOM     13  C   UNL     1      50.870   5.255  18.494  0.00  0.00    +0.000 A 
ATOM     14  S   UNL     1      52.477   4.780  18.816  0.00  0.00    +0.000 S 
ATOM     15  C   UNL     1      52.226   3.255  18.105  0.00  0.00    +0.000 A 
ATOM     16  N   UNL     1      53.213   2.320  18.089  0.00  0.00    +0.000 NA
ATOM     17  C   UNL     1      52.872   1.194  17.555  0.00  0.00    +0.000 A 
ATOM     18  N   UNL     1      51.638   0.924  17.022  0.00  0.00    +0.000 N 
ATOM     19  C   UNL     1      50.627   1.854  16.972  0.00  0.00    +0.000 A 
ATOM     20  O   UNL     1      49.560   1.606  16.420  0.00  0.00    +0.000 OA
ATOM     21  C   UNL     1      50.946   3.125  17.594  0.00  0.00    +0.000 A 
ATOM     22  H   UNL     1      51.442   0.030  16.600  0.00  0.00    +0.000 HD
ENDBRANCH   9  12
ENDBRANCH   7  10
ENDBRANCH   1   7
BRANCH   4  23
ATOM     23  C   UNL     1      45.995   6.179  10.385  0.00  0.00    +0.000 C 
BRANCH  23  24
ATOM     24  N   UNL     1      45.326   5.188   9.572  0.00  0.00    +0.000 N 
ATOM     25  C   UNL     1      45.901   4.745   8.399  0.00  0.00    +0.000 C 
ATOM     26  O   UNL     1      46.989   5.158   7.996  0.00  0.00    +0.000 OA
ATOM     27  H   UNL     1      44.535   4.694   9.963  0.00  0.00    +0.000 HD
BRANCH  25  28
ATOM     28  C   UNL     1      45.084   3.669   7.644  0.00  0.00    +0.000 C 
ATOM     29  C   UNL     1      45.960   2.685   6.891  0.00  0.00    +0.000 C 
ATOM     30  C   UNL     1      46.382   1.699   7.965  0.00  0.00    +0.000 C 
ATOM     31  C   UNL     1      45.237   1.701   8.965  0.00  0.00    +0.000 C 
ATOM     32  N   UNL     1      44.343   2.800   8.585  0.00  0.00    +0.000 NA
ATOM     33  H   UNL     1      44.109   3.347   9.420  0.00  0.00    +0.000 HD
ENDBRANCH  25  28
ENDBRANCH  23  24
ENDBRANCH   4  23
TORSDOF 6
ENDMDL
MODEL 2
REMARK VINA RESULT:    -7.220      2.955      4.509
REMARK INTER + INTRA:         -10.730
REMARK INTER:                  -9.784
REMARK INTRA:                  -0.946
REMARK UNBOUND:                -0.977
REMARK  Name = 
REMARK  6 active torsions:
REMARK  status: ('A' for Active; 'I' for Inactive)
REMARK    1  A    between atoms: C_2  and  C_20
REMARK    2  A    between atoms: N_3  and  C_4
REMARK    3  A    between atoms: C_4  and  C_5
REMARK    4  A    between atoms: C_8  and  C_9
REMARK    5  A    between atoms: C_9  and  N_10
REMARK    6  A    between atoms: C_11  and  C_13
REMARK                            x       y       z     vdW  Elec       q    Type
REMARK                         _______ _______ _______ _____ _____    ______ ____
ROOT
ATOM      1  C   UNL     1      46.940   4.683  14.273  0.00  0.00    +0.000 A 
ATOM      2  C   UNL     1      47.406   5.895  13.744  0.00  0.00    +0.000 A 
ATOM      3  C   UNL     1      46.905   6.387  12.534  0.00  0.00    +0.000 A 
ATOM      4  C   UNL     1      45.909   5.691  11.835  0.00  0.00    +0.000 A 
ATOM      5  C   UNL     1      45.436   4.485  12.370  0.00  0.00    +0.000 A 
ATOM      6  C   UNL     1      45.936   3.993  13.581  0.00  0.00    +0.000 A 
ENDROOT
BRANCH   1   7
ATOM      7  C   UNL     1      47.512   4.131  15.555  0.00  0.00    +0.000 C 
BRANCH   7  10
ATOM      8  O   UNL     1      49.669   5.480  16.627  0.00  0.00    +0.000 OA
ATOM      9  C   UNL     1      48.550   5.750  17.057  0.00  0.00    +0.000 C 
ATOM     10  N   UNL     1      47.430   5.067  16.648  0.00  0.00    +0.000 N 
ATOM     11  H   UNL     1      46.512   5.441  16.867  0.00  0.00    +0.000 HD
BRANCH   9  12
ATOM     12  C   UNL     1      48.358   6.811  18.054  0.00  0.00    +0.000 A 
ATOM     13  C   UNL     1      48.350   6.497  19.407  0.00  0.00    +0.000 A 
ATOM     14  S   UNL     1      48.138   7.850  20.423  0.00  0.00    +0.000 S 
ATOM     15  C   UNL     1      48.098   8.911  19.093  0.00  0.00    +0.000 A 
ATOM     16  N   UNL     1      47.984  10.254  19.272  0.00  0.00    +0.000 NA
ATOM     17  C   UNL     1      48.009  10.941  18.178  0.00  0.00    +0.000 A 
ATOM     18  N   UNL     1      48.123  10.405  16.921  0.00  0.00    +0.000 N 
ATOM     19  C   UNL     1      48.191   9.052  16.689  0.00  0.00    +0.000 A 
ATOM     20  O   UNL     1      48.215   8.601  15.549  0.00  0.00    +0.000 OA
ATOM     21  C   UNL     1      48.206   8.236  17.888  0.00  0.00    +0.000 A 
ATOM     22  H   UNL     1      48.114  10.997  16.105  0.00  0.00    +0.000 HD
ENDBRANCH   9  12
ENDBRANCH   7  10
ENDBRANCH   1   7
BRANCH   4  23
ATOM     23  C   UNL     1      45.352   6.229  10.541  0.00  0.00    +0.000 C 
BRANCH  23  24
ATOM     24  N   UNL     1      44.839   5.183   9.686  0.00  0.00    +0.000 N 
ATOM     25  C   UNL     1      45.550   4.777   8.576  0.00  0.00    +0.000 C 
ATOM     26  O   UNL     1      46.635   5.272   8.267  0.00  0.00    +0.000 OA
ATOM     27  H   UNL     1      44.056   4.631  10.012  0.00  0.00    +0.000 HD
BRANCH  25  28
ATOM     28  C   UNL     1      44.889   3.636   7.766  0.00  0.00    +0.000 C 
ATOM     29  C   UNL     1      45.884   2.866   6.915  0.00  0.00    +0.000 C 
ATOM     30  C   UNL     1      46.506   1.892   7.900  0.00  0.00    +0.000 C 
ATOM     31  C   UNL     1      45.418   1.634   8.930  0.00  0.00    +0.000 C 
ATOM     32  N   UNL     1      44.341   2.592   8.660  0.00  0.00    +0.000 NA
ATOM     33  H   UNL     1      44.055   3.033   9.540  0.00  0.00    +0.000 HD
ENDBRANCH  25  28
ENDBRANCH  23  24
ENDBRANCH   4  23
TORSDOF 6
ENDMDL
MODEL 3
REMARK VINA RESULT:    -7.119      2.989      3.714
REMARK INTER + INTRA:         -10.594
REMARK INTER:                  -9.111
REMARK INTRA:                  -1.482
REMARK UNBOUND:                -0.977
REMARK  Name = 
REMARK  6 active torsions:
REMARK  status: ('A' for Active; 'I' for Inactive)
REMARK    1  A    between atoms: C_2  and  C_20
REMARK    2  A    between atoms: N_3  and  C_4
REMARK    3  A    between atoms: C_4  and  C_5
REMARK    4  A    between atoms: C_8  and  C_9
REMARK    5  A    between atoms: C_9  and  N_10
REMARK    6  A    between atoms: C_11  and  C_13
REMARK                            x       y       z     vdW  Elec       q    Type
REMARK                         _______ _______ _______ _____ _____    ______ ____
ROOT
ATOM      1  C   UNL     1      48.591   8.053  13.333  0.00  0.00    +0.000 A 
ATOM      2  C   UNL     1      48.295   7.064  12.385  0.00  0.00    +0.000 A 
ATOM      3  C   UNL     1      47.049   7.032  11.749  0.00  0.00    +0.000 A 
ATOM      4  C   UNL     1      46.078   8.003  12.027  0.00  0.00    +0.000 A 
ATOM      5  C   UNL     1      46.378   8.999  12.966  0.00  0.00    +0.000 A 
ATOM      6  C   UNL     1      47.625   9.031  13.602  0.00  0.00    +0.000 A 
ENDROOT
BRANCH   1   7
ATOM      7  C   UNL     1      49.917   8.061  14.050  0.00  0.00    +0.000 C 
BRANCH   7  10
ATOM      8  O   UNL     1      49.291   8.512  16.700  0.00  0.00    +0.000 OA
ATOM      9  C   UNL     1      49.581   7.366  16.365  0.00  0.00    +0.000 C 
ATOM     10  N   UNL     1      49.993   7.065  15.089  0.00  0.00    +0.000 N 
ATOM     11  H   UNL     1      50.032   6.093  14.795  0.00  0.00    +0.000 HD
BRANCH   9  12
ATOM     12  C   UNL     1      49.521   6.258  17.326  0.00  0.00    +0.000 A 
ATOM     13  C   UNL     1      50.232   6.335  18.517  0.00  0.00    +0.000 A 
ATOM     14  S   UNL     1      50.031   4.973  19.524  0.00  0.00    +0.000 S 
ATOM     15  C   UNL     1      48.949   4.253  18.426  0.00  0.00    +0.000 A 
ATOM     16  N   UNL     1      48.355   3.062  18.706  0.00  0.00    +0.000 NA
ATOM     17  C   UNL     1      47.526   2.655  17.803  0.00  0.00    +0.000 A 
ATOM     18  N   UNL     1      47.249   3.321  16.638  0.00  0.00    +0.000 N 
ATOM     19  C   UNL     1      47.862   4.502  16.289  0.00  0.00    +0.000 A 
ATOM     20  O   UNL     1      47.649   5.034  15.206  0.00  0.00    +0.000 OA
ATOM     21  C   UNL     1      48.774   5.024  17.288  0.00  0.00    +0.000 A 
ATOM     22  H   UNL     1      46.607   2.937  15.963  0.00  0.00    +0.000 HD
ENDBRANCH   9  12
ENDBRANCH   7  10
ENDBRANCH   1   7
BRANCH   4  23
ATOM     23  C   UNL     1      44.742   7.983  11.329  0.00  0.00    +0.000 C 
BRANCH  23  24
ATOM     24  N   UNL     1      44.453   6.700  10.730  0.00  0.00    +0.000 N 
ATOM     25  C   UNL     1      43.698   5.767  11.410  0.00  0.00    +0.000 C 
ATOM     26  O   UNL     1      43.239   5.977  12.533  0.00  0.00    +0.000 OA
ATOM     27  H   UNL     1      44.650   6.569   9.746  0.00  0.00    +0.000 HD
BRANCH  25  28
ATOM     28  C   UNL     1      43.452   4.448  10.639  0.00  0.00    +0.000 C 
ATOM     29  C   UNL     1      44.739   3.727  10.280  0.00  0.00    +0.000 C 
ATOM     30  C   UNL     1      45.092   2.987  11.558  0.00  0.00    +0.000 C 
ATOM     31  C   UNL     1      43.756   2.708  12.227  0.00  0.00    +0.000 C 
ATOM     32  N   UNL     1      42.742   3.460  11.479  0.00  0.00    +0.000 NA
ATOM     33  H   UNL     1      42.142   3.963  12.140  0.00  0.00    +0.000 HD
ENDBRANCH  25  28
ENDBRANCH  23  24
ENDBRANCH   4  23
TORSDOF 6
ENDMDL
MODEL 4
REMARK VINA RESULT:    -7.006      2.007      3.453
REMARK INTER + INTRA:         -10.441
REMARK INTER:                  -9.431
REMARK INTRA:                  -1.010
REMARK UNBOUND:                -0.977
REMARK  Name = 
REMARK  6 active torsions:
REMARK  status: ('A' for Active; 'I' for Inactive)
REMARK    1  A    between atoms: C_2  and  C_20
REMARK    2  A    between atoms: N_3  and  C_4
REMARK    3  A    between atoms: C_4  and  C_5
REMARK    4  A    between atoms: C_8  and  C_9
REMARK    5  A    between atoms: C_9  and  N_10
REMARK    6  A    between atoms: C_11  and  C_13
REMARK                            x       y       z     vdW  Elec       q    Type
REMARK                         _______ _______ _______ _____ _____    ______ ____
ROOT
ATOM      1  C   UNL     1      47.030   4.176  14.380  0.00  0.00    +0.000 A 
ATOM      2  C   UNL     1      47.224   5.543  14.138  0.00  0.00    +0.000 A 
ATOM      3  C   UNL     1      46.691   6.150  12.994  0.00  0.00    +0.000 A 
ATOM      4  C   UNL     1      45.932   5.409  12.079  0.00  0.00    +0.000 A 
ATOM      5  C   UNL     1      45.729   4.045  12.327  0.00  0.00    +0.000 A 
ATOM      6  C   UNL     1      46.261   3.438  13.471  0.00  0.00    +0.000 A 
ENDROOT
BRANCH   1   7
ATOM      7  C   UNL     1      47.641   3.514  15.589  0.00  0.00    +0.000 C 
BRANCH   7  10
ATOM      8  O   UNL     1      49.183   2.845  17.779  0.00  0.00    +0.000 OA
ATOM      9  C   UNL     1      49.007   4.038  17.543  0.00  0.00    +0.000 C 
ATOM     10  N   UNL     1      48.181   4.463  16.530  0.00  0.00    +0.000 N 
ATOM     11  H   UNL     1      48.213   5.435  16.238  0.00  0.00    +0.000 HD
BRANCH   9  12
ATOM     12  C   UNL     1      49.658   5.075  18.353  0.00  0.00    +0.000 A 
ATOM     13  C   UNL     1      51.045   5.147  18.399  0.00  0.00    +0.000 A 
ATOM     14  S   UNL     1      51.631   6.423  19.368  0.00  0.00    +0.000 S 
ATOM     15  C   UNL     1      50.053   6.953  19.720  0.00  0.00    +0.000 A 
ATOM     16  N   UNL     1      49.840   8.059  20.483  0.00  0.00    +0.000 NA
ATOM     17  C   UNL     1      48.595   8.369  20.634  0.00  0.00    +0.000 A 
ATOM     18  N   UNL     1      47.544   7.666  20.106  0.00  0.00    +0.000 N 
ATOM     19  C   UNL     1      47.710   6.515  19.371  0.00  0.00    +0.000 A 
ATOM     20  O   UNL     1      46.746   5.867  18.977  0.00  0.00    +0.000 OA
ATOM     21  C   UNL     1      49.092   6.144  19.138  0.00  0.00    +0.000 A 
ATOM     22  H   UNL     1      46.592   7.949  20.280  0.00  0.00    +0.000 HD
ENDBRANCH   9  12
ENDBRANCH   7  10
ENDBRANCH   1   7
BRANCH   4  23
ATOM     23  C   UNL     1      45.340   6.064  10.857  0.00  0.00    +0.000 C 
BRANCH  23  24
ATOM     24  N   UNL     1      44.825   5.101   9.911  0.00  0.00    +0.000 N 
ATOM     25  C   UNL     1      45.528   4.808   8.760  0.00  0.00    +0.000 C 
ATOM     26  O   UNL     1      46.607   5.336   8.490  0.00  0.00    +0.000 OA
ATOM     27  H   UNL     1      44.048   4.516  10.189  0.00  0.00    +0.000 HD
BRANCH  25  28
ATOM     28  C   UNL     1      44.867   3.744   7.852  0.00  0.00    +0.000 C 
ATOM     29  C   UNL     1      45.853   3.083   6.905  0.00  0.00    +0.000 C 
ATOM     30  C   UNL     1      46.513   2.025   7.770  0.00  0.00    +0.000 C 
ATOM     31  C   UNL     1      45.453   1.642   8.791  0.00  0.00    +0.000 C 
ATOM     32  N   UNL     1      44.356   2.604   8.645  0.00  0.00    +0.000 NA
ATOM     33  H   UNL     1      44.084   2.947   9.572  0.00  0.00    +0.000 HD
ENDBRANCH  25  28
ENDBRANCH  23  24
ENDBRANCH   4  23
TORSDOF 6
ENDMDL
MODEL 5
REMARK VINA RESULT:    -6.987      3.045      4.052
REMARK INTER + INTRA:         -10.415
REMARK INTER:                  -9.537
REMARK INTRA:                  -0.878
REMARK UNBOUND:                -0.977
REMARK  Name = 
REMARK  6 active torsions:
REMARK  status: ('A' for Active; 'I' for Inactive)
REMARK    1  A    between atoms: C_2  and  C_20
REMARK    2  A    between atoms: N_3  and  C_4
REMARK    3  A    between atoms: C_4  and  C_5
REMARK    4  A    between atoms: C_8  and  C_9
REMARK    5  A    between atoms: C_9  and  N_10
REMARK    6  A    between atoms: C_11  and  C_13
REMARK                            x       y       z     vdW  Elec       q    Type
REMARK                         _______ _______ _______ _____ _____    ______ ____
ROOT
ATOM      1  C   UNL     1      46.140   4.176  13.261  0.00  0.00    +0.000 A 
ATOM      2  C   UNL     1      45.534   3.090  12.613  0.00  0.00    +0.000 A 
ATOM      3  C   UNL     1      44.878   3.262  11.389  0.00  0.00    +0.000 A 
ATOM      4  C   UNL     1      44.833   4.520  10.772  0.00  0.00    +0.000 A 
ATOM      5  C   UNL     1      45.448   5.602  11.414  0.00  0.00    +0.000 A 
ATOM      6  C   UNL     1      46.105   5.430  12.638  0.00  0.00    +0.000 A 
ENDROOT
BRANCH   1   7
ATOM      7  C   UNL     1      46.809   3.998  14.600  0.00  0.00    +0.000 C 
BRANCH   7  10
ATOM      8  O   UNL     1      48.769   4.196  16.534  0.00  0.00    +0.000 OA
ATOM      9  C   UNL     1      48.332   5.237  16.049  0.00  0.00    +0.000 C 
ATOM     10  N   UNL     1      47.294   5.240  15.148  0.00  0.00    +0.000 N 
ATOM     11  H   UNL     1      47.094   6.086  14.624  0.00  0.00    +0.000 HD
BRANCH   9  12
ATOM     12  C   UNL     1      48.889   6.541  16.429  0.00  0.00    +0.000 A 
ATOM     13  C   UNL     1      48.911   6.922  17.765  0.00  0.00    +0.000 A 
ATOM     14  S   UNL     1      49.612   8.454  18.029  0.00  0.00    +0.000 S 
ATOM     15  C   UNL     1      49.956   8.643  16.373  0.00  0.00    +0.000 A 
ATOM     16  N   UNL     1      50.609   9.743  15.915  0.00  0.00    +0.000 NA
ATOM     17  C   UNL     1      50.840   9.734  14.644  0.00  0.00    +0.000 A 
ATOM     18  N   UNL     1      50.462   8.733  13.788  0.00  0.00    +0.000 N 
ATOM     19  C   UNL     1      49.757   7.626  14.198  0.00  0.00    +0.000 A 
ATOM     20  O   UNL     1      49.367   6.785  13.395  0.00  0.00    +0.000 OA
ATOM     21  C   UNL     1      49.506   7.568  15.625  0.00  0.00    +0.000 A 
ATOM     22  H   UNL     1      50.654   8.797  12.800  0.00  0.00    +0.000 HD
ENDBRANCH   9  12
ENDBRANCH   7  10
ENDBRANCH   1   7
BRANCH   4  23
ATOM     23  C   UNL     1      44.144   4.705   9.443  0.00  0.00    +0.000 C 
BRANCH  23  24
ATOM     24  N   UNL     1      44.435   3.633   8.519  0.00  0.00    +0.000 N 
ATOM     25  C   UNL     1      45.539   3.703   7.694  0.00  0.00    +0.000 C 
ATOM     26  O   UNL     1      46.317   4.657   7.708  0.00  0.00    +0.000 OA
ATOM     27  H   UNL     1      43.932   2.760   8.615  0.00  0.00    +0.000 HD
BRANCH  25  28
ATOM     28  C   UNL     1      45.736   2.475   6.773  0.00  0.00    +0.000 C 
ATOM     29  C   UNL     1      46.711   2.741   5.639  0.00  0.00    +0.000 C 
ATOM     30  C   UNL     1      48.068   2.547   6.292  0.00  0.00    +0.000 C 
ATOM     31  C   UNL     1      47.824   1.531   7.398  0.00  0.00    +0.000 C 
ATOM     32  N   UNL     1      46.372   1.355   7.500  0.00  0.00    +0.000 NA
ATOM     33  H   UNL     1      46.096   1.407   8.486  0.00  0.00    +0.000 HD
ENDBRANCH  25  28
ENDBRANCH  23  24
ENDBRANCH   4  23
TORSDOF 6
ENDMDL
MODEL 6
REMARK VINA RESULT:    -6.808      3.651      8.942
REMARK INTER + INTRA:         -10.173
REMARK INTER:                  -9.024
REMARK INTRA:                  -1.149
REMARK UNBOUND:                -0.977
REMARK  Name = 
REMARK  6 active torsions:
REMARK  status: ('A' for Active; 'I' for Inactive)
REMARK    1  A    between atoms: C_2  and  C_20
REMARK    2  A    between atoms: N_3  and  C_4
REMARK    3  A    between atoms: C_4  and  C_5
REMARK    4  A    between atoms: C_8  and  C_9
REMARK    5  A    between atoms: C_9  and  N_10
REMARK    6  A    between atoms: C_11  and  C_13
REMARK                            x       y       z     vdW  Elec       q    Type
REMARK                         _______ _______ _______ _____ _____    ______ ____
ROOT
ATOM      1  C   UNL     1      48.954   7.926  13.177  0.00  0.00    +0.000 A 
ATOM      2  C   UNL     1      50.350   8.001  13.287  0.00  0.00    +0.000 A 
ATOM      3  C   UNL     1      50.978   7.881  14.531  0.00  0.00    +0.000 A 
ATOM      4  C   UNL     1      50.227   7.658  15.693  0.00  0.00    +0.000 A 
ATOM      5  C   UNL     1      48.833   7.573  15.583  0.00  0.00    +0.000 A 
ATOM      6  C   UNL     1      48.205   7.692  14.337  0.00  0.00    +0.000 A 
ENDROOT
BRANCH   1   7
ATOM      7  C   UNL     1      48.275   8.100  11.843  0.00  0.00    +0.000 C 
BRANCH   7  10
ATOM      8  O   UNL     1      45.531   7.803  11.832  0.00  0.00    +0.000 OA
ATOM      9  C   UNL     1      46.210   6.890  11.366  0.00  0.00    +0.000 C 
ATOM     10  N   UNL     1      47.583   6.911  11.412  0.00  0.00    +0.000 N 
ATOM     11  H   UNL     1      48.109   6.249  10.849  0.00  0.00    +0.000 HD
BRANCH   9  12
ATOM     12  C   UNL     1      45.580   5.715  10.754  0.00  0.00    +0.000 A 
ATOM     13  C   UNL     1      45.773   5.451   9.403  0.00  0.00    +0.000 A 
ATOM     14  S   UNL     1      44.989   4.035   8.864  0.00  0.00    +0.000 S 
ATOM     15  C   UNL     1      44.404   3.698  10.426  0.00  0.00    +0.000 A 
ATOM     16  N   UNL     1      43.678   2.575  10.675  0.00  0.00    +0.000 NA
ATOM     17  C   UNL     1      43.336   2.426  11.911  0.00  0.00    +0.000 A 
ATOM     18  N   UNL     1      43.639   3.305  12.918  0.00  0.00    +0.000 N 
ATOM     19  C   UNL     1      44.327   4.477  12.705  0.00  0.00    +0.000 A 
ATOM     20  O   UNL     1      44.516   5.279  13.613  0.00  0.00    +0.000 OA
ATOM     21  C   UNL     1      44.770   4.674  11.338  0.00  0.00    +0.000 A 
ATOM     22  H   UNL     1      43.322   3.141  13.861  0.00  0.00    +0.000 HD
ENDBRANCH   9  12
ENDBRANCH   7  10
ENDBRANCH   1   7
BRANCH   4  23
ATOM     23  C   UNL     1      50.902   7.508  17.033  0.00  0.00    +0.000 C 
BRANCH  23  24
ATOM     24  N   UNL     1      50.161   6.652  17.930  0.00  0.00    +0.000 N 
ATOM     25  C   UNL     1      50.329   5.283  17.887  0.00  0.00    +0.000 C 
ATOM     26  O   UNL     1      51.105   4.735  17.103  0.00  0.00    +0.000 OA
ATOM     27  H   UNL     1      49.666   7.074  18.705  0.00  0.00    +0.000 HD
BRANCH  25  28
ATOM     28  C   UNL     1      49.486   4.495  18.919  0.00  0.00    +0.000 C 
ATOM     29  C   UNL     1      48.108   5.095  19.134  0.00  0.00    +0.000 C 
ATOM     30  C   UNL     1      47.303   4.550  17.968  0.00  0.00    +0.000 C 
ATOM     31  C   UNL     1      47.947   3.211  17.645  0.00  0.00    +0.000 C 
ATOM     32  N   UNL     1      49.181   3.132  18.433  0.00  0.00    +0.000 NA
ATOM     33  H   UNL     1      49.947   2.822  17.826  0.00  0.00    +0.000 HD
ENDBRANCH  25  28
ENDBRANCH  23  24
ENDBRANCH   4  23
TORSDOF 6
ENDMDL
MODEL 7
REMARK VINA RESULT:    -6.799      3.607      9.444
REMARK INTER + INTRA:         -10.161
REMARK INTER:                  -9.151
REMARK INTRA:                  -1.010
REMARK UNBOUND:                -0.977
REMARK  Name = 
REMARK  6 active torsions:
REMARK  status: ('A' for Active; 'I' for Inactive)
REMARK    1  A    between atoms: C_2  and  C_20
REMARK    2  A    between atoms: N_3  and  C_4
REMARK    3  A    between atoms: C_4  and  C_5
REMARK    4  A    between atoms: C_8  and  C_9
REMARK    5  A    between atoms: C_9  and  N_10
REMARK    6  A    between atoms: C_11  and  C_13
REMARK                            x       y       z     vdW  Elec       q    Type
REMARK                         _______ _______ _______ _____ _____    ______ ____
ROOT
ATOM      1  C   UNL     1      48.672   3.367  17.118  0.00  0.00    +0.000 A 
ATOM      2  C   UNL     1      49.427   2.193  16.985  0.00  0.00    +0.000 A 
ATOM      3  C   UNL     1      50.792   2.181  17.295  0.00  0.00    +0.000 A 
ATOM      4  C   UNL     1      51.428   3.336  17.769  0.00  0.00    +0.000 A 
ATOM      5  C   UNL     1      50.671   4.506  17.913  0.00  0.00    +0.000 A 
ATOM      6  C   UNL     1      49.306   4.518  17.604  0.00  0.00    +0.000 A 
ENDROOT
BRANCH   1   7
ATOM      7  C   UNL     1      47.212   3.391  16.742  0.00  0.00    +0.000 C 
BRANCH   7  10
ATOM      8  O   UNL     1      47.237   3.160  13.992  0.00  0.00    +0.000 OA
ATOM      9  C   UNL     1      46.852   4.221  14.476  0.00  0.00    +0.000 C 
ATOM     10  N   UNL     1      46.891   4.459  15.829  0.00  0.00    +0.000 N 
ATOM     11  H   UNL     1      46.387   5.255  16.208  0.00  0.00    +0.000 HD
BRANCH   9  12
ATOM     12  C   UNL     1      46.347   5.304  13.622  0.00  0.00    +0.000 A 
ATOM     13  C   UNL     1      47.151   6.405  13.354  0.00  0.00    +0.000 A 
ATOM     14  S   UNL     1      46.417   7.554  12.329  0.00  0.00    +0.000 S 
ATOM     15  C   UNL     1      45.019   6.598  12.167  0.00  0.00    +0.000 A 
ATOM     16  N   UNL     1      43.991   6.990  11.368  0.00  0.00    +0.000 NA
ATOM     17  C   UNL     1      43.013   6.148  11.307  0.00  0.00    +0.000 A 
ATOM     18  N   UNL     1      42.963   4.958  11.985  0.00  0.00    +0.000 N 
ATOM     19  C   UNL     1      43.954   4.544  12.843  0.00  0.00    +0.000 A 
ATOM     20  O   UNL     1      43.845   3.511  13.493  0.00  0.00    +0.000 OA
ATOM     21  C   UNL     1      45.096   5.436  12.917  0.00  0.00    +0.000 A 
ATOM     22  H   UNL     1      42.158   4.354  11.911  0.00  0.00    +0.000 HD
ENDBRANCH   9  12
ENDBRANCH   7  10
ENDBRANCH   1   7
BRANCH   4  23
ATOM     23  C   UNL     1      52.894   3.321  18.123  0.00  0.00    +0.000 C 
BRANCH  23  24
ATOM     24  N   UNL     1      53.657   4.274  17.350  0.00  0.00    +0.000 N 
ATOM     25  C   UNL     1      54.138   5.425  17.939  0.00  0.00    +0.000 C 
ATOM     26  O   UNL     1      53.950   5.690  19.127  0.00  0.00    +0.000 OA
ATOM     27  H   UNL     1      53.988   4.001  16.434  0.00  0.00    +0.000 HD
BRANCH  25  28
ATOM     28  C   UNL     1      54.954   6.342  16.996  0.00  0.00    +0.000 C 
ATOM     29  C   UNL     1      54.442   6.322  15.567  0.00  0.00    +0.000 C 
ATOM     30  C   UNL     1      53.274   7.291  15.601  0.00  0.00    +0.000 C 
ATOM     31  C   UNL     1      53.631   8.290  16.690  0.00  0.00    +0.000 C 
ATOM     32  N   UNL     1      54.814   7.764  17.378  0.00  0.00    +0.000 NA
ATOM     33  H   UNL     1      54.666   7.818  18.391  0.00  0.00    +0.000 HD
ENDBRANCH  25  28
ENDBRANCH  23  24
ENDBRANCH   4  23
TORSDOF 6
ENDMDL
MODEL 8
REMARK VINA RESULT:    -6.773      3.599      9.612
REMARK INTER + INTRA:         -10.125
REMARK INTER:                  -9.385
REMARK INTRA:                  -0.741
REMARK UNBOUND:                -0.977
REMARK  Name = 
REMARK  6 active torsions:
REMARK  status: ('A' for Active; 'I' for Inactive)
REMARK    1  A    between atoms: C_2  and  C_20
REMARK    2  A    between atoms: N_3  and  C_4
REMARK    3  A    between atoms: C_4  and  C_5
REMARK    4  A    between atoms: C_8  and  C_9
REMARK    5  A    between atoms: C_9  and  N_10
REMARK    6  A    between atoms: C_11  and  C_13
REMARK                            x       y       z     vdW  Elec       q    Type
REMARK                         _______ _______ _______ _____ _____    ______ ____
ROOT
ATOM      1  C   UNL     1      48.702   3.609  17.048  0.00  0.00    +0.000 A 
ATOM      2  C   UNL     1      49.602   2.534  17.080  0.00  0.00    +0.000 A 
ATOM      3  C   UNL     1      50.938   2.729  17.446  0.00  0.00    +0.000 A 
ATOM      4  C   UNL     1      51.402   4.000  17.812  0.00  0.00    +0.000 A 
ATOM      5  C   UNL     1      50.500   5.073  17.790  0.00  0.00    +0.000 A 
ATOM      6  C   UNL     1      49.163   4.877  17.425  0.00  0.00    +0.000 A 
ENDROOT
BRANCH   1   7
ATOM      7  C   UNL     1      47.274   3.406  16.611  0.00  0.00    +0.000 C 
BRANCH   7  10
ATOM      8  O   UNL     1      47.276   3.211  13.857  0.00  0.00    +0.000 OA
ATOM      9  C   UNL     1      46.778   4.215  14.362  0.00  0.00    +0.000 C 
ATOM     10  N   UNL     1      46.813   4.440  15.717  0.00  0.00    +0.000 N 
ATOM     11  H   UNL     1      46.227   5.167  16.115  0.00  0.00    +0.000 HD
BRANCH   9  12
ATOM     12  C   UNL     1      46.136   5.241  13.531  0.00  0.00    +0.000 A 
ATOM     13  C   UNL     1      46.824   6.406  13.215  0.00  0.00    +0.000 A 
ATOM     14  S   UNL     1      45.938   7.476  12.225  0.00  0.00    +0.000 S 
ATOM     15  C   UNL     1      44.623   6.399  12.144  0.00  0.00    +0.000 A 
ATOM     16  N   UNL     1      43.524   6.691  11.399  0.00  0.00    +0.000 NA
ATOM     17  C   UNL     1      42.622   5.766  11.395  0.00  0.00    +0.000 A 
ATOM     18  N   UNL     1      42.712   4.583  12.082  0.00  0.00    +0.000 N 
ATOM     19  C   UNL     1      43.781   4.267  12.886  0.00  0.00    +0.000 A 
ATOM     20  O   UNL     1      43.798   3.234  13.547  0.00  0.00    +0.000 OA
ATOM     21  C   UNL     1      44.842   5.256  12.895  0.00  0.00    +0.000 A 
ATOM     22  H   UNL     1      41.961   3.911  12.054  0.00  0.00    +0.000 HD
ENDBRANCH   9  12
ENDBRANCH   7  10
ENDBRANCH   1   7
BRANCH   4  23
ATOM     23  C   UNL     1      52.836   4.210  18.226  0.00  0.00    +0.000 C 
BRANCH  23  24
ATOM     24  N   UNL     1      53.554   2.965  18.374  0.00  0.00    +0.000 N 
ATOM     25  C   UNL     1      54.773   2.784  17.753  0.00  0.00    +0.000 C 
ATOM     26  O   UNL     1      55.301   3.657  17.062  0.00  0.00    +0.000 OA
ATOM     27  H   UNL     1      53.245   2.308  19.078  0.00  0.00    +0.000 HD
BRANCH  25  28
ATOM     28  C   UNL     1      55.436   1.411  18.016  0.00  0.00    +0.000 C 
ATOM     29  C   UNL     1      54.566   0.488  18.851  0.00  0.00    +0.000 C 
ATOM     30  C   UNL     1      53.604  -0.101  17.835  0.00  0.00    +0.000 C 
ATOM     31  C   UNL     1      54.379  -0.108  16.526  0.00  0.00    +0.000 C 
ATOM     32  N   UNL     1      55.613   0.651  16.759  0.00  0.00    +0.000 NA
ATOM     33  H   UNL     1      55.747   1.317  15.991  0.00  0.00    +0.000 HD
ENDBRANCH  25  28
ENDBRANCH  23  24
ENDBRANCH   4  23
TORSDOF 6
ENDMDL
MODEL 9
REMARK VINA RESULT:    -6.740      3.427      9.175
REMARK INTER + INTRA:         -10.081
REMARK INTER:                  -9.184
REMARK INTRA:                  -0.897
REMARK UNBOUND:                -0.977
REMARK  Name = 
REMARK  6 active torsions:
REMARK  status: ('A' for Active; 'I' for Inactive)
REMARK    1  A    between atoms: C_2  and  C_20
REMARK    2  A    between atoms: N_3  and  C_4
REMARK    3  A    between atoms: C_4  and  C_5
REMARK    4  A    between atoms: C_8  and  C_9
REMARK    5  A    between atoms: C_9  and  N_10
REMARK    6  A    between atoms: C_11  and  C_13
REMARK                            x       y       z     vdW  Elec       q    Type
REMARK                         _______ _______ _______ _____ _____    ______ ____
ROOT
ATOM      1  C   UNL     1      49.557   6.523  16.259  0.00  0.00    +0.000 A 
ATOM      2  C   UNL     1      48.630   5.557  16.677  0.00  0.00    +0.000 A 
ATOM      3  C   UNL     1      49.052   4.402  17.345  0.00  0.00    +0.000 A 
ATOM      4  C   UNL     1      50.409   4.196  17.631  0.00  0.00    +0.000 A 
ATOM      5  C   UNL     1      51.333   5.166  17.222  0.00  0.00    +0.000 A 
ATOM      6  C   UNL     1      50.911   6.322  16.555  0.00  0.00    +0.000 A 
ENDROOT
BRANCH   1   7
ATOM      7  C   UNL     1      49.106   7.746  15.501  0.00  0.00    +0.000 C 
BRANCH   7  10
ATOM      8  O   UNL     1      49.053   6.499  13.038  0.00  0.00    +0.000 OA
ATOM      9  C   UNL     1      47.980   6.808  13.549  0.00  0.00    +0.000 C 
ATOM     10  N   UNL     1      47.912   7.512  14.727  0.00  0.00    +0.000 N 
ATOM     11  H   UNL     1      47.025   7.576  15.218  0.00  0.00    +0.000 HD
BRANCH   9  12
ATOM     12  C   UNL     1      46.707   6.457  12.907  0.00  0.00    +0.000 A 
ATOM     13  C   UNL     1      45.951   7.442  12.284  0.00  0.00    +0.000 A 
ATOM     14  S   UNL     1      44.516   6.856  11.572  0.00  0.00    +0.000 S 
ATOM     15  C   UNL     1      44.878   5.258  12.028  0.00  0.00    +0.000 A 
ATOM     16  N   UNL     1      44.061   4.228  11.681  0.00  0.00    +0.000 NA
ATOM     17  C   UNL     1      44.479   3.065  12.057  0.00  0.00    +0.000 A 
ATOM     18  N   UNL     1      45.632   2.841  12.764  0.00  0.00    +0.000 N 
ATOM     19  C   UNL     1      46.462   3.854  13.180  0.00  0.00    +0.000 A 
ATOM     20  O   UNL     1      47.446   3.627  13.876  0.00  0.00    +0.000 OA
ATOM     21  C   UNL     1      46.058   5.178  12.749  0.00  0.00    +0.000 A 
ATOM     22  H   UNL     1      45.891   1.908  13.047  0.00  0.00    +0.000 HD
ENDBRANCH   9  12
ENDBRANCH   7  10
ENDBRANCH   1   7
BRANCH   4  23
ATOM     23  C   UNL     1      50.864   2.962  18.368  0.00  0.00    +0.000 C 
BRANCH  23  24
ATOM     24  N   UNL     1      52.111   2.443  17.854  0.00  0.00    +0.000 N 
ATOM     25  C   UNL     1      52.309   1.082  17.746  0.00  0.00    +0.000 C 
ATOM     26  O   UNL     1      51.451   0.260  18.070  0.00  0.00    +0.000 OA
ATOM     27  H   UNL     1      52.755   3.083  17.406  0.00  0.00    +0.000 HD
BRANCH  25  28
ATOM     28  C   UNL     1      53.682   0.673  17.160  0.00  0.00    +0.000 C 
ATOM     29  C   UNL     1      54.833   1.473  17.745  0.00  0.00    +0.000 C 
ATOM     30  C   UNL     1      55.115   0.770  19.060  0.00  0.00    +0.000 C 
ATOM     31  C   UNL     1      54.712  -0.677  18.821  0.00  0.00    +0.000 C 
ATOM     32  N   UNL     1      54.027  -0.719  17.525  0.00  0.00    +0.000 NA
ATOM     33  H   UNL     1      53.160  -1.256  17.620  0.00  0.00    +0.000 HD
ENDBRANCH  25  28
ENDBRANCH  23  24
ENDBRANCH   4  23
TORSDOF 6
ENDMDL
