MODEL 1
REMARK VINA RESULT:    -8.320      0.000      0.000
REMARK INTER + INTRA:         -11.651
REMARK INTER:                 -10.752
REMARK INTRA:                  -0.899
REMARK UNBOUND:                -0.899
REMARK  Name = 
REMARK  5 active torsions:
REMARK  status: ('A' for Active; 'I' for Inactive)
REMARK    1  A    between atoms: C_2  and  C_20
REMARK    2  A    between atoms: N_3  and  C_4
REMARK    3  A    between atoms: C_4  and  C_5
REMARK    4  A    between atoms: C_8  and  C_9
REMARK    5  A    between atoms: C_9  and  C_12
REMARK                            x       y       z     vdW  Elec       q    Type
REMARK                         _______ _______ _______ _____ _____    ______ ____
ROOT
ATOM      1  C   UNL     1      47.763   7.388  14.049  0.00  0.00    +0.000 C 
ENDROOT
BRANCH   1   2
ATOM      2  C   UNL     1      46.956   6.528  13.106  0.00  0.00    +0.000 A 
ATOM      3  C   UNL     1      46.573   5.225  13.457  0.00  0.00    +0.000 A 
ATOM      4  C   UNL     1      45.780   4.460  12.592  0.00  0.00    +0.000 A 
ATOM      5  C   UNL     1      45.356   4.983  11.359  0.00  0.00    +0.000 A 
ATOM      6  C   UNL     1      45.808   6.257  10.980  0.00  0.00    +0.000 A 
ATOM      7  C   UNL     1      46.603   7.017  11.842  0.00  0.00    +0.000 A 
BRANCH   5   8
ATOM      8  C   UNL     1      44.348   4.227  10.489  0.00  0.00    +0.000 C 
ATOM      9  F   UNL     1      43.646   3.326  11.263  0.00  0.00    +0.000 F 
ATOM     10  F   UNL     1      43.362   5.095  10.066  0.00  0.00    +0.000 F 
BRANCH   8  11
ATOM     11  C   UNL     1      45.014   3.518   9.286  0.00  0.00    +0.000 A 
ATOM     12  N   UNL     1      45.416   4.282   8.236  0.00  0.00    +0.000 NA
ATOM     13  C   UNL     1      46.121   3.661   7.268  0.00  0.00    +0.000 A 
ATOM     14  C   UNL     1      46.435   2.326   7.294  0.00  0.00    +0.000 A 
ATOM     15  C   UNL     1      45.962   1.628   8.376  0.00  0.00    +0.000 A 
ATOM     16  N   UNL     1      45.251   2.188   9.372  0.00  0.00    +0.000 NA
ENDBRANCH   8  11
ENDBRANCH   5   8
ENDBRANCH   1   2
BRANCH   1  19
ATOM     17  O   UNL     1      48.495   8.262  16.687  0.00  0.00    +0.000 OA
ATOM     18  C   UNL     1      48.710   7.115  16.315  0.00  0.00    +0.000 C 
ATOM     19  N   UNL     1      48.281   6.582  15.120  0.00  0.00    +0.000 N 
ATOM     20  H   UNL     1      48.673   5.699  14.835  0.00  0.00    +0.000 HD
BRANCH  18  21
ATOM     21  C   UNL     1      49.622   6.210  17.001  0.00  0.00    +0.000 A 
ATOM     22  C   UNL     1      50.862   6.613  17.463  0.00  0.00    +0.000 A 
ATOM     23  S   UNL     1      51.902   5.277  17.740  0.00  0.00    +0.000 S 
ATOM     24  C   UNL     1      50.667   4.162  17.369  0.00  0.00    +0.000 A 
ATOM     25  N   UNL     1      50.894   2.825  17.271  0.00  0.00    +0.000 NA
ATOM     26  C   UNL     1      49.834   2.124  17.030  0.00  0.00    +0.000 A 
ATOM     27  N   UNL     1      48.560   2.629  16.928  0.00  0.00    +0.000 N 
ATOM     28  C   UNL     1      48.280   3.971  17.032  0.00  0.00    +0.000 A 
ATOM     29  O   UNL     1      47.131   4.396  17.010  0.00  0.00    +0.000 OA
ATOM     30  C   UNL     1      49.458   4.797  17.177  0.00  0.00    +0.000 A 
ATOM     31  H   UNL     1      47.764   2.017  16.828  0.00  0.00    +0.000 HD
ENDBRANCH  18  21
ENDBRANCH   1  19
TORSDOF 5
ENDMDL
MODEL 2
REMARK VINA RESULT:    -7.975      1.652      2.046
REMARK INTER + INTRA:         -11.205
REMARK INTER:                 -10.169
REMARK INTRA:                  -1.036
REMARK UNBOUND:                -0.899
REMARK  Name = 
REMARK  5 active torsions:
REMARK  status: ('A' for Active; 'I' for Inactive)
REMARK    1  A    between atoms: C_2  and  C_20
REMARK    2  A    between atoms: N_3  and  C_4
REMARK    3  A    between atoms: C_4  and  C_5
REMARK    4  A    between atoms: C_8  and  C_9
REMARK    5  A    between atoms: C_9  and  C_12
REMARK                            x       y       z     vdW  Elec       q    Type
REMARK                         _______ _______ _______ _____ _____    ______ ____
ROOT
ATOM      1  C   UNL     1      48.519   6.874  13.684  0.00  0.00    +0.000 C 
ENDROOT
BRANCH   1   2
ATOM      2  C   UNL     1      47.361   6.250  12.942  0.00  0.00    +0.000 A 
ATOM      3  C   UNL     1      46.756   6.903  11.857  0.00  0.00    +0.000 A 
ATOM      4  C   UNL     1      45.718   6.287  11.147  0.00  0.00    +0.000 A 
ATOM      5  C   UNL     1      45.264   5.007  11.509  0.00  0.00    +0.000 A 
ATOM      6  C   UNL     1      45.820   4.394  12.643  0.00  0.00    +0.000 A 
ATOM      7  C   UNL     1      46.852   5.012  13.353  0.00  0.00    +0.000 A 
BRANCH   5   8
ATOM      8  C   UNL     1      44.257   4.254  10.635  0.00  0.00    +0.000 C 
ATOM      9  F   UNL     1      43.560   3.346  11.405  0.00  0.00    +0.000 F 
ATOM     10  F   UNL     1      43.267   5.120  10.219  0.00  0.00    +0.000 F 
BRANCH   8  11
ATOM     11  C   UNL     1      44.923   3.555   9.427  0.00  0.00    +0.000 A 
ATOM     12  N   UNL     1      45.354   4.330   8.397  0.00  0.00    +0.000 NA
ATOM     13  C   UNL     1      46.059   3.714   7.425  0.00  0.00    +0.000 A 
ATOM     14  C   UNL     1      46.346   2.373   7.429  0.00  0.00    +0.000 A 
ATOM     15  C   UNL     1      45.845   1.664   8.491  0.00  0.00    +0.000 A 
ATOM     16  N   UNL     1      45.133   2.219   9.490  0.00  0.00    +0.000 NA
ENDBRANCH   8  11
ENDBRANCH   5   8
ENDBRANCH   1   2
BRANCH   1  19
ATOM     17  O   UNL     1      50.249   7.573  15.869  0.00  0.00    +0.000 OA
ATOM     18  C   UNL     1      49.057   7.356  16.047  0.00  0.00    +0.000 C 
ATOM     19  N   UNL     1      48.139   7.139  15.045  0.00  0.00    +0.000 N 
ATOM     20  H   UNL     1      47.233   6.784  15.309  0.00  0.00    +0.000 HD
BRANCH  18  21
ATOM     21  C   UNL     1      48.478   7.099  17.360  0.00  0.00    +0.000 A 
ATOM     22  C   UNL     1      48.066   8.115  18.202  0.00  0.00    +0.000 A 
ATOM     23  S   UNL     1      47.928   7.578  19.826  0.00  0.00    +0.000 S 
ATOM     24  C   UNL     1      48.291   5.971  19.387  0.00  0.00    +0.000 A 
ATOM     25  N   UNL     1      48.481   4.987  20.307  0.00  0.00    +0.000 NA
ATOM     26  C   UNL     1      48.701   3.819  19.796  0.00  0.00    +0.000 A 
ATOM     27  N   UNL     1      48.699   3.534  18.451  0.00  0.00    +0.000 N 
ATOM     28  C   UNL     1      48.501   4.491  17.486  0.00  0.00    +0.000 A 
ATOM     29  O   UNL     1      48.432   4.208  16.296  0.00  0.00    +0.000 OA
ATOM     30  C   UNL     1      48.377   5.831  18.019  0.00  0.00    +0.000 A 
ATOM     31  H   UNL     1      48.789   2.584  18.122  0.00  0.00    +0.000 HD
ENDBRANCH  18  21
ENDBRANCH   1  19
TORSDOF 5
ENDMDL
MODEL 3
REMARK VINA RESULT:    -7.795      3.859      8.320
REMARK INTER + INTRA:         -10.973
REMARK INTER:                  -9.956
REMARK INTRA:                  -1.017
REMARK UNBOUND:                -0.899
REMARK  Name = 
REMARK  5 active torsions:
REMARK  status: ('A' for Active; 'I' for Inactive)
REMARK    1  A    between atoms: C_2  and  C_20
REMARK    2  A    between atoms: N_3  and  C_4
REMARK    3  A    between atoms: C_4  and  C_5
REMARK    4  A    between atoms: C_8  and  C_9
REMARK    5  A    between atoms: C_9  and  C_12
REMARK                            x       y       z     vdW  Elec       q    Type
REMARK                         _______ _______ _______ _____ _____    ______ ____
ROOT
ATOM      1  C   UNL     1      47.310   6.989  12.363  0.00  0.00    +0.000 C 
ENDROOT
BRANCH   1   2
ATOM      2  C   UNL     1      47.674   6.348  13.682  0.00  0.00    +0.000 A 
ATOM      3  C   UNL     1      48.611   6.938  14.544  0.00  0.00    +0.000 A 
ATOM      4  C   UNL     1      48.898   6.358  15.786  0.00  0.00    +0.000 A 
ATOM      5  C   UNL     1      48.255   5.176  16.189  0.00  0.00    +0.000 A 
ATOM      6  C   UNL     1      47.378   4.549  15.289  0.00  0.00    +0.000 A 
ATOM      7  C   UNL     1      47.096   5.126  14.049  0.00  0.00    +0.000 A 
BRANCH   5   8
ATOM      8  C   UNL     1      48.426   4.632  17.610  0.00  0.00    +0.000 C 
ATOM      9  F   UNL     1      48.416   5.675  18.513  0.00  0.00    +0.000 F 
ATOM     10  F   UNL     1      47.305   3.912  17.967  0.00  0.00    +0.000 F 
BRANCH   8  11
ATOM     11  C   UNL     1      49.706   3.778  17.770  0.00  0.00    +0.000 A 
ATOM     12  N   UNL     1      49.745   2.564  17.161  0.00  0.00    +0.000 NA
ATOM     13  C   UNL     1      50.922   1.905  17.194  0.00  0.00    +0.000 A 
ATOM     14  C   UNL     1      52.049   2.391  17.806  0.00  0.00    +0.000 A 
ATOM     15  C   UNL     1      51.908   3.609  18.422  0.00  0.00    +0.000 A 
ATOM     16  N   UNL     1      50.761   4.315  18.427  0.00  0.00    +0.000 NA
ENDBRANCH   8  11
ENDBRANCH   5   8
ENDBRANCH   1   2
BRANCH   1  19
ATOM     17  O   UNL     1      44.563   7.345  11.602  0.00  0.00    +0.000 OA
ATOM     18  C   UNL     1      45.154   6.297  11.375  0.00  0.00    +0.000 C 
ATOM     19  N   UNL     1      46.497   6.089  11.593  0.00  0.00    +0.000 N 
ATOM     20  H   UNL     1      46.837   5.141  11.551  0.00  0.00    +0.000 HD
BRANCH  18  21
ATOM     21  C   UNL     1      44.475   5.055  11.027  0.00  0.00    +0.000 A 
ATOM     22  C   UNL     1      43.468   4.515  11.806  0.00  0.00    +0.000 A 
ATOM     23  S   UNL     1      43.226   2.851  11.467  0.00  0.00    +0.000 S 
ATOM     24  C   UNL     1      44.368   2.882  10.201  0.00  0.00    +0.000 A 
ATOM     25  N   UNL     1      44.770   1.757   9.552  0.00  0.00    +0.000 NA
ATOM     26  C   UNL     1      45.605   1.971   8.587  0.00  0.00    +0.000 A 
ATOM     27  N   UNL     1      46.038   3.210   8.180  0.00  0.00    +0.000 N 
ATOM     28  C   UNL     1      45.651   4.375   8.797  0.00  0.00    +0.000 A 
ATOM     29  O   UNL     1      45.989   5.475   8.377  0.00  0.00    +0.000 OA
ATOM     30  C   UNL     1      44.815   4.163   9.959  0.00  0.00    +0.000 A 
ATOM     31  H   UNL     1      46.621   3.315   7.362  0.00  0.00    +0.000 HD
ENDBRANCH  18  21
ENDBRANCH   1  19
TORSDOF 5
ENDMDL
MODEL 4
REMARK VINA RESULT:    -7.773      2.100      3.007
REMARK INTER + INTRA:         -10.945
REMARK INTER:                  -9.999
REMARK INTRA:                  -0.945
REMARK UNBOUND:                -0.899
REMARK  Name = 
REMARK  5 active torsions:
REMARK  status: ('A' for Active; 'I' for Inactive)
REMARK    1  A    between atoms: C_2  and  C_20
REMARK    2  A    between atoms: N_3  and  C_4
REMARK    3  A    between atoms: C_4  and  C_5
REMARK    4  A    between atoms: C_8  and  C_9
REMARK    5  A    between atoms: C_9  and  C_12
REMARK                            x       y       z     vdW  Elec       q    Type
REMARK                         _______ _______ _______ _____ _____    ______ ____
ROOT
ATOM      1  C   UNL     1      47.719   7.945  13.645  0.00  0.00    +0.000 C 
ENDROOT
BRANCH   1   2
ATOM      2  C   UNL     1      46.754   7.054  12.900  0.00  0.00    +0.000 A 
ATOM      3  C   UNL     1      45.865   7.578  11.949  0.00  0.00    +0.000 A 
ATOM      4  C   UNL     1      45.013   6.731  11.229  0.00  0.00    +0.000 A 
ATOM      5  C   UNL     1      45.033   5.344  11.446  0.00  0.00    +0.000 A 
ATOM      6  C   UNL     1      45.868   4.834  12.453  0.00  0.00    +0.000 A 
ATOM      7  C   UNL     1      46.714   5.681  13.175  0.00  0.00    +0.000 A 
BRANCH   5   8
ATOM      8  C   UNL     1      44.239   4.395  10.545  0.00  0.00    +0.000 C 
ATOM      9  F   UNL     1      43.606   3.441  11.314  0.00  0.00    +0.000 F 
ATOM     10  F   UNL     1      43.181   5.075   9.977  0.00  0.00    +0.000 F 
BRANCH   8  11
ATOM     11  C   UNL     1      45.117   3.732   9.458  0.00  0.00    +0.000 A 
ATOM     12  N   UNL     1      45.248   2.380   9.478  0.00  0.00    +0.000 NA
ATOM     13  C   UNL     1      45.897   1.816   8.438  0.00  0.00    +0.000 A 
ATOM     14  C   UNL     1      46.424   2.531   7.393  0.00  0.00    +0.000 A 
ATOM     15  C   UNL     1      46.272   3.893   7.472  0.00  0.00    +0.000 A 
ATOM     16  N   UNL     1      45.638   4.515   8.484  0.00  0.00    +0.000 NA
ENDBRANCH   8  11
ENDBRANCH   5   8
ENDBRANCH   1   2
BRANCH   1  19
ATOM     17  O   UNL     1      50.060   6.863  14.914  0.00  0.00    +0.000 OA
ATOM     18  C   UNL     1      48.978   6.887  15.490  0.00  0.00    +0.000 C 
ATOM     19  N   UNL     1      47.843   7.497  15.005  0.00  0.00    +0.000 N 
ATOM     20  H   UNL     1      46.970   7.294  15.466  0.00  0.00    +0.000 HD
BRANCH  18  21
ATOM     21  C   UNL     1      48.690   6.101  16.682  0.00  0.00    +0.000 A 
ATOM     22  C   UNL     1      48.317   4.771  16.622  0.00  0.00    +0.000 A 
ATOM     23  S   UNL     1      47.551   4.260  18.070  0.00  0.00    +0.000 S 
ATOM     24  C   UNL     1      47.830   5.766  18.819  0.00  0.00    +0.000 A 
ATOM     25  N   UNL     1      47.314   6.084  20.036  0.00  0.00    +0.000 NA
ATOM     26  C   UNL     1      47.666   7.250  20.473  0.00  0.00    +0.000 A 
ATOM     27  N   UNL     1      48.526   8.107  19.829  0.00  0.00    +0.000 N 
ATOM     28  C   UNL     1      49.081   7.824  18.604  0.00  0.00    +0.000 A 
ATOM     29  O   UNL     1      49.901   8.567  18.077  0.00  0.00    +0.000 OA
ATOM     30  C   UNL     1      48.610   6.583  18.029  0.00  0.00    +0.000 A 
ATOM     31  H   UNL     1      48.831   8.964  20.266  0.00  0.00    +0.000 HD
ENDBRANCH  18  21
ENDBRANCH   1  19
TORSDOF 5
ENDMDL
MODEL 5
REMARK VINA RESULT:    -7.607      2.697      4.554
REMARK INTER + INTRA:         -10.729
REMARK INTER:                  -9.750
REMARK INTRA:                  -0.979
REMARK UNBOUND:                -0.899
REMARK  Name = 
REMARK  5 active torsions:
REMARK  status: ('A' for Active; 'I' for Inactive)
REMARK    1  A    between atoms: C_2  and  C_20
REMARK    2  A    between atoms: N_3  and  C_4
REMARK    3  A    between atoms: C_4  and  C_5
REMARK    4  A    between atoms: C_8  and  C_9
REMARK    5  A    between atoms: C_9  and  C_12
REMARK                            x       y       z     vdW  Elec       q    Type
REMARK                         _______ _______ _______ _____ _____    ______ ____
ROOT
ATOM      1  C   UNL     1      47.704   5.379  14.494  0.00  0.00    +0.000 C 
ENDROOT
BRANCH   1   2
ATOM      2  C   UNL     1      46.760   4.980  13.385  0.00  0.00    +0.000 A 
ATOM      3  C   UNL     1      46.388   5.889  12.382  0.00  0.00    +0.000 A 
ATOM      4  C   UNL     1      45.553   5.487  11.332  0.00  0.00    +0.000 A 
ATOM      5  C   UNL     1      45.073   4.169  11.265  0.00  0.00    +0.000 A 
ATOM      6  C   UNL     1      45.384   3.287  12.312  0.00  0.00    +0.000 A 
ATOM      7  C   UNL     1      46.213   3.691  13.362  0.00  0.00    +0.000 A 
BRANCH   5   8
ATOM      8  C   UNL     1      44.309   3.672  10.035  0.00  0.00    +0.000 C 
ATOM      9  F   UNL     1      43.453   2.653  10.397  0.00  0.00    +0.000 F 
ATOM     10  F   UNL     1      43.443   4.655   9.601  0.00  0.00    +0.000 F 
BRANCH   8  11
ATOM     11  C   UNL     1      45.249   3.221   8.893  0.00  0.00    +0.000 A 
ATOM     12  N   UNL     1      45.770   4.175   8.078  0.00  0.00    +0.000 NA
ATOM     13  C   UNL     1      46.697   3.773   7.184  0.00  0.00    +0.000 A 
ATOM     14  C   UNL     1      47.121   2.474   7.062  0.00  0.00    +0.000 A 
ATOM     15  C   UNL     1      46.519   1.574   7.904  0.00  0.00    +0.000 A 
ATOM     16  N   UNL     1      45.586   1.912   8.814  0.00  0.00    +0.000 NA
ENDBRANCH   8  11
ENDBRANCH   5   8
ENDBRANCH   1   2
BRANCH   1  19
ATOM     17  O   UNL     1      50.116   6.459  15.624  0.00  0.00    +0.000 OA
ATOM     18  C   UNL     1      49.427   7.114  14.851  0.00  0.00    +0.000 C 
ATOM     19  N   UNL     1      48.332   6.632  14.171  0.00  0.00    +0.000 N 
ATOM     20  H   UNL     1      47.733   7.301  13.714  0.00  0.00    +0.000 HD
BRANCH  18  21
ATOM     21  C   UNL     1      49.555   8.557  14.693  0.00  0.00    +0.000 A 
ATOM     22  C   UNL     1      49.726   9.410  15.768  0.00  0.00    +0.000 A 
ATOM     23  S   UNL     1      49.327  11.029  15.365  0.00  0.00    +0.000 S 
ATOM     24  C   UNL     1      49.052  10.617  13.733  0.00  0.00    +0.000 A 
ATOM     25  N   UNL     1      48.543  11.499  12.832  0.00  0.00    +0.000 NA
ATOM     26  C   UNL     1      48.445  11.031  11.630  0.00  0.00    +0.000 A 
ATOM     27  N   UNL     1      48.854   9.780  11.234  0.00  0.00    +0.000 N 
ATOM     28  C   UNL     1      49.384   8.859  12.105  0.00  0.00    +0.000 A 
ATOM     29  O   UNL     1      49.810   7.776  11.724  0.00  0.00    +0.000 OA
ATOM     30  C   UNL     1      49.393   9.305  13.482  0.00  0.00    +0.000 A 
ATOM     31  H   UNL     1      48.833   9.510  10.262  0.00  0.00    +0.000 HD
ENDBRANCH  18  21
ENDBRANCH   1  19
TORSDOF 5
ENDMDL
MODEL 6
REMARK VINA RESULT:    -7.419      2.411      3.377
REMARK INTER + INTRA:         -10.487
REMARK INTER:                  -9.462
REMARK INTRA:                  -1.025
REMARK UNBOUND:                -0.899
REMARK  Name = 
REMARK  5 active torsions:
REMARK  status: ('A' for Active; 'I' for Inactive)
REMARK    1  A    between atoms: C_2  and  C_20
REMARK    2  A    between atoms: N_3  and  C_4
REMARK    3  A    between atoms: C_4  and  C_5
REMARK    4  A    between atoms: C_8  and  C_9
REMARK    5  A    between atoms: C_9  and  C_12
REMARK                            x       y       z     vdW  Elec       q    Type
REMARK                         _______ _______ _______ _____ _____    ______ ____
ROOT
ATOM      1  C   UNL     1      47.879   5.033  14.835  0.00  0.00    +0.000 C 
ENDROOT
BRANCH   1   2
ATOM      2  C   UNL     1      46.860   4.785  13.747  0.00  0.00    +0.000 A 
ATOM      3  C   UNL     1      46.330   5.841  12.991  0.00  0.00    +0.000 A 
ATOM      4  C   UNL     1      45.426   5.588  11.952  0.00  0.00    +0.000 A 
ATOM      5  C   UNL     1      45.034   4.273  11.650  0.00  0.00    +0.000 A 
ATOM      6  C   UNL     1      45.506   3.229  12.461  0.00  0.00    +0.000 A 
ATOM      7  C   UNL     1      46.404   3.484  13.500  0.00  0.00    +0.000 A 
BRANCH   5   8
ATOM      8  C   UNL     1      44.189   3.970  10.410  0.00  0.00    +0.000 C 
ATOM      9  F   UNL     1      43.201   3.062  10.729  0.00  0.00    +0.000 F 
ATOM     10  F   UNL     1      43.467   5.092  10.057  0.00  0.00    +0.000 F 
BRANCH   8  11
ATOM     11  C   UNL     1      45.039   3.464   9.220  0.00  0.00    +0.000 A 
ATOM     12  N   UNL     1      45.584   4.386   8.385  0.00  0.00    +0.000 NA
ATOM     13  C   UNL     1      46.437   3.927   7.445  0.00  0.00    +0.000 A 
ATOM     14  C   UNL     1      46.762   2.603   7.296  0.00  0.00    +0.000 A 
ATOM     15  C   UNL     1      46.140   1.740   8.163  0.00  0.00    +0.000 A 
ATOM     16  N   UNL     1      45.279   2.135   9.119  0.00  0.00    +0.000 NA
ENDBRANCH   8  11
ENDBRANCH   5   8
ENDBRANCH   1   2
BRANCH   1  19
ATOM     17  O   UNL     1      50.123   6.697  15.507  0.00  0.00    +0.000 OA
ATOM     18  C   UNL     1      48.973   7.100  15.634  0.00  0.00    +0.000 C 
ATOM     19  N   UNL     1      47.851   6.418  15.220  0.00  0.00    +0.000 N 
ATOM     20  H   UNL     1      46.956   6.750  15.543  0.00  0.00    +0.000 HD
BRANCH  18  21
ATOM     21  C   UNL     1      48.619   8.273  16.423  0.00  0.00    +0.000 A 
ATOM     22  C   UNL     1      48.649   9.554  15.904  0.00  0.00    +0.000 A 
ATOM     23  S   UNL     1      48.703  10.740  17.143  0.00  0.00    +0.000 S 
ATOM     24  C   UNL     1      48.558   9.558  18.362  0.00  0.00    +0.000 A 
ATOM     25  N   UNL     1      48.672   9.854  19.685  0.00  0.00    +0.000 NA
ATOM     26  C   UNL     1      48.487   8.844  20.472  0.00  0.00    +0.000 A 
ATOM     27  N   UNL     1      48.149   7.576  20.062  0.00  0.00    +0.000 N 
ATOM     28  C   UNL     1      48.011   7.232  18.739  0.00  0.00    +0.000 A 
ATOM     29  O   UNL     1      47.640   6.117  18.395  0.00  0.00    +0.000 OA
ATOM     30  C   UNL     1      48.334   8.308  17.826  0.00  0.00    +0.000 A 
ATOM     31  H   UNL     1      47.931   6.854  20.733  0.00  0.00    +0.000 HD
ENDBRANCH  18  21
ENDBRANCH   1  19
TORSDOF 5
ENDMDL
MODEL 7
REMARK VINA RESULT:    -7.403      3.137      4.740
REMARK INTER + INTRA:         -10.467
REMARK INTER:                  -9.484
REMARK INTRA:                  -0.983
REMARK UNBOUND:                -0.899
REMARK  Name = 
REMARK  5 active torsions:
REMARK  status: ('A' for Active; 'I' for Inactive)
REMARK    1  A    between atoms: C_2  and  C_20
REMARK    2  A    between atoms: N_3  and  C_4
REMARK    3  A    between atoms: C_4  and  C_5
REMARK    4  A    between atoms: C_8  and  C_9
REMARK    5  A    between atoms: C_9  and  C_12
REMARK                            x       y       z     vdW  Elec       q    Type
REMARK                         _______ _______ _______ _____ _____    ______ ____
ROOT
ATOM      1  C   UNL     1      47.758   6.030  14.386  0.00  0.00    +0.000 C 
ENDROOT
BRANCH   1   2
ATOM      2  C   UNL     1      46.821   5.539  13.308  0.00  0.00    +0.000 A 
ATOM      3  C   UNL     1      46.567   6.304  12.160  0.00  0.00    +0.000 A 
ATOM      4  C   UNL     1      45.737   5.811  11.146  0.00  0.00    +0.000 A 
ATOM      5  C   UNL     1      45.142   4.543  11.262  0.00  0.00    +0.000 A 
ATOM      6  C   UNL     1      45.336   3.817  12.448  0.00  0.00    +0.000 A 
ATOM      7  C   UNL     1      46.161   4.313  13.461  0.00  0.00    +0.000 A 
BRANCH   5   8
ATOM      8  C   UNL     1      44.379   3.922  10.089  0.00  0.00    +0.000 C 
ATOM      9  F   UNL     1      43.539   2.930  10.551  0.00  0.00    +0.000 F 
ATOM     10  F   UNL     1      43.497   4.847   9.570  0.00  0.00    +0.000 F 
BRANCH   8  11
ATOM     11  C   UNL     1      45.320   3.378   8.989  0.00  0.00    +0.000 A 
ATOM     12  N   UNL     1      45.626   2.054   9.006  0.00  0.00    +0.000 NA
ATOM     13  C   UNL     1      46.328   1.578   7.956  0.00  0.00    +0.000 A 
ATOM     14  C   UNL     1      46.742   2.355   6.904  0.00  0.00    +0.000 A 
ATOM     15  C   UNL     1      46.416   3.685   6.987  0.00  0.00    +0.000 A 
ATOM     16  N   UNL     1      45.721   4.221   8.008  0.00  0.00    +0.000 NA
ENDBRANCH   8  11
ENDBRANCH   5   8
ENDBRANCH   1   2
BRANCH   1  19
ATOM     17  O   UNL     1      47.933   8.793  15.155  0.00  0.00    +0.000 OA
ATOM     18  C   UNL     1      48.569   8.357  14.203  0.00  0.00    +0.000 C 
ATOM     19  N   UNL     1      48.639   7.030  13.846  0.00  0.00    +0.000 N 
ATOM     20  H   UNL     1      49.030   6.808  12.945  0.00  0.00    +0.000 HD
BRANCH  18  21
ATOM     21  C   UNL     1      49.183   9.210  13.194  0.00  0.00    +0.000 A 
ATOM     22  C   UNL     1      48.469  10.166  12.495  0.00  0.00    +0.000 A 
ATOM     23  S   UNL     1      49.277  10.636  11.055  0.00  0.00    +0.000 S 
ATOM     24  C   UNL     1      50.629   9.666  11.428  0.00  0.00    +0.000 A 
ATOM     25  N   UNL     1      51.656   9.479  10.557  0.00  0.00    +0.000 NA
ATOM     26  C   UNL     1      52.620   8.753  11.023  0.00  0.00    +0.000 A 
ATOM     27  N   UNL     1      52.675   8.237  12.296  0.00  0.00    +0.000 N 
ATOM     28  C   UNL     1      51.668   8.410  13.214  0.00  0.00    +0.000 A 
ATOM     29  O   UNL     1      51.764   8.005  14.366  0.00  0.00    +0.000 OA
ATOM     30  C   UNL     1      50.518   9.111  12.685  0.00  0.00    +0.000 A 
ATOM     31  H   UNL     1      53.498   7.754  12.626  0.00  0.00    +0.000 HD
ENDBRANCH  18  21
ENDBRANCH   1  19
TORSDOF 5
ENDMDL
MODEL 8
REMARK VINA RESULT:    -7.034      3.819      7.833
REMARK INTER + INTRA:          -9.989
REMARK INTER:                  -9.280
REMARK INTRA:                  -0.710
REMARK UNBOUND:                -0.899
REMARK  Name = 
REMARK  5 active torsions:
REMARK  status: ('A' for Active; 'I' for Inactive)
REMARK    1  A    between atoms: C_2  and  C_20
REMARK    2  A    between atoms: N_3  and  C_4
REMARK    3  A    between atoms: C_4  and  C_5
REMARK    4  A    between atoms: C_8  and  C_9
REMARK    5  A    between atoms: C_9  and  C_12
REMARK                            x       y       z     vdW  Elec       q    Type
REMARK                         _______ _______ _______ _____ _____    ______ ____
ROOT
ATOM      1  C   UNL     1      47.241   8.391  12.652  0.00  0.00    +0.000 C 
ENDROOT
BRANCH   1   2
ATOM      2  C   UNL     1      47.803   7.729  13.888  0.00  0.00    +0.000 A 
ATOM      3  C   UNL     1      48.346   8.488  14.936  0.00  0.00    +0.000 A 
ATOM      4  C   UNL     1      48.815   7.862  16.098  0.00  0.00    +0.000 A 
ATOM      5  C   UNL     1      48.751   6.465  16.233  0.00  0.00    +0.000 A 
ATOM      6  C   UNL     1      48.280   5.707  15.150  0.00  0.00    +0.000 A 
ATOM      7  C   UNL     1      47.817   6.333  13.989  0.00  0.00    +0.000 A 
BRANCH   5   8
ATOM      8  C   UNL     1      49.094   5.787  17.562  0.00  0.00    +0.000 C 
ATOM      9  F   UNL     1      49.863   6.634  18.333  0.00  0.00    +0.000 F 
ATOM     10  F   UNL     1      47.948   5.647  18.318  0.00  0.00    +0.000 F 
BRANCH   8  11
ATOM     11  C   UNL     1      49.799   4.424  17.371  0.00  0.00    +0.000 A 
ATOM     12  N   UNL     1      51.116   4.334  17.695  0.00  0.00    +0.000 NA
ATOM     13  C   UNL     1      51.669   3.104  17.657  0.00  0.00    +0.000 A 
ATOM     14  C   UNL     1      50.979   1.971  17.307  0.00  0.00    +0.000 A 
ATOM     15  C   UNL     1      49.664   2.162  16.965  0.00  0.00    +0.000 A 
ATOM     16  N   UNL     1      49.056   3.363  16.980  0.00  0.00    +0.000 NA
ENDBRANCH   8  11
ENDBRANCH   5   8
ENDBRANCH   1   2
BRANCH   1  19
ATOM     17  O   UNL     1      44.633   7.800  11.601  0.00  0.00    +0.000 OA
ATOM     18  C   UNL     1      45.603   7.107  11.319  0.00  0.00    +0.000 C 
ATOM     19  N   UNL     1      46.902   7.391  11.677  0.00  0.00    +0.000 N 
ATOM     20  H   UNL     1      47.589   6.663  11.559  0.00  0.00    +0.000 HD
BRANCH  18  21
ATOM     21  C   UNL     1      45.493   5.777  10.734  0.00  0.00    +0.000 A 
ATOM     22  C   UNL     1      45.832   5.513   9.420  0.00  0.00    +0.000 A 
ATOM     23  S   UNL     1      45.130   4.049   8.864  0.00  0.00    +0.000 S 
ATOM     24  C   UNL     1      44.484   3.706  10.404  0.00  0.00    +0.000 A 
ATOM     25  N   UNL     1      43.640   2.663  10.627  0.00  0.00    +0.000 NA
ATOM     26  C   UNL     1      43.286   2.523  11.864  0.00  0.00    +0.000 A 
ATOM     27  N   UNL     1      43.735   3.298  12.906  0.00  0.00    +0.000 N 
ATOM     28  C   UNL     1      44.596   4.355  12.731  0.00  0.00    +0.000 A 
ATOM     29  O   UNL     1      45.042   4.990  13.679  0.00  0.00    +0.000 OA
ATOM     30  C   UNL     1      44.914   4.617  11.345  0.00  0.00    +0.000 A 
ATOM     31  H   UNL     1      43.489   3.079  13.860  0.00  0.00    +0.000 HD
ENDBRANCH  18  21
ENDBRANCH   1  19
TORSDOF 5
ENDMDL
MODEL 9
REMARK VINA RESULT:    -6.957      4.379      9.192
REMARK INTER + INTRA:          -9.890
REMARK INTER:                  -9.004
REMARK INTRA:                  -0.885
REMARK UNBOUND:                -0.899
REMARK  Name = 
REMARK  5 active torsions:
REMARK  status: ('A' for Active; 'I' for Inactive)
REMARK    1  A    between atoms: C_2  and  C_20
REMARK    2  A    between atoms: N_3  and  C_4
REMARK    3  A    between atoms: C_4  and  C_5
REMARK    4  A    between atoms: C_8  and  C_9
REMARK    5  A    between atoms: C_9  and  C_12
REMARK                            x       y       z     vdW  Elec       q    Type
REMARK                         _______ _______ _______ _____ _____    ______ ____
ROOT
ATOM      1  C   UNL     1      47.163   3.947  17.032  0.00  0.00    +0.000 C 
ENDROOT
BRANCH   1   2
ATOM      2  C   UNL     1      48.643   4.233  17.131  0.00  0.00    +0.000 A 
ATOM      3  C   UNL     1      49.149   5.526  16.936  0.00  0.00    +0.000 A 
ATOM      4  C   UNL     1      50.518   5.784  17.083  0.00  0.00    +0.000 A 
ATOM      5  C   UNL     1      51.407   4.752  17.427  0.00  0.00    +0.000 A 
ATOM      6  C   UNL     1      50.906   3.446  17.543  0.00  0.00    +0.000 A 
ATOM      7  C   UNL     1      49.541   3.189  17.391  0.00  0.00    +0.000 A 
BRANCH   5   8
ATOM      8  C   UNL     1      52.870   5.053  17.763  0.00  0.00    +0.000 C 
ATOM      9  F   UNL     1      53.543   5.431  16.620  0.00  0.00    +0.000 F 
ATOM     10  F   UNL     1      52.940   6.189  18.544  0.00  0.00    +0.000 F 
BRANCH   8  11
ATOM     11  C   UNL     1      53.579   3.864  18.452  0.00  0.00    +0.000 A 
ATOM     12  N   UNL     1      54.270   2.992  17.672  0.00  0.00    +0.000 NA
ATOM     13  C   UNL     1      54.997   2.051  18.309  0.00  0.00    +0.000 A 
ATOM     14  C   UNL     1      55.062   1.935  19.674  0.00  0.00    +0.000 A 
ATOM     15  C   UNL     1      54.308   2.838  20.381  0.00  0.00    +0.000 A 
ATOM     16  N   UNL     1      53.560   3.798  19.804  0.00  0.00    +0.000 NA
ENDBRANCH   8  11
ENDBRANCH   5   8
ENDBRANCH   1   2
BRANCH   1  19
ATOM     17  O   UNL     1      47.483   2.916  14.369  0.00  0.00    +0.000 OA
ATOM     18  C   UNL     1      46.944   3.998  14.571  0.00  0.00    +0.000 C 
ATOM     19  N   UNL     1      46.640   4.504  15.815  0.00  0.00    +0.000 N 
ATOM     20  H   UNL     1      46.375   5.475  15.872  0.00  0.00    +0.000 HD
BRANCH  18  21
ATOM     21  C   UNL     1      46.727   4.990  13.527  0.00  0.00    +0.000 A 
ATOM     22  C   UNL     1      47.579   6.061  13.331  0.00  0.00    +0.000 A 
ATOM     23  S   UNL     1      46.831   7.312  12.427  0.00  0.00    +0.000 S 
ATOM     24  C   UNL     1      45.423   6.379  12.189  0.00  0.00    +0.000 A 
ATOM     25  N   UNL     1      44.302   6.883  11.609  0.00  0.00    +0.000 NA
ATOM     26  C   UNL     1      43.347   6.022  11.465  0.00  0.00    +0.000 A 
ATOM     27  N   UNL     1      43.427   4.692  11.803  0.00  0.00    +0.000 N 
ATOM     28  C   UNL     1      44.542   4.136  12.381  0.00  0.00    +0.000 A 
ATOM     29  O   UNL     1      44.623   2.935  12.610  0.00  0.00    +0.000 OA
ATOM     30  C   UNL     1      45.583   5.098  12.670  0.00  0.00    +0.000 A 
ATOM     31  H   UNL     1      42.677   4.054  11.582  0.00  0.00    +0.000 HD
ENDBRANCH  18  21
ENDBRANCH   1  19
TORSDOF 5
ENDMDL
