MODEL 1
REMARK VINA RESULT:    -8.183      0.000      0.000
REMARK INTER + INTRA:         -13.751
REMARK INTER:                 -12.728
REMARK INTRA:                  -1.023
REMARK UNBOUND:                -1.023
REMARK  Name = 
REMARK  10 active torsions:
REMARK  status: ('A' for Active; 'I' for Inactive)
REMARK    1  A    between atoms: N_1  and  C_2
REMARK    2  A    between atoms: C_2  and  C_3
REMARK    3  A    between atoms: C_3  and  N_4
REMARK    4  A    between atoms: C_3  and  C_20
REMARK    5  A    between atoms: N_4  and  C_5
REMARK    6  A    between atoms: C_5  and  C_6
REMARK    7  A    between atoms: C_9  and  C_10
REMARK    8  A    between atoms: C_10  and  N_11
REMARK    9  A    between atoms: N_11  and  C_12
REMARK   10  A    between atoms: C_12  and  C_13
REMARK                            x       y       z     vdW  Elec       q    Type
REMARK                         _______ _______ _______ _____ _____    ______ ____
ROOT
ATOM      1  N   UNL     1      47.862   5.920  15.852  0.00  0.00    +0.000 NA
ATOM      2  H   UNL     1      48.435   6.585  16.369  0.00  0.00    +0.000 HD
ENDROOT
BRANCH   1   3
ATOM      3  C   UNL     1      48.042   4.598  16.489  0.00  0.00    +0.000 C 
BRANCH   3   4
ATOM      4  C   UNL     1      49.399   4.615  17.183  0.00  0.00    +0.000 A 
ATOM      5  C   UNL     1      49.935   5.710  17.850  0.00  0.00    +0.000 A 
ATOM      6  S   UNL     1      51.459   5.407  18.545  0.00  0.00    +0.000 S 
ATOM      7  C   UNL     1      51.447   3.791  18.013  0.00  0.00    +0.000 A 
ATOM      8  N   UNL     1      52.468   2.941  18.308  0.00  0.00    +0.000 NA
ATOM      9  C   UNL     1      52.305   1.743  17.859  0.00  0.00    +0.000 A 
ATOM     10  N   UNL     1      51.226   1.316  17.125  0.00  0.00    +0.000 N 
ATOM     11  C   UNL     1      50.176   2.143  16.784  0.00  0.00    +0.000 A 
ATOM     12  O   UNL     1      49.234   1.741  16.111  0.00  0.00    +0.000 OA
ATOM     13  C   UNL     1      50.304   3.496  17.289  0.00  0.00    +0.000 A 
ATOM     14  H   UNL     1      51.167   0.364  16.799  0.00  0.00    +0.000 HD
ENDBRANCH   3   4
BRANCH   3  15
ATOM     15  C   UNL     1      46.907   4.213  17.496  0.00  0.00    +0.000 C 
BRANCH  15  16
ATOM     16  N   UNL     1      46.731   2.768  17.694  0.00  0.00    +0.000 NA
ATOM     17  H   UNL     1      46.572   2.309  16.802  0.00  0.00    +0.000 HD
ATOM     18  H   UNL     1      45.907   2.621  18.277  0.00  0.00    +0.000 HD
ENDBRANCH  15  16
ENDBRANCH   3  15
ENDBRANCH   1   3
BRANCH   1  19
ATOM     19  C   UNL     1      48.282   5.954  14.453  0.00  0.00    +0.000 C 
BRANCH  19  20
ATOM     20  C   UNL     1      47.210   5.387  13.546  0.00  0.00    +0.000 A 
ATOM     21  C   UNL     1      46.778   4.058  13.673  0.00  0.00    +0.000 A 
ATOM     22  C   UNL     1      45.799   3.543  12.820  0.00  0.00    +0.000 A 
ATOM     23  C   UNL     1      45.216   4.348  11.832  0.00  0.00    +0.000 A 
ATOM     24  C   UNL     1      45.630   5.681  11.718  0.00  0.00    +0.000 A 
ATOM     25  C   UNL     1      46.618   6.194  12.563  0.00  0.00    +0.000 A 
BRANCH  23  26
ATOM     26  C   UNL     1      44.178   3.784  10.892  0.00  0.00    +0.000 C 
BRANCH  26  27
ATOM     27  N   UNL     1      44.487   2.399  10.539  0.00  0.00    +0.000 NA
ATOM     28  H   UNL     1      43.752   1.802  10.916  0.00  0.00    +0.000 HD
BRANCH  27  29
ATOM     29  C   UNL     1      44.580   2.231   9.089  0.00  0.00    +0.000 C 
BRANCH  29  30
ATOM     30  C   UNL     1      45.999   2.535   8.603  0.00  0.00    +0.000 C 
ATOM     31  C   UNL     1      46.619   1.433   7.754  0.00  0.00    +0.000 C 
ATOM     32  C   UNL     1      47.635   2.192   6.931  0.00  0.00    +0.000 C 
ATOM     33  N   UNL     1      46.942   3.431   6.565  0.00  0.00    +0.000 NA
ATOM     34  C   UNL     1      46.064   3.768   7.699  0.00  0.00    +0.000 C 
ATOM     35  H   UNL     1      46.354   3.241   5.751  0.00  0.00    +0.000 HD
ENDBRANCH  29  30
ENDBRANCH  27  29
ENDBRANCH  26  27
ENDBRANCH  23  26
ENDBRANCH  19  20
ENDBRANCH   1  19
TORSDOF 10
ENDMDL
MODEL 2
REMARK VINA RESULT:    -7.289      1.652      2.414
REMARK INTER + INTRA:         -12.361
REMARK INTER:                 -11.152
REMARK INTRA:                  -1.209
REMARK UNBOUND:                -1.023
REMARK  Name = 
REMARK  10 active torsions:
REMARK  status: ('A' for Active; 'I' for Inactive)
REMARK    1  A    between atoms: N_1  and  C_2
REMARK    2  A    between atoms: C_2  and  C_3
REMARK    3  A    between atoms: C_3  and  N_4
REMARK    4  A    between atoms: C_3  and  C_20
REMARK    5  A    between atoms: N_4  and  C_5
REMARK    6  A    between atoms: C_5  and  C_6
REMARK    7  A    between atoms: C_9  and  C_10
REMARK    8  A    between atoms: C_10  and  N_11
REMARK    9  A    between atoms: N_11  and  C_12
REMARK   10  A    between atoms: C_12  and  C_13
REMARK                            x       y       z     vdW  Elec       q    Type
REMARK                         _______ _______ _______ _____ _____    ______ ____
ROOT
ATOM      1  N   UNL     1      48.243   6.035  14.968  0.00  0.00    +0.000 NA
ATOM      2  H   UNL     1      47.268   5.850  15.197  0.00  0.00    +0.000 HD
ENDROOT
BRANCH   1   3
ATOM      3  C   UNL     1      48.757   6.988  15.973  0.00  0.00    +0.000 C 
BRANCH   3   4
ATOM      4  C   UNL     1      50.195   6.585  16.280  0.00  0.00    +0.000 A 
ATOM      5  C   UNL     1      51.316   7.340  15.957  0.00  0.00    +0.000 A 
ATOM      6  S   UNL     1      52.782   6.633  16.457  0.00  0.00    +0.000 S 
ATOM      7  C   UNL     1      51.974   5.308  17.156  0.00  0.00    +0.000 A 
ATOM      8  N   UNL     1      52.656   4.323  17.801  0.00  0.00    +0.000 NA
ATOM      9  C   UNL     1      51.906   3.401  18.302  0.00  0.00    +0.000 A 
ATOM     10  N   UNL     1      50.537   3.357  18.202  0.00  0.00    +0.000 N 
ATOM     11  C   UNL     1      49.802   4.321  17.543  0.00  0.00    +0.000 A 
ATOM     12  O   UNL     1      48.582   4.248  17.452  0.00  0.00    +0.000 OA
ATOM     13  C   UNL     1      50.602   5.393  16.985  0.00  0.00    +0.000 A 
ATOM     14  H   UNL     1      50.013   2.600  18.612  0.00  0.00    +0.000 HD
ENDBRANCH   3   4
BRANCH   3  15
ATOM     15  C   UNL     1      48.683   8.488  15.530  0.00  0.00    +0.000 C 
BRANCH  15  16
ATOM     16  N   UNL     1      47.635   9.271  16.199  0.00  0.00    +0.000 NA
ATOM     17  H   UNL     1      47.581   9.016  17.182  0.00  0.00    +0.000 HD
ATOM     18  H   UNL     1      46.739   9.046  15.765  0.00  0.00    +0.000 HD
ENDBRANCH  15  16
ENDBRANCH   3  15
ENDBRANCH   1   3
BRANCH   1  19
ATOM     19  C   UNL     1      48.295   6.547  13.600  0.00  0.00    +0.000 C 
BRANCH  19  20
ATOM     20  C   UNL     1      47.139   6.022  12.775  0.00  0.00    +0.000 A 
ATOM     21  C   UNL     1      46.779   6.624  11.560  0.00  0.00    +0.000 A 
ATOM     22  C   UNL     1      45.700   6.139  10.817  0.00  0.00    +0.000 A 
ATOM     23  C   UNL     1      44.966   5.031  11.261  0.00  0.00    +0.000 A 
ATOM     24  C   UNL     1      45.337   4.415  12.463  0.00  0.00    +0.000 A 
ATOM     25  C   UNL     1      46.408   4.907  13.213  0.00  0.00    +0.000 A 
BRANCH  23  26
ATOM     26  C   UNL     1      43.782   4.524  10.473  0.00  0.00    +0.000 C 
BRANCH  26  27
ATOM     27  N   UNL     1      44.155   4.249   9.085  0.00  0.00    +0.000 NA
ATOM     28  H   UNL     1      44.944   4.847   8.842  0.00  0.00    +0.000 HD
BRANCH  27  29
ATOM     29  C   UNL     1      44.513   2.842   8.904  0.00  0.00    +0.000 C 
BRANCH  29  30
ATOM     30  C   UNL     1      45.958   2.713   8.415  0.00  0.00    +0.000 C 
ATOM     31  C   UNL     1      46.355   1.302   8.000  0.00  0.00    +0.000 C 
ATOM     32  C   UNL     1      47.483   1.558   7.027  0.00  0.00    +0.000 C 
ATOM     33  N   UNL     1      47.024   2.711   6.246  0.00  0.00    +0.000 NA
ATOM     34  C   UNL     1      46.237   3.551   7.165  0.00  0.00    +0.000 C 
ATOM     35  H   UNL     1      46.403   2.373   5.509  0.00  0.00    +0.000 HD
ENDBRANCH  29  30
ENDBRANCH  27  29
ENDBRANCH  26  27
ENDBRANCH  23  26
ENDBRANCH  19  20
ENDBRANCH   1  19
TORSDOF 10
ENDMDL
MODEL 3
REMARK VINA RESULT:    -7.273      1.965      2.468
REMARK INTER + INTRA:         -12.336
REMARK INTER:                 -11.442
REMARK INTRA:                  -0.893
REMARK UNBOUND:                -1.023
REMARK  Name = 
REMARK  10 active torsions:
REMARK  status: ('A' for Active; 'I' for Inactive)
REMARK    1  A    between atoms: N_1  and  C_2
REMARK    2  A    between atoms: C_2  and  C_3
REMARK    3  A    between atoms: C_3  and  N_4
REMARK    4  A    between atoms: C_3  and  C_20
REMARK    5  A    between atoms: N_4  and  C_5
REMARK    6  A    between atoms: C_5  and  C_6
REMARK    7  A    between atoms: C_9  and  C_10
REMARK    8  A    between atoms: C_10  and  N_11
REMARK    9  A    between atoms: N_11  and  C_12
REMARK   10  A    between atoms: C_12  and  C_13
REMARK                            x       y       z     vdW  Elec       q    Type
REMARK                         _______ _______ _______ _____ _____    ______ ____
ROOT
ATOM      1  N   UNL     1      47.224   4.540  15.859  0.00  0.00    +0.000 NA
ATOM      2  H   UNL     1      46.703   5.159  16.478  0.00  0.00    +0.000 HD
ENDROOT
BRANCH   1   3
ATOM      3  C   UNL     1      48.387   4.037  16.618  0.00  0.00    +0.000 C 
BRANCH   3   4
ATOM      4  C   UNL     1      48.377   4.737  17.973  0.00  0.00    +0.000 A 
ATOM      5  C   UNL     1      47.276   5.385  18.522  0.00  0.00    +0.000 A 
ATOM      6  S   UNL     1      47.573   6.048  20.061  0.00  0.00    +0.000 S 
ATOM      7  C   UNL     1      49.173   5.465  20.070  0.00  0.00    +0.000 A 
ATOM      8  N   UNL     1      49.991   5.659  21.139  0.00  0.00    +0.000 NA
ATOM      9  C   UNL     1      51.163   5.138  21.010  0.00  0.00    +0.000 A 
ATOM     10  N   UNL     1      51.605   4.455  19.903  0.00  0.00    +0.000 N 
ATOM     11  C   UNL     1      50.820   4.247  18.788  0.00  0.00    +0.000 A 
ATOM     12  O   UNL     1      51.245   3.651  17.805  0.00  0.00    +0.000 OA
ATOM     13  C   UNL     1      49.482   4.796  18.898  0.00  0.00    +0.000 A 
ATOM     14  H   UNL     1      52.539   4.079  19.866  0.00  0.00    +0.000 HD
ENDBRANCH   3   4
BRANCH   3  15
ATOM     15  C   UNL     1      48.410   2.481  16.797  0.00  0.00    +0.000 C 
BRANCH  15  16
ATOM     16  N   UNL     1      49.391   1.785  15.954  0.00  0.00    +0.000 NA
ATOM     17  H   UNL     1      50.103   1.348  16.532  0.00  0.00    +0.000 HD
ATOM     18  H   UNL     1      49.848   2.475  15.356  0.00  0.00    +0.000 HD
ENDBRANCH  15  16
ENDBRANCH   3  15
ENDBRANCH   1   3
BRANCH   1  19
ATOM     19  C   UNL     1      47.592   5.302  14.667  0.00  0.00    +0.000 C 
BRANCH  19  20
ATOM     20  C   UNL     1      46.564   5.128  13.569  0.00  0.00    +0.000 A 
ATOM     21  C   UNL     1      46.123   3.854  13.179  0.00  0.00    +0.000 A 
ATOM     22  C   UNL     1      45.186   3.708  12.154  0.00  0.00    +0.000 A 
ATOM     23  C   UNL     1      44.653   4.830  11.506  0.00  0.00    +0.000 A 
ATOM     24  C   UNL     1      45.075   6.103  11.907  0.00  0.00    +0.000 A 
ATOM     25  C   UNL     1      46.022   6.251  12.924  0.00  0.00    +0.000 A 
BRANCH  23  26
ATOM     26  C   UNL     1      43.661   4.671  10.379  0.00  0.00    +0.000 C 
BRANCH  26  27
ATOM     27  N   UNL     1      44.074   3.609   9.462  0.00  0.00    +0.000 NA
ATOM     28  H   UNL     1      43.250   3.282   8.960  0.00  0.00    +0.000 HD
BRANCH  27  29
ATOM     29  C   UNL     1      45.085   4.089   8.519  0.00  0.00    +0.000 C 
BRANCH  29  30
ATOM     30  C   UNL     1      45.567   2.947   7.621  0.00  0.00    +0.000 C 
ATOM     31  C   UNL     1      46.983   3.127   7.088  0.00  0.00    +0.000 C 
ATOM     32  C   UNL     1      47.410   1.701   6.822  0.00  0.00    +0.000 C 
ATOM     33  N   UNL     1      46.889   0.954   7.970  0.00  0.00    +0.000 NA
ATOM     34  C   UNL     1      45.623   1.603   8.350  0.00  0.00    +0.000 C 
ATOM     35  H   UNL     1      47.546   1.056   8.745  0.00  0.00    +0.000 HD
ENDBRANCH  29  30
ENDBRANCH  27  29
ENDBRANCH  26  27
ENDBRANCH  23  26
ENDBRANCH  19  20
ENDBRANCH   1  19
TORSDOF 10
ENDMDL
MODEL 4
REMARK VINA RESULT:    -7.123      3.030      8.825
REMARK INTER + INTRA:         -12.103
REMARK INTER:                 -11.213
REMARK INTRA:                  -0.890
REMARK UNBOUND:                -1.023
REMARK  Name = 
REMARK  10 active torsions:
REMARK  status: ('A' for Active; 'I' for Inactive)
REMARK    1  A    between atoms: N_1  and  C_2
REMARK    2  A    between atoms: C_2  and  C_3
REMARK    3  A    between atoms: C_3  and  N_4
REMARK    4  A    between atoms: C_3  and  C_20
REMARK    5  A    between atoms: N_4  and  C_5
REMARK    6  A    between atoms: C_5  and  C_6
REMARK    7  A    between atoms: C_9  and  C_10
REMARK    8  A    between atoms: C_10  and  N_11
REMARK    9  A    between atoms: N_11  and  C_12
REMARK   10  A    between atoms: C_12  and  C_13
REMARK                            x       y       z     vdW  Elec       q    Type
REMARK                         _______ _______ _______ _____ _____    ______ ____
ROOT
ATOM      1  N   UNL     1      46.100   6.672  13.118  0.00  0.00    +0.000 NA
ATOM      2  H   UNL     1      45.503   6.118  13.730  0.00  0.00    +0.000 HD
ENDROOT
BRANCH   1   3
ATOM      3  C   UNL     1      45.544   6.571  11.753  0.00  0.00    +0.000 C 
BRANCH   3   4
ATOM      4  C   UNL     1      44.917   5.187  11.624  0.00  0.00    +0.000 A 
ATOM      5  C   UNL     1      44.196   4.547  12.624  0.00  0.00    +0.000 A 
ATOM      6  S   UNL     1      43.602   3.019  12.166  0.00  0.00    +0.000 S 
ATOM      7  C   UNL     1      44.255   3.167  10.601  0.00  0.00    +0.000 A 
ATOM      8  N   UNL     1      44.075   2.198   9.665  0.00  0.00    +0.000 NA
ATOM      9  C   UNL     1      44.605   2.464   8.519  0.00  0.00    +0.000 A 
ATOM     10  N   UNL     1      45.316   3.601   8.225  0.00  0.00    +0.000 N 
ATOM     11  C   UNL     1      45.541   4.604   9.144  0.00  0.00    +0.000 A 
ATOM     12  O   UNL     1      46.196   5.601   8.862  0.00  0.00    +0.000 OA
ATOM     13  C   UNL     1      44.941   4.359  10.442  0.00  0.00    +0.000 A 
ATOM     14  H   UNL     1      45.711   3.741   7.308  0.00  0.00    +0.000 HD
ENDBRANCH   3   4
BRANCH   3  15
ATOM     15  C   UNL     1      44.503   7.687  11.402  0.00  0.00    +0.000 C 
BRANCH  15  16
ATOM     16  N   UNL     1      43.162   7.187  11.067  0.00  0.00    +0.000 NA
ATOM     17  H   UNL     1      42.454   7.744  11.537  0.00  0.00    +0.000 HD
ATOM     18  H   UNL     1      43.084   6.226  11.404  0.00  0.00    +0.000 HD
ENDBRANCH  15  16
ENDBRANCH   3  15
ENDBRANCH   1   3
BRANCH   1  19
ATOM     19  C   UNL     1      47.463   6.156  13.231  0.00  0.00    +0.000 C 
BRANCH  19  20
ATOM     20  C   UNL     1      47.782   5.766  14.659  0.00  0.00    +0.000 A 
ATOM     21  C   UNL     1      47.271   4.587  15.223  0.00  0.00    +0.000 A 
ATOM     22  C   UNL     1      47.562   4.246  16.546  0.00  0.00    +0.000 A 
ATOM     23  C   UNL     1      48.384   5.066  17.332  0.00  0.00    +0.000 A 
ATOM     24  C   UNL     1      48.912   6.232  16.765  0.00  0.00    +0.000 A 
ATOM     25  C   UNL     1      48.612   6.580  15.445  0.00  0.00    +0.000 A 
BRANCH  23  26
ATOM     26  C   UNL     1      48.675   4.713  18.771  0.00  0.00    +0.000 C 
BRANCH  26  27
ATOM     27  N   UNL     1      49.627   3.606  18.857  0.00  0.00    +0.000 NA
ATOM     28  H   UNL     1      49.352   2.895  18.181  0.00  0.00    +0.000 HD
BRANCH  27  29
ATOM     29  C   UNL     1      50.991   4.060  18.587  0.00  0.00    +0.000 C 
BRANCH  29  30
ATOM     30  C   UNL     1      51.720   3.065  17.682  0.00  0.00    +0.000 C 
ATOM     31  C   UNL     1      52.920   2.389  18.334  0.00  0.00    +0.000 C 
ATOM     32  C   UNL     1      53.030   1.101  17.550  0.00  0.00    +0.000 C 
ATOM     33  N   UNL     1      51.639   0.668  17.381  0.00  0.00    +0.000 NA
ATOM     34  C   UNL     1      50.833   1.894  17.253  0.00  0.00    +0.000 C 
ATOM     35  H   UNL     1      51.349   0.180  18.230  0.00  0.00    +0.000 HD
ENDBRANCH  29  30
ENDBRANCH  27  29
ENDBRANCH  26  27
ENDBRANCH  23  26
ENDBRANCH  19  20
ENDBRANCH   1  19
TORSDOF 10
ENDMDL
MODEL 5
REMARK VINA RESULT:    -7.086      2.909      3.860
REMARK INTER + INTRA:         -12.044
REMARK INTER:                 -10.672
REMARK INTRA:                  -1.372
REMARK UNBOUND:                -1.023
REMARK  Name = 
REMARK  10 active torsions:
REMARK  status: ('A' for Active; 'I' for Inactive)
REMARK    1  A    between atoms: N_1  and  C_2
REMARK    2  A    between atoms: C_2  and  C_3
REMARK    3  A    between atoms: C_3  and  N_4
REMARK    4  A    between atoms: C_3  and  C_20
REMARK    5  A    between atoms: N_4  and  C_5
REMARK    6  A    between atoms: C_5  and  C_6
REMARK    7  A    between atoms: C_9  and  C_10
REMARK    8  A    between atoms: C_10  and  N_11
REMARK    9  A    between atoms: N_11  and  C_12
REMARK   10  A    between atoms: C_12  and  C_13
REMARK                            x       y       z     vdW  Elec       q    Type
REMARK                         _______ _______ _______ _____ _____    ______ ____
ROOT
ATOM      1  N   UNL     1      48.681   6.351  14.116  0.00  0.00    +0.000 NA
ATOM      2  H   UNL     1      48.335   5.427  14.367  0.00  0.00    +0.000 HD
ENDROOT
BRANCH   1   3
ATOM      3  C   UNL     1      49.144   6.999  15.362  0.00  0.00    +0.000 C 
BRANCH   3   4
ATOM      4  C   UNL     1      48.571   6.196  16.525  0.00  0.00    +0.000 A 
ATOM      5  C   UNL     1      48.240   4.847  16.470  0.00  0.00    +0.000 A 
ATOM      6  S   UNL     1      47.647   4.230  17.942  0.00  0.00    +0.000 S 
ATOM      7  C   UNL     1      47.844   5.731  18.720  0.00  0.00    +0.000 A 
ATOM      8  N   UNL     1      47.549   5.889  20.038  0.00  0.00    +0.000 NA
ATOM      9  C   UNL     1      47.774   7.075  20.493  0.00  0.00    +0.000 A 
ATOM     10  N   UNL     1      48.249   8.127  19.748  0.00  0.00    +0.000 N 
ATOM     11  C   UNL     1      48.545   8.023  18.406  0.00  0.00    +0.000 A 
ATOM     12  O   UNL     1      48.950   8.983  17.760  0.00  0.00    +0.000 OA
ATOM     13  C   UNL     1      48.331   6.698  17.856  0.00  0.00    +0.000 A 
ATOM     14  H   UNL     1      48.395   9.032  20.168  0.00  0.00    +0.000 HD
ENDBRANCH   3   4
BRANCH   3  15
ATOM     15  C   UNL     1      50.700   7.118  15.481  0.00  0.00    +0.000 C 
BRANCH  15  16
ATOM     16  N   UNL     1      51.189   8.478  15.742  0.00  0.00    +0.000 NA
ATOM     17  H   UNL     1      52.087   8.622  15.287  0.00  0.00    +0.000 HD
ATOM     18  H   UNL     1      51.324   8.584  16.748  0.00  0.00    +0.000 HD
ENDBRANCH  15  16
ENDBRANCH   3  15
ENDBRANCH   1   3
BRANCH   1  19
ATOM     19  C   UNL     1      47.598   7.074  13.452  0.00  0.00    +0.000 C 
BRANCH  19  20
ATOM     20  C   UNL     1      46.668   6.121  12.731  0.00  0.00    +0.000 A 
ATOM     21  C   UNL     1      46.309   6.330  11.390  0.00  0.00    +0.000 A 
ATOM     22  C   UNL     1      45.437   5.451  10.742  0.00  0.00    +0.000 A 
ATOM     23  C   UNL     1      44.919   4.334  11.411  0.00  0.00    +0.000 A 
ATOM     24  C   UNL     1      45.293   4.112  12.742  0.00  0.00    +0.000 A 
ATOM     25  C   UNL     1      46.155   4.997  13.395  0.00  0.00    +0.000 A 
BRANCH  23  26
ATOM     26  C   UNL     1      43.955   3.400  10.719  0.00  0.00    +0.000 C 
BRANCH  26  27
ATOM     27  N   UNL     1      44.652   2.234  10.178  0.00  0.00    +0.000 NA
ATOM     28  H   UNL     1      44.151   1.397  10.472  0.00  0.00    +0.000 HD
BRANCH  27  29
ATOM     29  C   UNL     1      44.726   2.292   8.718  0.00  0.00    +0.000 C 
BRANCH  29  30
ATOM     30  C   UNL     1      46.167   2.529   8.261  0.00  0.00    +0.000 C 
ATOM     31  C   UNL     1      46.814   1.329   7.581  0.00  0.00    +0.000 C 
ATOM     32  C   UNL     1      47.871   1.979   6.718  0.00  0.00    +0.000 C 
ATOM     33  N   UNL     1      47.205   3.166   6.173  0.00  0.00    +0.000 NA
ATOM     34  C   UNL     1      46.282   3.642   7.217  0.00  0.00    +0.000 C 
ATOM     35  H   UNL     1      46.652   2.880   5.363  0.00  0.00    +0.000 HD
ENDBRANCH  29  30
ENDBRANCH  27  29
ENDBRANCH  26  27
ENDBRANCH  23  26
ENDBRANCH  19  20
ENDBRANCH   1  19
TORSDOF 10
ENDMDL
MODEL 6
REMARK VINA RESULT:    -6.833      2.961      4.184
REMARK INTER + INTRA:         -11.651
REMARK INTER:                  -9.580
REMARK INTRA:                  -2.071
REMARK UNBOUND:                -1.023
REMARK  Name = 
REMARK  10 active torsions:
REMARK  status: ('A' for Active; 'I' for Inactive)
REMARK    1  A    between atoms: N_1  and  C_2
REMARK    2  A    between atoms: C_2  and  C_3
REMARK    3  A    between atoms: C_3  and  N_4
REMARK    4  A    between atoms: C_3  and  C_20
REMARK    5  A    between atoms: N_4  and  C_5
REMARK    6  A    between atoms: C_5  and  C_6
REMARK    7  A    between atoms: C_9  and  C_10
REMARK    8  A    between atoms: C_10  and  N_11
REMARK    9  A    between atoms: N_11  and  C_12
REMARK   10  A    between atoms: C_12  and  C_13
REMARK                            x       y       z     vdW  Elec       q    Type
REMARK                         _______ _______ _______ _____ _____    ______ ____
ROOT
ATOM      1  N   UNL     1      49.198   6.824  14.078  0.00  0.00    +0.000 NA
ATOM      2  H   UNL     1      48.655   5.970  13.956  0.00  0.00    +0.000 HD
ENDROOT
BRANCH   1   3
ATOM      3  C   UNL     1      48.716   7.479  15.311  0.00  0.00    +0.000 C 
BRANCH   3   4
ATOM      4  C   UNL     1      49.028   6.539  16.471  0.00  0.00    +0.000 A 
ATOM      5  C   UNL     1      49.912   6.822  17.505  0.00  0.00    +0.000 A 
ATOM      6  S   UNL     1      50.026   5.581  18.664  0.00  0.00    +0.000 S 
ATOM      7  C   UNL     1      48.871   4.632  17.849  0.00  0.00    +0.000 A 
ATOM      8  N   UNL     1      48.471   3.428  18.340  0.00  0.00    +0.000 NA
ATOM      9  C   UNL     1      47.573   2.838  17.627  0.00  0.00    +0.000 A 
ATOM     10  N   UNL     1      47.048   3.329  16.457  0.00  0.00    +0.000 N 
ATOM     11  C   UNL     1      47.433   4.534  15.909  0.00  0.00    +0.000 A 
ATOM     12  O   UNL     1      46.963   4.940  14.853  0.00  0.00    +0.000 OA
ATOM     13  C   UNL     1      48.426   5.246  16.691  0.00  0.00    +0.000 A 
ATOM     14  H   UNL     1      46.351   2.810  15.945  0.00  0.00    +0.000 HD
ENDBRANCH   3   4
BRANCH   3  15
ATOM     15  C   UNL     1      49.329   8.897  15.564  0.00  0.00    +0.000 C 
BRANCH  15  16
ATOM     16  N   UNL     1      48.339   9.969  15.735  0.00  0.00    +0.000 NA
ATOM     17  H   UNL     1      48.634  10.605  16.471  0.00  0.00    +0.000 HD
ATOM     18  H   UNL     1      47.454   9.546  16.019  0.00  0.00    +0.000 HD
ENDBRANCH  15  16
ENDBRANCH   3  15
ENDBRANCH   1   3
BRANCH   1  19
ATOM     19  C   UNL     1      49.025   7.641  12.878  0.00  0.00    +0.000 C 
BRANCH  19  20
ATOM     20  C   UNL     1      47.578   7.661  12.434  0.00  0.00    +0.000 A 
ATOM     21  C   UNL     1      46.702   8.674  12.852  0.00  0.00    +0.000 A 
ATOM     22  C   UNL     1      45.365   8.671  12.446  0.00  0.00    +0.000 A 
ATOM     23  C   UNL     1      44.876   7.667  11.600  0.00  0.00    +0.000 A 
ATOM     24  C   UNL     1      45.754   6.666  11.165  0.00  0.00    +0.000 A 
ATOM     25  C   UNL     1      47.088   6.661  11.580  0.00  0.00    +0.000 A 
BRANCH  23  26
ATOM     26  C   UNL     1      43.424   7.648  11.185  0.00  0.00    +0.000 C 
BRANCH  26  27
ATOM     27  N   UNL     1      43.031   6.320  10.715  0.00  0.00    +0.000 NA
ATOM     28  H   UNL     1      43.874   5.810  10.456  0.00  0.00    +0.000 HD
BRANCH  27  29
ATOM     29  C   UNL     1      42.295   5.590  11.748  0.00  0.00    +0.000 C 
BRANCH  29  30
ATOM     30  C   UNL     1      42.975   4.253  12.049  0.00  0.00    +0.000 C 
ATOM     31  C   UNL     1      43.836   3.718  10.912  0.00  0.00    +0.000 C 
ATOM     32  C   UNL     1      44.822   2.835  11.641  0.00  0.00    +0.000 C 
ATOM     33  N   UNL     1      45.163   3.600  12.845  0.00  0.00    +0.000 NA
ATOM     34  C   UNL     1      43.946   4.334  13.230  0.00  0.00    +0.000 C 
ATOM     35  H   UNL     1      45.883   4.281  12.599  0.00  0.00    +0.000 HD
ENDBRANCH  29  30
ENDBRANCH  27  29
ENDBRANCH  26  27
ENDBRANCH  23  26
ENDBRANCH  19  20
ENDBRANCH   1  19
TORSDOF 10
ENDMDL
MODEL 7
REMARK VINA RESULT:    -6.788      2.563      3.521
REMARK INTER + INTRA:         -11.581
REMARK INTER:                 -10.654
REMARK INTRA:                  -0.928
REMARK UNBOUND:                -1.023
REMARK  Name = 
REMARK  10 active torsions:
REMARK  status: ('A' for Active; 'I' for Inactive)
REMARK    1  A    between atoms: N_1  and  C_2
REMARK    2  A    between atoms: C_2  and  C_3
REMARK    3  A    between atoms: C_3  and  N_4
REMARK    4  A    between atoms: C_3  and  C_20
REMARK    5  A    between atoms: N_4  and  C_5
REMARK    6  A    between atoms: C_5  and  C_6
REMARK    7  A    between atoms: C_9  and  C_10
REMARK    8  A    between atoms: C_10  and  N_11
REMARK    9  A    between atoms: N_11  and  C_12
REMARK   10  A    between atoms: C_12  and  C_13
REMARK                            x       y       z     vdW  Elec       q    Type
REMARK                         _______ _______ _______ _____ _____    ______ ____
ROOT
ATOM      1  N   UNL     1      47.151   7.631  14.029  0.00  0.00    +0.000 NA
ATOM      2  H   UNL     1      46.487   7.867  14.765  0.00  0.00    +0.000 HD
ENDROOT
BRANCH   1   3
ATOM      3  C   UNL     1      48.336   8.493  14.214  0.00  0.00    +0.000 C 
BRANCH   3   4
ATOM      4  C   UNL     1      48.585   8.600  15.715  0.00  0.00    +0.000 A 
ATOM      5  C   UNL     1      48.651   9.793  16.424  0.00  0.00    +0.000 A 
ATOM      6  S   UNL     1      48.915   9.580  18.092  0.00  0.00    +0.000 S 
ATOM      7  C   UNL     1      48.915   7.885  17.938  0.00  0.00    +0.000 A 
ATOM      8  N   UNL     1      49.060   7.075  19.021  0.00  0.00    +0.000 NA
ATOM      9  C   UNL     1      49.012   5.815  18.750  0.00  0.00    +0.000 A 
ATOM     10  N   UNL     1      48.853   5.285  17.494  0.00  0.00    +0.000 N 
ATOM     11  C   UNL     1      48.720   6.063  16.363  0.00  0.00    +0.000 A 
ATOM     12  O   UNL     1      48.598   5.563  15.250  0.00  0.00    +0.000 OA
ATOM     13  C   UNL     1      48.742   7.489  16.622  0.00  0.00    +0.000 A 
ATOM     14  H   UNL     1      48.832   4.287  17.353  0.00  0.00    +0.000 HD
ENDBRANCH   3   4
BRANCH   3  15
ATOM     15  C   UNL     1      49.619   7.986  13.473  0.00  0.00    +0.000 C 
BRANCH  15  16
ATOM     16  N   UNL     1      49.472   6.673  12.829  0.00  0.00    +0.000 NA
ATOM     17  H   UNL     1      50.370   6.352  12.479  0.00  0.00    +0.000 HD
ATOM     18  H   UNL     1      48.840   6.774  12.034  0.00  0.00    +0.000 HD
ENDBRANCH  15  16
ENDBRANCH   3  15
ENDBRANCH   1   3
BRANCH   1  19
ATOM     19  C   UNL     1      46.485   7.825  12.742  0.00  0.00    +0.000 C 
BRANCH  19  20
ATOM     20  C   UNL     1      45.737   6.577  12.321  0.00  0.00    +0.000 A 
ATOM     21  C   UNL     1      46.180   5.301  12.700  0.00  0.00    +0.000 A 
ATOM     22  C   UNL     1      45.488   4.157  12.291  0.00  0.00    +0.000 A 
ATOM     23  C   UNL     1      44.329   4.263  11.510  0.00  0.00    +0.000 A 
ATOM     24  C   UNL     1      43.873   5.537  11.150  0.00  0.00    +0.000 A 
ATOM     25  C   UNL     1      44.571   6.681  11.547  0.00  0.00    +0.000 A 
BRANCH  23  26
ATOM     26  C   UNL     1      43.598   3.027  11.045  0.00  0.00    +0.000 C 
BRANCH  26  27
ATOM     27  N   UNL     1      44.445   2.213  10.173  0.00  0.00    +0.000 NA
ATOM     28  H   UNL     1      44.020   1.291  10.084  0.00  0.00    +0.000 HD
BRANCH  27  29
ATOM     29  C   UNL     1      44.593   2.831   8.855  0.00  0.00    +0.000 C 
BRANCH  29  30
ATOM     30  C   UNL     1      46.053   2.779   8.398  0.00  0.00    +0.000 C 
ATOM     31  C   UNL     1      46.496   1.421   7.870  0.00  0.00    +0.000 C 
ATOM     32  C   UNL     1      47.643   1.789   6.956  0.00  0.00    +0.000 C 
ATOM     33  N   UNL     1      47.176   2.997   6.269  0.00  0.00    +0.000 NA
ATOM     34  C   UNL     1      46.344   3.732   7.236  0.00  0.00    +0.000 C 
ATOM     35  H   UNL     1      46.582   2.713   5.487  0.00  0.00    +0.000 HD
ENDBRANCH  29  30
ENDBRANCH  27  29
ENDBRANCH  26  27
ENDBRANCH  23  26
ENDBRANCH  19  20
ENDBRANCH   1  19
TORSDOF 10
ENDMDL
MODEL 8
REMARK VINA RESULT:    -6.717      3.263      8.463
REMARK INTER + INTRA:         -11.471
REMARK INTER:                  -9.786
REMARK INTRA:                  -1.685
REMARK UNBOUND:                -1.023
REMARK  Name = 
REMARK  10 active torsions:
REMARK  status: ('A' for Active; 'I' for Inactive)
REMARK    1  A    between atoms: N_1  and  C_2
REMARK    2  A    between atoms: C_2  and  C_3
REMARK    3  A    between atoms: C_3  and  N_4
REMARK    4  A    between atoms: C_3  and  C_20
REMARK    5  A    between atoms: N_4  and  C_5
REMARK    6  A    between atoms: C_5  and  C_6
REMARK    7  A    between atoms: C_9  and  C_10
REMARK    8  A    between atoms: C_10  and  N_11
REMARK    9  A    between atoms: N_11  and  C_12
REMARK   10  A    between atoms: C_12  and  C_13
REMARK                            x       y       z     vdW  Elec       q    Type
REMARK                         _______ _______ _______ _____ _____    ______ ____
ROOT
ATOM      1  N   UNL     1      47.292   6.942  11.571  0.00  0.00    +0.000 NA
ATOM      2  H   UNL     1      47.674   6.762  10.644  0.00  0.00    +0.000 HD
ENDROOT
BRANCH   1   3
ATOM      3  C   UNL     1      45.854   7.236  11.403  0.00  0.00    +0.000 C 
BRANCH   3   4
ATOM      4  C   UNL     1      45.097   5.938  11.664  0.00  0.00    +0.000 A 
ATOM      5  C   UNL     1      44.389   5.652  12.825  0.00  0.00    +0.000 A 
ATOM      6  S   UNL     1      43.629   4.129  12.803  0.00  0.00    +0.000 S 
ATOM      7  C   UNL     1      44.188   3.806  11.229  0.00  0.00    +0.000 A 
ATOM      8  N   UNL     1      43.860   2.654  10.584  0.00  0.00    +0.000 NA
ATOM      9  C   UNL     1      44.334   2.562   9.388  0.00  0.00    +0.000 A 
ATOM     10  N   UNL     1      45.125   3.506   8.780  0.00  0.00    +0.000 N 
ATOM     11  C   UNL     1      45.500   4.681   9.398  0.00  0.00    +0.000 A 
ATOM     12  O   UNL     1      46.222   5.499   8.839  0.00  0.00    +0.000 OA
ATOM     13  C   UNL     1      44.968   4.839  10.737  0.00  0.00    +0.000 A 
ATOM     14  H   UNL     1      45.469   3.367   7.843  0.00  0.00    +0.000 HD
ENDBRANCH   3   4
BRANCH   3  15
ATOM     15  C   UNL     1      45.323   8.384  12.326  0.00  0.00    +0.000 C 
BRANCH  15  16
ATOM     16  N   UNL     1      44.182   9.130  11.776  0.00  0.00    +0.000 NA
ATOM     17  H   UNL     1      43.342   8.930  12.312  0.00  0.00    +0.000 HD
ATOM     18  H   UNL     1      44.027   8.818  10.817  0.00  0.00    +0.000 HD
ENDBRANCH  15  16
ENDBRANCH   3  15
ENDBRANCH   1   3
BRANCH   1  19
ATOM     19  C   UNL     1      48.046   8.046  12.162  0.00  0.00    +0.000 C 
BRANCH  19  20
ATOM     20  C   UNL     1      48.744   7.612  13.434  0.00  0.00    +0.000 A 
ATOM     21  C   UNL     1      50.033   8.069  13.749  0.00  0.00    +0.000 A 
ATOM     22  C   UNL     1      50.671   7.648  14.919  0.00  0.00    +0.000 A 
ATOM     23  C   UNL     1      50.030   6.776  15.809  0.00  0.00    +0.000 A 
ATOM     24  C   UNL     1      48.735   6.337  15.507  0.00  0.00    +0.000 A 
ATOM     25  C   UNL     1      48.101   6.747  14.332  0.00  0.00    +0.000 A 
BRANCH  23  26
ATOM     26  C   UNL     1      50.730   6.300  17.059  0.00  0.00    +0.000 C 
BRANCH  26  27
ATOM     27  N   UNL     1      51.002   4.864  16.993  0.00  0.00    +0.000 NA
ATOM     28  H   UNL     1      51.996   4.735  16.811  0.00  0.00    +0.000 HD
BRANCH  27  29
ATOM     29  C   UNL     1      50.625   4.197  18.239  0.00  0.00    +0.000 C 
BRANCH  29  30
ATOM     30  C   UNL     1      49.396   3.311  18.025  0.00  0.00    +0.000 C 
ATOM     31  C   UNL     1      48.067   4.050  18.121  0.00  0.00    +0.000 C 
ATOM     32  C   UNL     1      47.153   3.181  17.287  0.00  0.00    +0.000 C 
ATOM     33  N   UNL     1      47.977   2.803  16.135  0.00  0.00    +0.000 NA
ATOM     34  C   UNL     1      49.358   2.678  16.632  0.00  0.00    +0.000 C 
ATOM     35  H   UNL     1      47.948   3.565  15.456  0.00  0.00    +0.000 HD
ENDBRANCH  29  30
ENDBRANCH  27  29
ENDBRANCH  26  27
ENDBRANCH  23  26
ENDBRANCH  19  20
ENDBRANCH   1  19
TORSDOF 10
ENDMDL
MODEL 9
REMARK VINA RESULT:    -6.633      3.097      4.217
REMARK INTER + INTRA:         -11.340
REMARK INTER:                  -9.911
REMARK INTRA:                  -1.430
REMARK UNBOUND:                -1.023
REMARK  Name = 
REMARK  10 active torsions:
REMARK  status: ('A' for Active; 'I' for Inactive)
REMARK    1  A    between atoms: N_1  and  C_2
REMARK    2  A    between atoms: C_2  and  C_3
REMARK    3  A    between atoms: C_3  and  N_4
REMARK    4  A    between atoms: C_3  and  C_20
REMARK    5  A    between atoms: N_4  and  C_5
REMARK    6  A    between atoms: C_5  and  C_6
REMARK    7  A    between atoms: C_9  and  C_10
REMARK    8  A    between atoms: C_10  and  N_11
REMARK    9  A    between atoms: N_11  and  C_12
REMARK   10  A    between atoms: C_12  and  C_13
REMARK                            x       y       z     vdW  Elec       q    Type
REMARK                         _______ _______ _______ _____ _____    ______ ____
ROOT
ATOM      1  N   UNL     1      49.762   7.014  13.846  0.00  0.00    +0.000 NA
ATOM      2  H   UNL     1      49.413   6.176  14.309  0.00  0.00    +0.000 HD
ENDROOT
BRANCH   1   3
ATOM      3  C   UNL     1      50.348   7.880  14.890  0.00  0.00    +0.000 C 
BRANCH   3   4
ATOM      4  C   UNL     1      50.185   7.153  16.221  0.00  0.00    +0.000 A 
ATOM      5  C   UNL     1      50.997   6.116  16.663  0.00  0.00    +0.000 A 
ATOM      6  S   UNL     1      50.576   5.527  18.203  0.00  0.00    +0.000 S 
ATOM      7  C   UNL     1      49.314   6.659  18.356  0.00  0.00    +0.000 A 
ATOM      8  N   UNL     1      48.553   6.723  19.482  0.00  0.00    +0.000 NA
ATOM      9  C   UNL     1      47.654   7.648  19.462  0.00  0.00    +0.000 A 
ATOM     10  N   UNL     1      47.428   8.504  18.412  0.00  0.00    +0.000 N 
ATOM     11  C   UNL     1      48.159   8.467  17.244  0.00  0.00    +0.000 A 
ATOM     12  O   UNL     1      47.924   9.231  16.314  0.00  0.00    +0.000 OA
ATOM     13  C   UNL     1      49.200   7.458  17.231  0.00  0.00    +0.000 A 
ATOM     14  H   UNL     1      46.701   9.201  18.461  0.00  0.00    +0.000 HD
ENDBRANCH   3   4
BRANCH   3  15
ATOM     15  C   UNL     1      51.848   8.256  14.643  0.00  0.00    +0.000 C 
BRANCH  15  16
ATOM     16  N   UNL     1      52.367   7.860  13.327  0.00  0.00    +0.000 NA
ATOM     17  H   UNL     1      51.773   7.144  12.917  0.00  0.00    +0.000 HD
ATOM     18  H   UNL     1      53.298   7.463  13.455  0.00  0.00    +0.000 HD
ENDBRANCH  15  16
ENDBRANCH   3  15
ENDBRANCH   1   3
BRANCH   1  19
ATOM     19  C   UNL     1      48.646   7.633  13.135  0.00  0.00    +0.000 C 
BRANCH  19  20
ATOM     20  C   UNL     1      47.417   6.750  13.172  0.00  0.00    +0.000 A 
ATOM     21  C   UNL     1      47.465   5.458  13.716  0.00  0.00    +0.000 A 
ATOM     22  C   UNL     1      46.327   4.648  13.731  0.00  0.00    +0.000 A 
ATOM     23  C   UNL     1      45.109   5.117  13.219  0.00  0.00    +0.000 A 
ATOM     24  C   UNL     1      45.053   6.414  12.696  0.00  0.00    +0.000 A 
ATOM     25  C   UNL     1      46.194   7.220  12.669  0.00  0.00    +0.000 A 
BRANCH  23  26
ATOM     26  C   UNL     1      43.886   4.232  13.209  0.00  0.00    +0.000 C 
BRANCH  26  27
ATOM     27  N   UNL     1      44.176   2.943  12.582  0.00  0.00    +0.000 NA
ATOM     28  H   UNL     1      43.730   2.212  13.135  0.00  0.00    +0.000 HD
BRANCH  27  29
ATOM     29  C   UNL     1      43.687   2.904  11.204  0.00  0.00    +0.000 C 
BRANCH  29  30
ATOM     30  C   UNL     1      44.835   3.137  10.219  0.00  0.00    +0.000 C 
ATOM     31  C   UNL     1      44.844   2.183   9.032  0.00  0.00    +0.000 C 
ATOM     32  C   UNL     1      45.589   2.978   7.984  0.00  0.00    +0.000 C 
ATOM     33  N   UNL     1      45.069   4.341   8.136  0.00  0.00    +0.000 NA
ATOM     34  C   UNL     1      44.787   4.522   9.570  0.00  0.00    +0.000 C 
ATOM     35  H   UNL     1      44.187   4.406   7.626  0.00  0.00    +0.000 HD
ENDBRANCH  29  30
ENDBRANCH  27  29
ENDBRANCH  26  27
ENDBRANCH  23  26
ENDBRANCH  19  20
ENDBRANCH   1  19
TORSDOF 10
ENDMDL
