MODEL 1
REMARK VINA RESULT:    -8.773      0.000      0.000
REMARK INTER + INTRA:         -12.223
REMARK INTER:                 -11.337
REMARK INTRA:                  -0.886
REMARK UNBOUND:                -0.886
REMARK  Name = 
REMARK  5 active torsions:
REMARK  status: ('A' for Active; 'I' for Inactive)
REMARK    1  A    between atoms: C_2  and  C_4
REMARK    2  A    between atoms: C_7  and  O_8
REMARK    3  A    between atoms: O_8  and  C_9
REMARK    4  A    between atoms: C_9  and  C_10
REMARK    5  A    between atoms: C_14  and  C_15
REMARK                            x       y       z     vdW  Elec       q    Type
REMARK                         _______ _______ _______ _____ _____    ______ ____
ROOT
ATOM      1  C   UNL     1      43.958   4.917  11.341  0.00  0.00    +0.000 C 
ATOM      2  C   UNL     1      42.613   5.129  12.029  0.00  0.00    +0.000 C 
ATOM      3  C   UNL     1      43.023   6.027  10.919  0.00  0.00    +0.000 C 
ATOM      4  F   UNL     1      43.327   7.334  11.271  0.00  0.00    +0.000 F 
ENDROOT
BRANCH   1   5
ATOM      5  C   UNL     1      45.219   5.209  12.139  0.00  0.00    +0.000 A 
ATOM      6  C   UNL     1      45.656   4.338  13.148  0.00  0.00    +0.000 A 
ATOM      7  C   UNL     1      46.842   4.574  13.844  0.00  0.00    +0.000 A 
ATOM      8  C   UNL     1      47.629   5.685  13.533  0.00  0.00    +0.000 A 
ATOM      9  C   UNL     1      47.252   6.579  12.521  0.00  0.00    +0.000 A 
ATOM     10  C   UNL     1      46.033   6.325  11.859  0.00  0.00    +0.000 A 
BRANCH   9  11
ATOM     11  C   UNL     1      48.114   7.706  12.103  0.00  0.00    +0.000 A 
ATOM     12  C   UNL     1      49.450   7.512  11.708  0.00  0.00    +0.000 A 
ATOM     13  C   UNL     1      50.268   8.602  11.410  0.00  0.00    +0.000 A 
ATOM     14  C   UNL     1      49.729   9.872  11.495  0.00  0.00    +0.000 A 
ATOM     15  N   UNL     1      48.452  10.116  11.843  0.00  0.00    +0.000 NA
ATOM     16  C   UNL     1      47.684   9.039  12.138  0.00  0.00    +0.000 A 
ATOM     17  F   UNL     1      46.426   9.314  12.522  0.00  0.00    +0.000 F 
ENDBRANCH   9  11
ENDBRANCH   1   5
BRANCH   1  18
ATOM     18  O   UNL     1      43.951   3.673  10.602  0.00  0.00    +0.000 OA
BRANCH  18  22
ATOM     19  C   UNL     1      46.470   2.758   7.552  0.00  0.00    +0.000 A 
ATOM     20  N   UNL     1      46.187   4.080   7.688  0.00  0.00    +0.000 NA
ATOM     21  C   UNL     1      45.370   4.399   8.721  0.00  0.00    +0.000 A 
ATOM     22  C   UNL     1      44.827   3.474   9.582  0.00  0.00    +0.000 A 
ATOM     23  C   UNL     1      45.206   2.166   9.348  0.00  0.00    +0.000 A 
ATOM     24  N   UNL     1      46.018   1.775   8.347  0.00  0.00    +0.000 NA
BRANCH  19  26
ATOM     25  N   UNL     1      47.267   3.205   5.283  0.00  0.00    +0.000 N 
ATOM     26  C   UNL     1      47.326   2.360   6.366  0.00  0.00    +0.000 C 
ATOM     27  O   UNL     1      48.025   1.357   6.335  0.00  0.00    +0.000 OA
ATOM     28  H   UNL     1      47.810   2.980   4.460  0.00  0.00    +0.000 HD
ATOM     29  H   UNL     1      46.689   4.033   5.308  0.00  0.00    +0.000 HD
ENDBRANCH  19  26
ENDBRANCH  18  22
ENDBRANCH   1  18
TORSDOF 5
ENDMDL
MODEL 2
REMARK VINA RESULT:    -8.324      2.413      3.530
REMARK INTER + INTRA:         -11.643
REMARK INTER:                 -11.142
REMARK INTRA:                  -0.501
REMARK UNBOUND:                -0.886
REMARK  Name = 
REMARK  5 active torsions:
REMARK  status: ('A' for Active; 'I' for Inactive)
REMARK    1  A    between atoms: C_2  and  C_4
REMARK    2  A    between atoms: C_7  and  O_8
REMARK    3  A    between atoms: O_8  and  C_9
REMARK    4  A    between atoms: C_9  and  C_10
REMARK    5  A    between atoms: C_14  and  C_15
REMARK                            x       y       z     vdW  Elec       q    Type
REMARK                         _______ _______ _______ _____ _____    ______ ____
ROOT
ATOM      1  C   UNL     1      43.974   5.038  11.331  0.00  0.00    +0.000 C 
ATOM      2  C   UNL     1      42.762   5.145  12.251  0.00  0.00    +0.000 C 
ATOM      3  C   UNL     1      42.847   6.003  11.042  0.00  0.00    +0.000 C 
ATOM      4  F   UNL     1      43.046   7.357  11.268  0.00  0.00    +0.000 F 
ENDROOT
BRANCH   1   5
ATOM      5  C   UNL     1      45.314   5.526  11.859  0.00  0.00    +0.000 A 
ATOM      6  C   UNL     1      46.000   6.577  11.234  0.00  0.00    +0.000 A 
ATOM      7  C   UNL     1      47.201   7.065  11.749  0.00  0.00    +0.000 A 
ATOM      8  C   UNL     1      47.737   6.518  12.917  0.00  0.00    +0.000 A 
ATOM      9  C   UNL     1      47.086   5.479  13.595  0.00  0.00    +0.000 A 
ATOM     10  C   UNL     1      45.889   4.992  13.030  0.00  0.00    +0.000 A 
BRANCH   9  11
ATOM     11  C   UNL     1      47.577   4.949  14.886  0.00  0.00    +0.000 A 
ATOM     12  C   UNL     1      48.086   5.794  15.889  0.00  0.00    +0.000 A 
ATOM     13  C   UNL     1      48.631   5.261  17.058  0.00  0.00    +0.000 A 
ATOM     14  C   UNL     1      48.641   3.887  17.212  0.00  0.00    +0.000 A 
ATOM     15  N   UNL     1      48.145   3.032  16.297  0.00  0.00    +0.000 NA
ATOM     16  C   UNL     1      47.633   3.578  15.167  0.00  0.00    +0.000 A 
ATOM     17  F   UNL     1      47.184   2.700  14.254  0.00  0.00    +0.000 F 
ENDBRANCH   9  11
ENDBRANCH   1   5
BRANCH   1  18
ATOM     18  O   UNL     1      43.986   3.752  10.667  0.00  0.00    +0.000 OA
BRANCH  18  22
ATOM     19  C   UNL     1      46.400   2.758   7.557  0.00  0.00    +0.000 A 
ATOM     20  N   UNL     1      46.049   4.069   7.617  0.00  0.00    +0.000 NA
ATOM     21  C   UNL     1      45.268   4.417   8.667  0.00  0.00    +0.000 A 
ATOM     22  C   UNL     1      44.820   3.528   9.617  0.00  0.00    +0.000 A 
ATOM     23  C   UNL     1      45.261   2.229   9.454  0.00  0.00    +0.000 A 
ATOM     24  N   UNL     1      46.044   1.811   8.440  0.00  0.00    +0.000 NA
BRANCH  19  26
ATOM     25  N   UNL     1      47.119   3.130   5.249  0.00  0.00    +0.000 N 
ATOM     26  C   UNL     1      47.218   2.322   6.357  0.00  0.00    +0.000 C 
ATOM     27  O   UNL     1      47.919   1.321   6.337  0.00  0.00    +0.000 OA
ATOM     28  H   UNL     1      47.636   2.878   4.417  0.00  0.00    +0.000 HD
ATOM     29  H   UNL     1      46.540   3.957   5.266  0.00  0.00    +0.000 HD
ENDBRANCH  19  26
ENDBRANCH  18  22
ENDBRANCH   1  18
TORSDOF 5
ENDMDL
MODEL 3
REMARK VINA RESULT:    -8.006      1.664      2.286
REMARK INTER + INTRA:         -11.232
REMARK INTER:                 -11.075
REMARK INTRA:                  -0.157
REMARK UNBOUND:                -0.886
REMARK  Name = 
REMARK  5 active torsions:
REMARK  status: ('A' for Active; 'I' for Inactive)
REMARK    1  A    between atoms: C_2  and  C_4
REMARK    2  A    between atoms: C_7  and  O_8
REMARK    3  A    between atoms: O_8  and  C_9
REMARK    4  A    between atoms: C_9  and  C_10
REMARK    5  A    between atoms: C_14  and  C_15
REMARK                            x       y       z     vdW  Elec       q    Type
REMARK                         _______ _______ _______ _____ _____    ______ ____
ROOT
ATOM      1  C   UNL     1      43.994   4.026  11.423  0.00  0.00    +0.000 C 
ATOM      2  C   UNL     1      44.730   2.977  12.252  0.00  0.00    +0.000 C 
ATOM      3  C   UNL     1      43.350   3.379  12.629  0.00  0.00    +0.000 C 
ATOM      4  F   UNL     1      43.227   4.112  13.800  0.00  0.00    +0.000 F 
ENDROOT
BRANCH   1   5
ATOM      5  C   UNL     1      44.502   5.458  11.475  0.00  0.00    +0.000 A 
ATOM      6  C   UNL     1      43.639   6.541  11.255  0.00  0.00    +0.000 A 
ATOM      7  C   UNL     1      44.090   7.858  11.357  0.00  0.00    +0.000 A 
ATOM      8  C   UNL     1      45.419   8.120  11.698  0.00  0.00    +0.000 A 
ATOM      9  C   UNL     1      46.322   7.077  11.947  0.00  0.00    +0.000 A 
ATOM     10  C   UNL     1      45.838   5.759  11.807  0.00  0.00    +0.000 A 
BRANCH   9  11
ATOM     11  C   UNL     1      47.705   7.325  12.407  0.00  0.00    +0.000 A 
ATOM     12  C   UNL     1      48.627   8.049  11.629  0.00  0.00    +0.000 A 
ATOM     13  C   UNL     1      49.952   8.186  12.042  0.00  0.00    +0.000 A 
ATOM     14  C   UNL     1      50.331   7.611  13.240  0.00  0.00    +0.000 A 
ATOM     15  N   UNL     1      49.487   6.929  14.037  0.00  0.00    +0.000 NA
ATOM     16  C   UNL     1      48.209   6.801  13.604  0.00  0.00    +0.000 A 
ATOM     17  F   UNL     1      47.399   6.081  14.399  0.00  0.00    +0.000 F 
ENDBRANCH   9  11
ENDBRANCH   1   5
BRANCH   1  18
ATOM     18  O   UNL     1      43.700   3.505  10.106  0.00  0.00    +0.000 OA
BRANCH  18  22
ATOM     19  C   UNL     1      46.589   2.723   7.363  0.00  0.00    +0.000 A 
ATOM     20  N   UNL     1      46.207   4.025   7.441  0.00  0.00    +0.000 NA
ATOM     21  C   UNL     1      45.264   4.302   8.374  0.00  0.00    +0.000 A 
ATOM     22  C   UNL     1      44.692   3.353   9.189  0.00  0.00    +0.000 A 
ATOM     23  C   UNL     1      45.179   2.070   9.024  0.00  0.00    +0.000 A 
ATOM     24  N   UNL     1      46.120   1.723   8.124  0.00  0.00    +0.000 NA
BRANCH  19  26
ATOM     25  N   UNL     1      47.503   3.105   5.127  0.00  0.00    +0.000 N 
ATOM     26  C   UNL     1      47.594   2.369   6.284  0.00  0.00    +0.000 C 
ATOM     27  O   UNL     1      48.433   1.487   6.397  0.00  0.00    +0.000 OA
ATOM     28  H   UNL     1      48.142   2.901   4.370  0.00  0.00    +0.000 HD
ATOM     29  H   UNL     1      46.809   3.833   5.033  0.00  0.00    +0.000 HD
ENDBRANCH  19  26
ENDBRANCH  18  22
ENDBRANCH   1  18
TORSDOF 5
ENDMDL
MODEL 4
REMARK VINA RESULT:    -7.603      3.559      7.133
REMARK INTER + INTRA:         -10.711
REMARK INTER:                 -10.249
REMARK INTRA:                  -0.462
REMARK UNBOUND:                -0.886
REMARK  Name = 
REMARK  5 active torsions:
REMARK  status: ('A' for Active; 'I' for Inactive)
REMARK    1  A    between atoms: C_2  and  C_4
REMARK    2  A    between atoms: C_7  and  O_8
REMARK    3  A    between atoms: O_8  and  C_9
REMARK    4  A    between atoms: C_9  and  C_10
REMARK    5  A    between atoms: C_14  and  C_15
REMARK                            x       y       z     vdW  Elec       q    Type
REMARK                         _______ _______ _______ _____ _____    ______ ____
ROOT
ATOM      1  C   UNL     1      46.497   7.355  12.402  0.00  0.00    +0.000 C 
ATOM      2  C   UNL     1      46.834   8.712  11.791  0.00  0.00    +0.000 C 
ATOM      3  C   UNL     1      46.022   8.645  13.033  0.00  0.00    +0.000 C 
ATOM      4  F   UNL     1      44.687   9.003  12.909  0.00  0.00    +0.000 F 
ENDROOT
BRANCH   1   5
ATOM      5  C   UNL     1      45.540   6.451  11.642  0.00  0.00    +0.000 A 
ATOM      6  C   UNL     1      44.152   6.553  11.819  0.00  0.00    +0.000 A 
ATOM      7  C   UNL     1      43.269   5.764  11.082  0.00  0.00    +0.000 A 
ATOM      8  C   UNL     1      43.758   4.861  10.135  0.00  0.00    +0.000 A 
ATOM      9  C   UNL     1      45.134   4.730   9.901  0.00  0.00    +0.000 A 
ATOM     10  C   UNL     1      45.998   5.523  10.686  0.00  0.00    +0.000 A 
BRANCH   9  11
ATOM     11  C   UNL     1      45.674   3.857   8.837  0.00  0.00    +0.000 A 
ATOM     12  C   UNL     1      46.314   4.382   7.700  0.00  0.00    +0.000 A 
ATOM     13  C   UNL     1      46.729   3.542   6.667  0.00  0.00    +0.000 A 
ATOM     14  C   UNL     1      46.513   2.183   6.797  0.00  0.00    +0.000 A 
ATOM     15  N   UNL     1      45.929   1.622   7.872  0.00  0.00    +0.000 NA
ATOM     16  C   UNL     1      45.525   2.464   8.854  0.00  0.00    +0.000 A 
ATOM     17  F   UNL     1      44.908   1.882   9.897  0.00  0.00    +0.000 F 
ENDBRANCH   9  11
ENDBRANCH   1   5
BRANCH   1  18
ATOM     18  O   UNL     1      47.695   6.724  12.911  0.00  0.00    +0.000 OA
BRANCH  18  22
ATOM     19  C   UNL     1      47.576   4.281  16.152  0.00  0.00    +0.000 A 
ATOM     20  N   UNL     1      46.850   3.857  15.084  0.00  0.00    +0.000 NA
ATOM     21  C   UNL     1      46.906   4.651  13.987  0.00  0.00    +0.000 A 
ATOM     22  C   UNL     1      47.621   5.825  13.927  0.00  0.00    +0.000 A 
ATOM     23  C   UNL     1      48.330   6.135  15.071  0.00  0.00    +0.000 A 
ATOM     24  N   UNL     1      48.328   5.392  16.195  0.00  0.00    +0.000 NA
BRANCH  19  26
ATOM     25  N   UNL     1      48.497   3.635  18.323  0.00  0.00    +0.000 N 
ATOM     26  C   UNL     1      47.480   3.452  17.417  0.00  0.00    +0.000 C 
ATOM     27  O   UNL     1      46.580   2.656  17.644  0.00  0.00    +0.000 OA
ATOM     28  H   UNL     1      48.488   3.097  19.179  0.00  0.00    +0.000 HD
ATOM     29  H   UNL     1      49.241   4.291  18.135  0.00  0.00    +0.000 HD
ENDBRANCH  19  26
ENDBRANCH  18  22
ENDBRANCH   1  18
TORSDOF 5
ENDMDL
MODEL 5
REMARK VINA RESULT:    -7.599      3.678      7.277
REMARK INTER + INTRA:         -10.706
REMARK INTER:                 -10.153
REMARK INTRA:                  -0.553
REMARK UNBOUND:                -0.886
REMARK  Name = 
REMARK  5 active torsions:
REMARK  status: ('A' for Active; 'I' for Inactive)
REMARK    1  A    between atoms: C_2  and  C_4
REMARK    2  A    between atoms: C_7  and  O_8
REMARK    3  A    between atoms: O_8  and  C_9
REMARK    4  A    between atoms: C_9  and  C_10
REMARK    5  A    between atoms: C_14  and  C_15
REMARK                            x       y       z     vdW  Elec       q    Type
REMARK                         _______ _______ _______ _____ _____    ______ ____
ROOT
ATOM      1  C   UNL     1      45.110   5.328  12.019  0.00  0.00    +0.000 C 
ATOM      2  C   UNL     1      44.407   6.626  11.635  0.00  0.00    +0.000 C 
ATOM      3  C   UNL     1      44.002   5.907  12.870  0.00  0.00    +0.000 C 
ATOM      4  F   UNL     1      42.751   5.308  12.845  0.00  0.00    +0.000 F 
ENDROOT
BRANCH   1   5
ATOM      5  C   UNL     1      44.876   4.107  11.144  0.00  0.00    +0.000 A 
ATOM      6  C   UNL     1      43.830   3.212  11.415  0.00  0.00    +0.000 A 
ATOM      7  C   UNL     1      43.576   2.122  10.582  0.00  0.00    +0.000 A 
ATOM      8  C   UNL     1      44.360   1.911   9.444  0.00  0.00    +0.000 A 
ATOM      9  C   UNL     1      45.406   2.783   9.114  0.00  0.00    +0.000 A 
ATOM     10  C   UNL     1      45.651   3.858   9.994  0.00  0.00    +0.000 A 
BRANCH   9  11
ATOM     11  C   UNL     1      46.185   2.642   7.865  0.00  0.00    +0.000 A 
ATOM     12  C   UNL     1      46.340   3.710   6.962  0.00  0.00    +0.000 A 
ATOM     13  C   UNL     1      47.000   3.523   5.747  0.00  0.00    +0.000 A 
ATOM     14  C   UNL     1      47.512   2.271   5.462  0.00  0.00    +0.000 A 
ATOM     15  N   UNL     1      47.416   1.220   6.298  0.00  0.00    +0.000 NA
ATOM     16  C   UNL     1      46.760   1.429   7.466  0.00  0.00    +0.000 A 
ATOM     17  F   UNL     1      46.643   0.352   8.263  0.00  0.00    +0.000 F 
ENDBRANCH   9  11
ENDBRANCH   1   5
BRANCH   1  18
ATOM     18  O   UNL     1      46.486   5.592  12.381  0.00  0.00    +0.000 OA
BRANCH  18  22
ATOM     19  C   UNL     1      48.063   4.343  15.908  0.00  0.00    +0.000 A 
ATOM     20  N   UNL     1      47.443   3.377  15.180  0.00  0.00    +0.000 NA
ATOM     21  C   UNL     1      46.939   3.777  13.988  0.00  0.00    +0.000 A 
ATOM     22  C   UNL     1      47.009   5.069  13.521  0.00  0.00    +0.000 A 
ATOM     23  C   UNL     1      47.680   5.952  14.346  0.00  0.00    +0.000 A 
ATOM     24  N   UNL     1      48.213   5.625  15.540  0.00  0.00    +0.000 NA
BRANCH  19  26
ATOM     25  N   UNL     1      48.661   4.960  18.198  0.00  0.00    +0.000 N 
ATOM     26  C   UNL     1      48.579   3.943  17.276  0.00  0.00    +0.000 C 
ATOM     27  O   UNL     1      48.918   2.806  17.571  0.00  0.00    +0.000 OA
ATOM     28  H   UNL     1      49.010   4.749  19.123  0.00  0.00    +0.000 HD
ATOM     29  H   UNL     1      48.381   5.899  17.954  0.00  0.00    +0.000 HD
ENDBRANCH  19  26
ENDBRANCH  18  22
ENDBRANCH   1  18
TORSDOF 5
ENDMDL
MODEL 6
REMARK VINA RESULT:    -7.171      3.142      7.130
REMARK INTER + INTRA:         -10.153
REMARK INTER:                  -9.886
REMARK INTRA:                  -0.267
REMARK UNBOUND:                -0.886
REMARK  Name = 
REMARK  5 active torsions:
REMARK  status: ('A' for Active; 'I' for Inactive)
REMARK    1  A    between atoms: C_2  and  C_4
REMARK    2  A    between atoms: C_7  and  O_8
REMARK    3  A    between atoms: O_8  and  C_9
REMARK    4  A    between atoms: C_9  and  C_10
REMARK    5  A    between atoms: C_14  and  C_15
REMARK                            x       y       z     vdW  Elec       q    Type
REMARK                         _______ _______ _______ _____ _____    ______ ____
ROOT
ATOM      1  C   UNL     1      44.421   5.372  11.390  0.00  0.00    +0.000 C 
ATOM      2  C   UNL     1      43.075   6.092  11.369  0.00  0.00    +0.000 C 
ATOM      3  C   UNL     1      43.577   5.505  12.638  0.00  0.00    +0.000 C 
ATOM      4  F   UNL     1      42.894   4.394  13.110  0.00  0.00    +0.000 F 
ENDROOT
BRANCH   1   5
ATOM      5  C   UNL     1      44.531   4.048  10.651  0.00  0.00    +0.000 A 
ATOM      6  C   UNL     1      43.711   2.961  10.987  0.00  0.00    +0.000 A 
ATOM      7  C   UNL     1      43.770   1.763  10.273  0.00  0.00    +0.000 A 
ATOM      8  C   UNL     1      44.645   1.632   9.193  0.00  0.00    +0.000 A 
ATOM      9  C   UNL     1      45.474   2.692   8.800  0.00  0.00    +0.000 A 
ATOM     10  C   UNL     1      45.409   3.878   9.562  0.00  0.00    +0.000 A 
BRANCH   9  11
ATOM     11  C   UNL     1      46.337   2.616   7.601  0.00  0.00    +0.000 A 
ATOM     12  C   UNL     1      46.401   3.666   6.666  0.00  0.00    +0.000 A 
ATOM     13  C   UNL     1      47.149   3.530   5.496  0.00  0.00    +0.000 A 
ATOM     14  C   UNL     1      47.837   2.349   5.288  0.00  0.00    +0.000 A 
ATOM     15  N   UNL     1      47.831   1.322   6.159  0.00  0.00    +0.000 NA
ATOM     16  C   UNL     1      47.087   1.478   7.280  0.00  0.00    +0.000 A 
ATOM     17  F   UNL     1      47.066   0.421   8.112  0.00  0.00    +0.000 F 
ENDBRANCH   9  11
ENDBRANCH   1   5
BRANCH   1  18
ATOM     18  O   UNL     1      45.495   6.315  11.164  0.00  0.00    +0.000 OA
BRANCH  18  22
ATOM     19  C   UNL     1      48.065   7.326  14.140  0.00  0.00    +0.000 A 
ATOM     20  N   UNL     1      48.089   6.016  13.779  0.00  0.00    +0.000 NA
ATOM     21  C   UNL     1      47.255   5.674  12.767  0.00  0.00    +0.000 A 
ATOM     22  C   UNL     1      46.412   6.559  12.137  0.00  0.00    +0.000 A 
ATOM     23  C   UNL     1      46.496   7.864  12.584  0.00  0.00    +0.000 A 
ATOM     24  N   UNL     1      47.305   8.279  13.579  0.00  0.00    +0.000 NA
BRANCH  19  26
ATOM     25  N   UNL     1      48.296   7.802  16.528  0.00  0.00    +0.000 N 
ATOM     26  C   UNL     1      48.936   7.728  15.314  0.00  0.00    +0.000 C 
ATOM     27  O   UNL     1      50.128   7.986  15.222  0.00  0.00    +0.000 OA
ATOM     28  H   UNL     1      48.829   8.077  17.342  0.00  0.00    +0.000 HD
ATOM     29  H   UNL     1      47.311   7.590  16.604  0.00  0.00    +0.000 HD
ENDBRANCH  19  26
ENDBRANCH  18  22
ENDBRANCH   1  18
TORSDOF 5
ENDMDL
MODEL 7
REMARK VINA RESULT:    -6.965      3.886      5.950
REMARK INTER + INTRA:          -9.886
REMARK INTER:                  -8.936
REMARK INTRA:                  -0.950
REMARK UNBOUND:                -0.886
REMARK  Name = 
REMARK  5 active torsions:
REMARK  status: ('A' for Active; 'I' for Inactive)
REMARK    1  A    between atoms: C_2  and  C_4
REMARK    2  A    between atoms: C_7  and  O_8
REMARK    3  A    between atoms: O_8  and  C_9
REMARK    4  A    between atoms: C_9  and  C_10
REMARK    5  A    between atoms: C_14  and  C_15
REMARK                            x       y       z     vdW  Elec       q    Type
REMARK                         _______ _______ _______ _____ _____    ______ ____
ROOT
ATOM      1  C   UNL     1      47.581   7.830  12.934  0.00  0.00    +0.000 C 
ATOM      2  C   UNL     1      48.124   8.921  12.015  0.00  0.00    +0.000 C 
ATOM      3  C   UNL     1      48.479   7.501  11.763  0.00  0.00    +0.000 C 
ATOM      4  F   UNL     1      49.799   7.149  12.005  0.00  0.00    +0.000 F 
ENDROOT
BRANCH   1   5
ATOM      5  C   UNL     1      48.099   7.781  14.362  0.00  0.00    +0.000 A 
ATOM      6  C   UNL     1      48.078   8.920  15.180  0.00  0.00    +0.000 A 
ATOM      7  C   UNL     1      48.500   8.865  16.509  0.00  0.00    +0.000 A 
ATOM      8  C   UNL     1      48.941   7.658  17.055  0.00  0.00    +0.000 A 
ATOM      9  C   UNL     1      48.966   6.483  16.291  0.00  0.00    +0.000 A 
ATOM     10  C   UNL     1      48.560   6.583  14.944  0.00  0.00    +0.000 A 
BRANCH   9  11
ATOM     11  C   UNL     1      49.333   5.173  16.870  0.00  0.00    +0.000 A 
ATOM     12  C   UNL     1      50.648   4.882  17.275  0.00  0.00    +0.000 A 
ATOM     13  C   UNL     1      50.987   3.607  17.729  0.00  0.00    +0.000 A 
ATOM     14  C   UNL     1      49.995   2.646  17.789  0.00  0.00    +0.000 A 
ATOM     15  N   UNL     1      48.716   2.874  17.439  0.00  0.00    +0.000 NA
ATOM     16  C   UNL     1      48.419   4.117  16.991  0.00  0.00    +0.000 A 
ATOM     17  F   UNL     1      47.144   4.305  16.609  0.00  0.00    +0.000 F 
ENDBRANCH   9  11
ENDBRANCH   1   5
BRANCH   1  18
ATOM     18  O   UNL     1      46.148   7.711  12.776  0.00  0.00    +0.000 OA
BRANCH  18  22
ATOM     19  C   UNL     1      44.470   4.190  11.650  0.00  0.00    +0.000 A 
ATOM     20  N   UNL     1      45.026   4.192  12.889  0.00  0.00    +0.000 NA
ATOM     21  C   UNL     1      45.563   5.371  13.287  0.00  0.00    +0.000 A 
ATOM     22  C   UNL     1      45.583   6.504  12.508  0.00  0.00    +0.000 A 
ATOM     23  C   UNL     1      44.970   6.377  11.276  0.00  0.00    +0.000 A 
ATOM     24  N   UNL     1      44.410   5.241  10.817  0.00  0.00    +0.000 NA
BRANCH  19  26
ATOM     25  N   UNL     1      44.579   2.324  10.072  0.00  0.00    +0.000 N 
ATOM     26  C   UNL     1      43.921   2.869  11.149  0.00  0.00    +0.000 C 
ATOM     27  O   UNL     1      42.953   2.304  11.637  0.00  0.00    +0.000 OA
ATOM     28  H   UNL     1      44.246   1.448   9.691  0.00  0.00    +0.000 HD
ATOM     29  H   UNL     1      45.378   2.791   9.668  0.00  0.00    +0.000 HD
ENDBRANCH  19  26
ENDBRANCH  18  22
ENDBRANCH   1  18
TORSDOF 5
ENDMDL
MODEL 8
REMARK VINA RESULT:    -6.679      4.375      8.303
REMARK INTER + INTRA:          -9.517
REMARK INTER:                  -8.655
REMARK INTRA:                  -0.862
REMARK UNBOUND:                -0.886
REMARK  Name = 
REMARK  5 active torsions:
REMARK  status: ('A' for Active; 'I' for Inactive)
REMARK    1  A    between atoms: C_2  and  C_4
REMARK    2  A    between atoms: C_7  and  O_8
REMARK    3  A    between atoms: O_8  and  C_9
REMARK    4  A    between atoms: C_9  and  C_10
REMARK    5  A    between atoms: C_14  and  C_15
REMARK                            x       y       z     vdW  Elec       q    Type
REMARK                         _______ _______ _______ _____ _____    ______ ____
ROOT
ATOM      1  C   UNL     1      48.961   7.574  13.440  0.00  0.00    +0.000 C 
ATOM      2  C   UNL     1      50.053   7.781  12.396  0.00  0.00    +0.000 C 
ATOM      3  C   UNL     1      49.726   8.874  13.347  0.00  0.00    +0.000 C 
ATOM      4  F   UNL     1      49.099   9.987  12.806  0.00  0.00    +0.000 F 
ENDROOT
BRANCH   1   5
ATOM      5  C   UNL     1      47.524   7.468  12.955  0.00  0.00    +0.000 A 
ATOM      6  C   UNL     1      46.604   8.502  13.186  0.00  0.00    +0.000 A 
ATOM      7  C   UNL     1      45.301   8.434  12.693  0.00  0.00    +0.000 A 
ATOM      8  C   UNL     1      44.892   7.330  11.941  0.00  0.00    +0.000 A 
ATOM      9  C   UNL     1      45.773   6.276  11.663  0.00  0.00    +0.000 A 
ATOM     10  C   UNL     1      47.074   6.366  12.202  0.00  0.00    +0.000 A 
BRANCH   9  11
ATOM     11  C   UNL     1      45.399   5.144  10.788  0.00  0.00    +0.000 A 
ATOM     12  C   UNL     1      45.633   5.170   9.401  0.00  0.00    +0.000 A 
ATOM     13  C   UNL     1      45.184   4.131   8.585  0.00  0.00    +0.000 A 
ATOM     14  C   UNL     1      44.522   3.070   9.175  0.00  0.00    +0.000 A 
ATOM     15  N   UNL     1      44.292   2.981  10.499  0.00  0.00    +0.000 NA
ATOM     16  C   UNL     1      44.729   4.010  11.264  0.00  0.00    +0.000 A 
ATOM     17  F   UNL     1      44.450   3.914  12.576  0.00  0.00    +0.000 F 
ENDBRANCH   9  11
ENDBRANCH   1   5
BRANCH   1  18
ATOM     18  O   UNL     1      49.376   6.581  14.408  0.00  0.00    +0.000 OA
BRANCH  18  22
ATOM     19  C   UNL     1      48.138   6.482  18.273  0.00  0.00    +0.000 A 
ATOM     20  N   UNL     1      48.616   7.682  17.853  0.00  0.00    +0.000 NA
ATOM     21  C   UNL     1      49.005   7.734  16.556  0.00  0.00    +0.000 A 
ATOM     22  C   UNL     1      48.956   6.660  15.698  0.00  0.00    +0.000 A 
ATOM     23  C   UNL     1      48.433   5.502  16.242  0.00  0.00    +0.000 A 
ATOM     24  N   UNL     1      48.021   5.378  17.519  0.00  0.00    +0.000 NA
BRANCH  19  26
ATOM     25  N   UNL     1      47.745   5.097  20.251  0.00  0.00    +0.000 N 
ATOM     26  C   UNL     1      47.758   6.372  19.737  0.00  0.00    +0.000 C 
ATOM     27  O   UNL     1      47.466   7.329  20.439  0.00  0.00    +0.000 OA
ATOM     28  H   UNL     1      47.486   4.967  21.220  0.00  0.00    +0.000 HD
ATOM     29  H   UNL     1      47.985   4.306  19.670  0.00  0.00    +0.000 HD
ENDBRANCH  19  26
ENDBRANCH  18  22
ENDBRANCH   1  18
TORSDOF 5
ENDMDL
MODEL 9
REMARK VINA RESULT:    -6.672      3.789      7.461
REMARK INTER + INTRA:          -9.508
REMARK INTER:                  -9.865
REMARK INTRA:                   0.357
REMARK UNBOUND:                -0.886
REMARK  Name = 
REMARK  5 active torsions:
REMARK  status: ('A' for Active; 'I' for Inactive)
REMARK    1  A    between atoms: C_2  and  C_4
REMARK    2  A    between atoms: C_7  and  O_8
REMARK    3  A    between atoms: O_8  and  C_9
REMARK    4  A    between atoms: C_9  and  C_10
REMARK    5  A    between atoms: C_14  and  C_15
REMARK                            x       y       z     vdW  Elec       q    Type
REMARK                         _______ _______ _______ _____ _____    ______ ____
ROOT
ATOM      1  C   UNL     1      48.684   8.043  12.944  0.00  0.00    +0.000 C 
ATOM      2  C   UNL     1      49.812   7.429  12.121  0.00  0.00    +0.000 C 
ATOM      3  C   UNL     1      49.583   8.896  12.078  0.00  0.00    +0.000 C 
ATOM      4  F   UNL     1      49.086   9.401  10.885  0.00  0.00    +0.000 F 
ENDROOT
BRANCH   1   5
ATOM      5  C   UNL     1      47.253   7.734  12.531  0.00  0.00    +0.000 A 
ATOM      6  C   UNL     1      46.214   8.640  12.788  0.00  0.00    +0.000 A 
ATOM      7  C   UNL     1      44.910   8.386  12.360  0.00  0.00    +0.000 A 
ATOM      8  C   UNL     1      44.620   7.219  11.649  0.00  0.00    +0.000 A 
ATOM      9  C   UNL     1      45.622   6.287  11.347  0.00  0.00    +0.000 A 
ATOM     10  C   UNL     1      46.922   6.563  11.820  0.00  0.00    +0.000 A 
BRANCH   9  11
ATOM     11  C   UNL     1      45.365   5.095  10.511  0.00  0.00    +0.000 A 
ATOM     12  C   UNL     1      45.662   5.075   9.136  0.00  0.00    +0.000 A 
ATOM     13  C   UNL     1      45.321   3.972   8.352  0.00  0.00    +0.000 A 
ATOM     14  C   UNL     1      44.703   2.896   8.962  0.00  0.00    +0.000 A 
ATOM     15  N   UNL     1      44.417   2.851  10.276  0.00  0.00    +0.000 NA
ATOM     16  C   UNL     1      44.749   3.940  11.010  0.00  0.00    +0.000 A 
ATOM     17  F   UNL     1      44.415   3.884  12.312  0.00  0.00    +0.000 F 
ENDBRANCH   9  11
ENDBRANCH   1   5
BRANCH   1  18
ATOM     18  O   UNL     1      48.974   7.925  14.357  0.00  0.00    +0.000 OA
BRANCH  18  22
ATOM     19  C   UNL     1      47.926   4.770  16.688  0.00  0.00    +0.000 A 
ATOM     20  N   UNL     1      47.540   4.679  15.388  0.00  0.00    +0.000 NA
ATOM     21  C   UNL     1      47.910   5.713  14.595  0.00  0.00    +0.000 A 
ATOM     22  C   UNL     1      48.610   6.810  15.043  0.00  0.00    +0.000 A 
ATOM     23  C   UNL     1      48.959   6.773  16.380  0.00  0.00    +0.000 A 
ATOM     24  N   UNL     1      48.632   5.777  17.226  0.00  0.00    +0.000 NA
BRANCH  19  26
ATOM     25  N   UNL     1      48.179   3.542  18.788  0.00  0.00    +0.000 N 
ATOM     26  C   UNL     1      47.470   3.662  17.616  0.00  0.00    +0.000 C 
ATOM     27  O   UNL     1      46.546   2.902  17.367  0.00  0.00    +0.000 OA
ATOM     28  H   UNL     1      47.923   2.811  19.438  0.00  0.00    +0.000 HD
ATOM     29  H   UNL     1      48.943   4.170  18.993  0.00  0.00    +0.000 HD
ENDBRANCH  19  26
ENDBRANCH  18  22
ENDBRANCH   1  18
TORSDOF 5
ENDMDL
