MODEL 1
REMARK VINA RESULT:    -8.939      0.000      0.000
REMARK INTER + INTRA:         -11.768
REMARK INTER:                 -11.030
REMARK INTRA:                  -0.738
REMARK UNBOUND:                -0.738
REMARK  Name = 
REMARK  4 active torsions:
REMARK  status: ('A' for Active; 'I' for Inactive)
REMARK    1  A    between atoms: C_2  and  C_4
REMARK    2  A    between atoms: N_8  and  C_9
REMARK    3  A    between atoms: C_9  and  C_10
REMARK    4  A    between atoms: C_12  and  C_13
REMARK                            x       y       z     vdW  Elec       q    Type
REMARK                         _______ _______ _______ _____ _____    ______ ____
ROOT
ATOM      1  C   UNL     1      43.603   5.371  10.937  0.00  0.00    +0.000 C 
ENDROOT
BRANCH   1   6
ATOM      2  C   UNL     1      46.454   2.506   7.772  0.00  0.00    +0.000 A 
ATOM      3  C   UNL     1      46.252   3.881   7.781  0.00  0.00    +0.000 A 
ATOM      4  C   UNL     1      45.315   4.423   8.659  0.00  0.00    +0.000 A 
ATOM      5  C   UNL     1      44.600   3.592   9.515  0.00  0.00    +0.000 A 
ATOM      6  N   UNL     1      43.602   4.047  10.349  0.00  0.00    +0.000 N 
ATOM      7  N   UNL     1      44.785   2.258   9.509  0.00  0.00    +0.000 NA
ATOM      8  C   UNL     1      45.695   1.739   8.640  0.00  0.00    +0.000 A 
ATOM      9  H   UNL     1      43.267   3.283  10.924  0.00  0.00    +0.000 HD
BRANCH   2  11
ATOM     10  N   UNL     1      48.459   2.600   6.409  0.00  0.00    +0.000 N 
ATOM     11  C   UNL     1      47.402   1.853   6.848  0.00  0.00    +0.000 C 
ATOM     12  O   UNL     1      47.257   0.689   6.501  0.00  0.00    +0.000 OA
ATOM     13  H   UNL     1      49.147   2.122   5.841  0.00  0.00    +0.000 HD
ATOM     14  H   UNL     1      48.737   3.464   6.852  0.00  0.00    +0.000 HD
ENDBRANCH   2  11
ENDBRANCH   1   6
BRANCH   1  15
ATOM     15  C   UNL     1      44.769   5.606  11.860  0.00  0.00    +0.000 A 
ATOM     16  C   UNL     1      45.729   6.599  11.587  0.00  0.00    +0.000 A 
ATOM     17  C   UNL     1      46.881   6.768  12.385  0.00  0.00    +0.000 A 
ATOM     18  C   UNL     1      47.037   5.906  13.486  0.00  0.00    +0.000 A 
ATOM     19  C   UNL     1      46.095   4.914  13.770  0.00  0.00    +0.000 A 
ATOM     20  C   UNL     1      44.977   4.774  12.959  0.00  0.00    +0.000 A 
ATOM     21  F   UNL     1      44.104   3.793  13.234  0.00  0.00    +0.000 F 
BRANCH  17  22
ATOM     22  C   UNL     1      47.899   7.789  12.052  0.00  0.00    +0.000 A 
ATOM     23  C   UNL     1      49.229   7.456  11.752  0.00  0.00    +0.000 A 
ATOM     24  C   UNL     1      50.168   8.448  11.480  0.00  0.00    +0.000 A 
ATOM     25  C   UNL     1      49.753   9.768  11.492  0.00  0.00    +0.000 A 
ATOM     26  N   UNL     1      48.490  10.148  11.761  0.00  0.00    +0.000 NA
ATOM     27  C   UNL     1      47.604   9.157  12.035  0.00  0.00    +0.000 A 
ENDBRANCH  17  22
ENDBRANCH   1  15
TORSDOF 4
ENDMDL
MODEL 2
REMARK VINA RESULT:    -7.960      2.434      3.969
REMARK INTER + INTRA:         -10.560
REMARK INTER:                  -9.837
REMARK INTRA:                  -0.723
REMARK UNBOUND:                -0.738
REMARK  Name = 
REMARK  4 active torsions:
REMARK  status: ('A' for Active; 'I' for Inactive)
REMARK    1  A    between atoms: C_2  and  C_4
REMARK    2  A    between atoms: N_8  and  C_9
REMARK    3  A    between atoms: C_9  and  C_10
REMARK    4  A    between atoms: C_12  and  C_13
REMARK                            x       y       z     vdW  Elec       q    Type
REMARK                         _______ _______ _______ _____ _____    ______ ____
ROOT
ATOM      1  C   UNL     1      43.754   4.740  11.481  0.00  0.00    +0.000 C 
ENDROOT
BRANCH   1   6
ATOM      2  C   UNL     1      46.402   2.944   7.467  0.00  0.00    +0.000 A 
ATOM      3  C   UNL     1      45.926   4.227   7.710  0.00  0.00    +0.000 A 
ATOM      4  C   UNL     1      45.103   4.446   8.815  0.00  0.00    +0.000 A 
ATOM      5  C   UNL     1      44.775   3.391   9.660  0.00  0.00    +0.000 A 
ATOM      6  N   UNL     1      43.903   3.517  10.719  0.00  0.00    +0.000 N 
ATOM      7  N   UNL     1      45.227   2.144   9.427  0.00  0.00    +0.000 NA
ATOM      8  C   UNL     1      46.020   1.939   8.340  0.00  0.00    +0.000 A 
ATOM      9  H   UNL     1      43.863   2.642  11.230  0.00  0.00    +0.000 HD
BRANCH   2  11
ATOM     10  N   UNL     1      48.597   2.549   6.510  0.00  0.00    +0.000 N 
ATOM     11  C   UNL     1      47.248   2.624   6.300  0.00  0.00    +0.000 C 
ATOM     12  O   UNL     1      46.763   2.421   5.196  0.00  0.00    +0.000 OA
ATOM     13  H   UNL     1      49.161   2.251   5.724  0.00  0.00    +0.000 HD
ATOM     14  H   UNL     1      49.001   2.476   7.432  0.00  0.00    +0.000 HD
ENDBRANCH   2  11
ENDBRANCH   1   6
BRANCH   1  15
ATOM     15  C   UNL     1      45.034   5.188  12.136  0.00  0.00    +0.000 A 
ATOM     16  C   UNL     1      45.574   4.493  13.234  0.00  0.00    +0.000 A 
ATOM     17  C   UNL     1      46.716   4.954  13.924  0.00  0.00    +0.000 A 
ATOM     18  C   UNL     1      47.314   6.142  13.465  0.00  0.00    +0.000 A 
ATOM     19  C   UNL     1      46.789   6.844  12.378  0.00  0.00    +0.000 A 
ATOM     20  C   UNL     1      45.660   6.364  11.727  0.00  0.00    +0.000 A 
ATOM     21  F   UNL     1      45.158   7.074  10.706  0.00  0.00    +0.000 F 
BRANCH  17  22
ATOM     22  C   UNL     1      47.239   4.231  15.105  0.00  0.00    +0.000 A 
ATOM     23  C   UNL     1      47.119   4.735  16.410  0.00  0.00    +0.000 A 
ATOM     24  C   UNL     1      47.658   4.044  17.493  0.00  0.00    +0.000 A 
ATOM     25  C   UNL     1      48.295   2.838  17.254  0.00  0.00    +0.000 A 
ATOM     26  N   UNL     1      48.430   2.300  16.028  0.00  0.00    +0.000 NA
ATOM     27  C   UNL     1      47.906   3.006  14.994  0.00  0.00    +0.000 A 
ENDBRANCH  17  22
ENDBRANCH   1  15
TORSDOF 4
ENDMDL
MODEL 3
REMARK VINA RESULT:    -7.871      3.015      6.858
REMARK INTER + INTRA:         -10.450
REMARK INTER:                  -9.766
REMARK INTRA:                  -0.684
REMARK UNBOUND:                -0.738
REMARK  Name = 
REMARK  4 active torsions:
REMARK  status: ('A' for Active; 'I' for Inactive)
REMARK    1  A    between atoms: C_2  and  C_4
REMARK    2  A    between atoms: N_8  and  C_9
REMARK    3  A    between atoms: C_9  and  C_10
REMARK    4  A    between atoms: C_12  and  C_13
REMARK                            x       y       z     vdW  Elec       q    Type
REMARK                         _______ _______ _______ _____ _____    ______ ____
ROOT
ATOM      1  C   UNL     1      44.200   6.728  11.381  0.00  0.00    +0.000 C 
ENDROOT
BRANCH   1   6
ATOM      2  C   UNL     1      48.846   8.323  12.871  0.00  0.00    +0.000 A 
ATOM      3  C   UNL     1      48.493   7.481  11.822  0.00  0.00    +0.000 A 
ATOM      4  C   UNL     1      47.165   7.075  11.696  0.00  0.00    +0.000 A 
ATOM      5  C   UNL     1      46.212   7.516  12.609  0.00  0.00    +0.000 A 
ATOM      6  N   UNL     1      44.902   7.090  12.595  0.00  0.00    +0.000 N 
ATOM      7  N   UNL     1      46.547   8.326  13.632  0.00  0.00    +0.000 NA
ATOM      8  C   UNL     1      47.848   8.707  13.751  0.00  0.00    +0.000 A 
ATOM      9  H   UNL     1      44.377   7.588  13.305  0.00  0.00    +0.000 HD
BRANCH   2  11
ATOM     10  N   UNL     1      51.128   7.830  13.529  0.00  0.00    +0.000 N 
ATOM     11  C   UNL     1      50.235   8.768  13.092  0.00  0.00    +0.000 C 
ATOM     12  O   UNL     1      50.578   9.924  12.879  0.00  0.00    +0.000 OA
ATOM     13  H   UNL     1      52.095   8.124  13.601  0.00  0.00    +0.000 HD
ATOM     14  H   UNL     1      50.943   6.839  13.485  0.00  0.00    +0.000 HD
ENDBRANCH   2  11
ENDBRANCH   1   6
BRANCH   1  15
ATOM     15  C   UNL     1      44.242   5.251  11.092  0.00  0.00    +0.000 A 
ATOM     16  C   UNL     1      44.986   4.739  10.012  0.00  0.00    +0.000 A 
ATOM     17  C   UNL     1      44.959   3.372   9.663  0.00  0.00    +0.000 A 
ATOM     18  C   UNL     1      44.161   2.520  10.449  0.00  0.00    +0.000 A 
ATOM     19  C   UNL     1      43.415   3.012  11.523  0.00  0.00    +0.000 A 
ATOM     20  C   UNL     1      43.462   4.364  11.833  0.00  0.00    +0.000 A 
ATOM     21  F   UNL     1      42.711   4.816  12.848  0.00  0.00    +0.000 F 
BRANCH  17  22
ATOM     22  C   UNL     1      45.714   2.865   8.496  0.00  0.00    +0.000 A 
ATOM     23  C   UNL     1      46.075   3.688   7.417  0.00  0.00    +0.000 A 
ATOM     24  C   UNL     1      46.753   3.166   6.318  0.00  0.00    +0.000 A 
ATOM     25  C   UNL     1      47.081   1.821   6.325  0.00  0.00    +0.000 A 
ATOM     26  N   UNL     1      46.772   0.986   7.334  0.00  0.00    +0.000 NA
ATOM     27  C   UNL     1      46.100   1.524   8.383  0.00  0.00    +0.000 A 
ENDBRANCH  17  22
ENDBRANCH   1  15
TORSDOF 4
ENDMDL
MODEL 4
REMARK VINA RESULT:    -7.129      3.131      7.019
REMARK INTER + INTRA:          -9.534
REMARK INTER:                  -9.047
REMARK INTRA:                  -0.487
REMARK UNBOUND:                -0.738
REMARK  Name = 
REMARK  4 active torsions:
REMARK  status: ('A' for Active; 'I' for Inactive)
REMARK    1  A    between atoms: C_2  and  C_4
REMARK    2  A    between atoms: N_8  and  C_9
REMARK    3  A    between atoms: C_9  and  C_10
REMARK    4  A    between atoms: C_12  and  C_13
REMARK                            x       y       z     vdW  Elec       q    Type
REMARK                         _______ _______ _______ _____ _____    ______ ____
ROOT
ATOM      1  C   UNL     1      44.810   3.042  12.747  0.00  0.00    +0.000 C 
ENDROOT
BRANCH   1   6
ATOM      2  C   UNL     1      47.722   7.053  14.079  0.00  0.00    +0.000 A 
ATOM      3  C   UNL     1      46.711   6.971  13.129  0.00  0.00    +0.000 A 
ATOM      4  C   UNL     1      46.151   5.726  12.842  0.00  0.00    +0.000 A 
ATOM      5  C   UNL     1      46.600   4.589  13.506  0.00  0.00    +0.000 A 
ATOM      6  N   UNL     1      46.152   3.320  13.215  0.00  0.00    +0.000 N 
ATOM      7  N   UNL     1      47.583   4.660  14.424  0.00  0.00    +0.000 NA
ATOM      8  C   UNL     1      48.131   5.878  14.688  0.00  0.00    +0.000 A 
ATOM      9  H   UNL     1      46.565   2.658  13.863  0.00  0.00    +0.000 HD
BRANCH   2  11
ATOM     10  N   UNL     1      47.688   9.215  15.180  0.00  0.00    +0.000 N 
ATOM     11  C   UNL     1      48.389   8.327  14.413  0.00  0.00    +0.000 C 
ATOM     12  O   UNL     1      49.526   8.572  14.032  0.00  0.00    +0.000 OA
ATOM     13  H   UNL     1      48.182  10.050  15.471  0.00  0.00    +0.000 HD
ATOM     14  H   UNL     1      46.864   8.953  15.700  0.00  0.00    +0.000 HD
ENDBRANCH   2  11
ENDBRANCH   1   6
BRANCH   1  15
ATOM     15  C   UNL     1      44.590   3.443  11.312  0.00  0.00    +0.000 A 
ATOM     16  C   UNL     1      45.356   2.885  10.272  0.00  0.00    +0.000 A 
ATOM     17  C   UNL     1      45.235   3.320   8.935  0.00  0.00    +0.000 A 
ATOM     18  C   UNL     1      44.301   4.338   8.668  0.00  0.00    +0.000 A 
ATOM     19  C   UNL     1      43.534   4.904   9.688  0.00  0.00    +0.000 A 
ATOM     20  C   UNL     1      43.685   4.454  10.994  0.00  0.00    +0.000 A 
ATOM     21  F   UNL     1      42.960   5.037  11.961  0.00  0.00    +0.000 F 
BRANCH  17  22
ATOM     22  C   UNL     1      46.084   2.750   7.865  0.00  0.00    +0.000 A 
ATOM     23  C   UNL     1      46.459   3.486   6.729  0.00  0.00    +0.000 A 
ATOM     24  C   UNL     1      47.228   2.903   5.724  0.00  0.00    +0.000 A 
ATOM     25  C   UNL     1      47.632   1.589   5.883  0.00  0.00    +0.000 A 
ATOM     26  N   UNL     1      47.314   0.837   6.954  0.00  0.00    +0.000 NA
ATOM     27  C   UNL     1      46.552   1.432   7.907  0.00  0.00    +0.000 A 
ENDBRANCH  17  22
ENDBRANCH   1  15
TORSDOF 4
ENDMDL
MODEL 5
REMARK VINA RESULT:    -6.912      4.038      7.416
REMARK INTER + INTRA:          -9.267
REMARK INTER:                  -8.954
REMARK INTRA:                  -0.313
REMARK UNBOUND:                -0.738
REMARK  Name = 
REMARK  4 active torsions:
REMARK  status: ('A' for Active; 'I' for Inactive)
REMARK    1  A    between atoms: C_2  and  C_4
REMARK    2  A    between atoms: N_8  and  C_9
REMARK    3  A    between atoms: C_9  and  C_10
REMARK    4  A    between atoms: C_12  and  C_13
REMARK                            x       y       z     vdW  Elec       q    Type
REMARK                         _______ _______ _______ _____ _____    ______ ____
ROOT
ATOM      1  C   UNL     1      48.556   7.582  12.866  0.00  0.00    +0.000 C 
ENDROOT
BRANCH   1   6
ATOM      2  C   UNL     1      47.848   4.350  16.792  0.00  0.00    +0.000 A 
ATOM      3  C   UNL     1      47.237   4.373  15.543  0.00  0.00    +0.000 A 
ATOM      4  C   UNL     1      47.492   5.442  14.684  0.00  0.00    +0.000 A 
ATOM      5  C   UNL     1      48.352   6.463  15.077  0.00  0.00    +0.000 A 
ATOM      6  N   UNL     1      48.584   7.587  14.315  0.00  0.00    +0.000 N 
ATOM      7  N   UNL     1      48.942   6.451  16.287  0.00  0.00    +0.000 NA
ATOM      8  C   UNL     1      48.678   5.409  17.122  0.00  0.00    +0.000 A 
ATOM      9  H   UNL     1      49.289   8.160  14.764  0.00  0.00    +0.000 HD
BRANCH   2  11
ATOM     10  N   UNL     1      48.453   3.196  18.838  0.00  0.00    +0.000 N 
ATOM     11  C   UNL     1      47.602   3.274  17.771  0.00  0.00    +0.000 C 
ATOM     12  O   UNL     1      46.668   2.494  17.642  0.00  0.00    +0.000 OA
ATOM     13  H   UNL     1      48.230   2.506  19.545  0.00  0.00    +0.000 HD
ATOM     14  H   UNL     1      49.072   3.949  19.097  0.00  0.00    +0.000 HD
ENDBRANCH   2  11
ENDBRANCH   1   6
BRANCH   1  15
ATOM     15  C   UNL     1      47.168   7.420  12.303  0.00  0.00    +0.000 A 
ATOM     16  C   UNL     1      46.795   6.258  11.603  0.00  0.00    +0.000 A 
ATOM     17  C   UNL     1      45.534   6.129  10.982  0.00  0.00    +0.000 A 
ATOM     18  C   UNL     1      44.643   7.212  11.097  0.00  0.00    +0.000 A 
ATOM     19  C   UNL     1      44.999   8.373  11.786  0.00  0.00    +0.000 A 
ATOM     20  C   UNL     1      46.251   8.467  12.380  0.00  0.00    +0.000 A 
ATOM     21  F   UNL     1      46.579   9.606  13.008  0.00  0.00    +0.000 F 
BRANCH  17  22
ATOM     22  C   UNL     1      45.181   4.915  10.213  0.00  0.00    +0.000 A 
ATOM     23  C   UNL     1      45.581   4.726   8.880  0.00  0.00    +0.000 A 
ATOM     24  C   UNL     1      45.197   3.586   8.177  0.00  0.00    +0.000 A 
ATOM     25  C   UNL     1      44.430   2.637   8.829  0.00  0.00    +0.000 A 
ATOM     26  N   UNL     1      44.026   2.757  10.107  0.00  0.00    +0.000 NA
ATOM     27  C   UNL     1      44.406   3.886  10.759  0.00  0.00    +0.000 A 
ENDBRANCH  17  22
ENDBRANCH   1  15
TORSDOF 4
ENDMDL
MODEL 6
REMARK VINA RESULT:    -6.792      4.491      7.813
REMARK INTER + INTRA:          -9.119
REMARK INTER:                  -8.585
REMARK INTRA:                  -0.534
REMARK UNBOUND:                -0.738
REMARK  Name = 
REMARK  4 active torsions:
REMARK  status: ('A' for Active; 'I' for Inactive)
REMARK    1  A    between atoms: C_2  and  C_4
REMARK    2  A    between atoms: N_8  and  C_9
REMARK    3  A    between atoms: C_9  and  C_10
REMARK    4  A    between atoms: C_12  and  C_13
REMARK                            x       y       z     vdW  Elec       q    Type
REMARK                         _______ _______ _______ _____ _____    ______ ____
ROOT
ATOM      1  C   UNL     1      45.807   4.859  13.569  0.00  0.00    +0.000 C 
ENDROOT
BRANCH   1   6
ATOM      2  C   UNL     1      48.757   5.006  17.767  0.00  0.00    +0.000 A 
ATOM      3  C   UNL     1      48.756   5.842  16.657  0.00  0.00    +0.000 A 
ATOM      4  C   UNL     1      47.950   5.518  15.566  0.00  0.00    +0.000 A 
ATOM      5  C   UNL     1      47.157   4.376  15.600  0.00  0.00    +0.000 A 
ATOM      6  N   UNL     1      46.401   3.951  14.529  0.00  0.00    +0.000 N 
ATOM      7  N   UNL     1      47.157   3.557  16.669  0.00  0.00    +0.000 NA
ATOM      8  C   UNL     1      47.955   3.877  17.724  0.00  0.00    +0.000 A 
ATOM      9  H   UNL     1      45.857   3.140  14.799  0.00  0.00    +0.000 HD
BRANCH   2  11
ATOM     10  N   UNL     1      50.772   5.945  18.738  0.00  0.00    +0.000 N 
ATOM     11  C   UNL     1      49.608   5.260  18.946  0.00  0.00    +0.000 C 
ATOM     12  O   UNL     1      49.279   4.887  20.064  0.00  0.00    +0.000 OA
ATOM     13  H   UNL     1      51.310   6.184  19.562  0.00  0.00    +0.000 HD
ATOM     14  H   UNL     1      50.955   6.464  17.892  0.00  0.00    +0.000 HD
ENDBRANCH   2  11
ENDBRANCH   1   6
BRANCH   1  15
ATOM     15  C   UNL     1      45.081   4.151  12.456  0.00  0.00    +0.000 A 
ATOM     16  C   UNL     1      45.707   3.899  11.220  0.00  0.00    +0.000 A 
ATOM     17  C   UNL     1      45.014   3.328  10.132  0.00  0.00    +0.000 A 
ATOM     18  C   UNL     1      43.659   3.002  10.327  0.00  0.00    +0.000 A 
ATOM     19  C   UNL     1      43.023   3.247  11.545  0.00  0.00    +0.000 A 
ATOM     20  C   UNL     1      43.735   3.816  12.593  0.00  0.00    +0.000 A 
ATOM     21  F   UNL     1      43.092   4.072  13.742  0.00  0.00    +0.000 F 
BRANCH  17  22
ATOM     22  C   UNL     1      45.680   3.113   8.828  0.00  0.00    +0.000 A 
ATOM     23  C   UNL     1      46.050   1.838   8.372  0.00  0.00    +0.000 A 
ATOM     24  C   UNL     1      46.709   1.680   7.155  0.00  0.00    +0.000 A 
ATOM     25  C   UNL     1      46.972   2.808   6.397  0.00  0.00    +0.000 A 
ATOM     26  N   UNL     1      46.631   4.054   6.775  0.00  0.00    +0.000 NA
ATOM     27  C   UNL     1      46.003   4.173   7.973  0.00  0.00    +0.000 A 
ENDBRANCH  17  22
ENDBRANCH   1  15
TORSDOF 4
ENDMDL
MODEL 7
REMARK VINA RESULT:    -6.710      3.140      6.723
REMARK INTER + INTRA:          -9.017
REMARK INTER:                  -9.001
REMARK INTRA:                  -0.017
REMARK UNBOUND:                -0.738
REMARK  Name = 
REMARK  4 active torsions:
REMARK  status: ('A' for Active; 'I' for Inactive)
REMARK    1  A    between atoms: C_2  and  C_4
REMARK    2  A    between atoms: N_8  and  C_9
REMARK    3  A    between atoms: C_9  and  C_10
REMARK    4  A    between atoms: C_12  and  C_13
REMARK                            x       y       z     vdW  Elec       q    Type
REMARK                         _______ _______ _______ _____ _____    ______ ____
ROOT
ATOM      1  C   UNL     1      45.096   6.828  10.982  0.00  0.00    +0.000 C 
ENDROOT
BRANCH   1   6
ATOM      2  C   UNL     1      47.246   4.256  14.869  0.00  0.00    +0.000 A 
ATOM      3  C   UNL     1      45.908   4.354  14.506  0.00  0.00    +0.000 A 
ATOM      4  C   UNL     1      45.546   5.233  13.485  0.00  0.00    +0.000 A 
ATOM      5  C   UNL     1      46.518   5.993  12.842  0.00  0.00    +0.000 A 
ATOM      6  N   UNL     1      46.223   6.939  11.886  0.00  0.00    +0.000 N 
ATOM      7  N   UNL     1      47.815   5.909  13.193  0.00  0.00    +0.000 NA
ATOM      8  C   UNL     1      48.156   5.055  14.197  0.00  0.00    +0.000 A 
ATOM      9  H   UNL     1      47.084   7.321  11.510  0.00  0.00    +0.000 HD
BRANCH   2  11
ATOM     10  N   UNL     1      46.978   3.388  17.119  0.00  0.00    +0.000 N 
ATOM     11  C   UNL     1      47.705   3.376  15.962  0.00  0.00    +0.000 C 
ATOM     12  O   UNL     1      48.685   2.655  15.832  0.00  0.00    +0.000 OA
ATOM     13  H   UNL     1      47.251   2.724  17.832  0.00  0.00    +0.000 HD
ATOM     14  H   UNL     1      46.049   3.779  17.174  0.00  0.00    +0.000 HD
ENDBRANCH   2  11
ENDBRANCH   1   6
BRANCH   1  15
ATOM     15  C   UNL     1      44.842   5.416  10.525  0.00  0.00    +0.000 A 
ATOM     16  C   UNL     1      45.622   4.825   9.513  0.00  0.00    +0.000 A 
ATOM     17  C   UNL     1      45.338   3.541   9.001  0.00  0.00    +0.000 A 
ATOM     18  C   UNL     1      44.239   2.855   9.549  0.00  0.00    +0.000 A 
ATOM     19  C   UNL     1      43.453   3.428  10.551  0.00  0.00    +0.000 A 
ATOM     20  C   UNL     1      43.760   4.696  11.027  0.00  0.00    +0.000 A 
ATOM     21  F   UNL     1      42.970   5.237  11.968  0.00  0.00    +0.000 F 
BRANCH  17  22
ATOM     22  C   UNL     1      46.145   2.959   7.905  0.00  0.00    +0.000 A 
ATOM     23  C   UNL     1      46.495   3.688   6.758  0.00  0.00    +0.000 A 
ATOM     24  C   UNL     1      47.224   3.093   5.731  0.00  0.00    +0.000 A 
ATOM     25  C   UNL     1      47.614   1.774   5.879  0.00  0.00    +0.000 A 
ATOM     26  N   UNL     1      47.319   1.028   6.959  0.00  0.00    +0.000 NA
ATOM     27  C   UNL     1      46.595   1.634   7.935  0.00  0.00    +0.000 A 
ENDBRANCH  17  22
ENDBRANCH   1  15
TORSDOF 4
ENDMDL
MODEL 8
REMARK VINA RESULT:    -6.679      3.809      5.812
REMARK INTER + INTRA:          -8.979
REMARK INTER:                  -8.355
REMARK INTRA:                  -0.625
REMARK UNBOUND:                -0.738
REMARK  Name = 
REMARK  4 active torsions:
REMARK  status: ('A' for Active; 'I' for Inactive)
REMARK    1  A    between atoms: C_2  and  C_4
REMARK    2  A    between atoms: N_8  and  C_9
REMARK    3  A    between atoms: C_9  and  C_10
REMARK    4  A    between atoms: C_12  and  C_13
REMARK                            x       y       z     vdW  Elec       q    Type
REMARK                         _______ _______ _______ _____ _____    ______ ____
ROOT
ATOM      1  C   UNL     1      47.008   8.474  12.926  0.00  0.00    +0.000 C 
ENDROOT
BRANCH   1   6
ATOM      2  C   UNL     1      44.488   4.223  11.538  0.00  0.00    +0.000 A 
ATOM      3  C   UNL     1      45.445   4.952  10.842  0.00  0.00    +0.000 A 
ATOM      4  C   UNL     1      45.890   6.163  11.369  0.00  0.00    +0.000 A 
ATOM      5  C   UNL     1      45.383   6.626  12.579  0.00  0.00    +0.000 A 
ATOM      6  N   UNL     1      45.715   7.850  13.117  0.00  0.00    +0.000 N 
ATOM      7  N   UNL     1      44.451   5.930  13.257  0.00  0.00    +0.000 NA
ATOM      8  C   UNL     1      44.015   4.753  12.728  0.00  0.00    +0.000 A 
ATOM      9  H   UNL     1      45.281   7.948  14.027  0.00  0.00    +0.000 HD
BRANCH   2  11
ATOM     10  N   UNL     1      44.614   2.347  10.006  0.00  0.00    +0.000 N 
ATOM     11  C   UNL     1      43.940   2.950  11.030  0.00  0.00    +0.000 C 
ATOM     12  O   UNL     1      42.934   2.449  11.514  0.00  0.00    +0.000 OA
ATOM     13  H   UNL     1      44.278   1.436   9.717  0.00  0.00    +0.000 HD
ATOM     14  H   UNL     1      45.556   2.601   9.749  0.00  0.00    +0.000 HD
ENDBRANCH   2  11
ENDBRANCH   1   6
BRANCH   1  15
ATOM     15  C   UNL     1      48.078   7.902  13.817  0.00  0.00    +0.000 A 
ATOM     16  C   UNL     1      47.829   6.780  14.629  0.00  0.00    +0.000 A 
ATOM     17  C   UNL     1      48.785   6.290  15.545  0.00  0.00    +0.000 A 
ATOM     18  C   UNL     1      50.019   6.963  15.614  0.00  0.00    +0.000 A 
ATOM     19  C   UNL     1      50.281   8.079  14.817  0.00  0.00    +0.000 A 
ATOM     20  C   UNL     1      49.314   8.537  13.931  0.00  0.00    +0.000 A 
ATOM     21  F   UNL     1      49.579   9.630  13.201  0.00  0.00    +0.000 F 
BRANCH  17  22
ATOM     22  C   UNL     1      48.484   5.136  16.421  0.00  0.00    +0.000 A 
ATOM     23  C   UNL     1      49.374   4.690  17.411  0.00  0.00    +0.000 A 
ATOM     24  C   UNL     1      49.072   3.577  18.191  0.00  0.00    +0.000 A 
ATOM     25  C   UNL     1      47.864   2.934  17.982  0.00  0.00    +0.000 A 
ATOM     26  N   UNL     1      46.966   3.322  17.058  0.00  0.00    +0.000 NA
ATOM     27  C   UNL     1      47.298   4.401  16.306  0.00  0.00    +0.000 A 
ENDBRANCH  17  22
ENDBRANCH   1  15
TORSDOF 4
ENDMDL
MODEL 9
REMARK VINA RESULT:    -6.289      5.043      6.863
REMARK INTER + INTRA:          -8.498
REMARK INTER:                  -7.796
REMARK INTRA:                  -0.702
REMARK UNBOUND:                -0.738
REMARK  Name = 
REMARK  4 active torsions:
REMARK  status: ('A' for Active; 'I' for Inactive)
REMARK    1  A    between atoms: C_2  and  C_4
REMARK    2  A    between atoms: N_8  and  C_9
REMARK    3  A    between atoms: C_9  and  C_10
REMARK    4  A    between atoms: C_12  and  C_13
REMARK                            x       y       z     vdW  Elec       q    Type
REMARK                         _______ _______ _______ _____ _____    ______ ____
ROOT
ATOM      1  C   UNL     1      46.513   4.381  15.146  0.00  0.00    +0.000 C 
ENDROOT
BRANCH   1   6
ATOM      2  C   UNL     1      50.862   2.920  17.446  0.00  0.00    +0.000 A 
ATOM      3  C   UNL     1      49.753   2.162  17.088  0.00  0.00    +0.000 A 
ATOM      4  C   UNL     1      48.621   2.811  16.596  0.00  0.00    +0.000 A 
ATOM      5  C   UNL     1      48.613   4.195  16.463  0.00  0.00    +0.000 A 
ATOM      6  N   UNL     1      47.503   4.907  16.062  0.00  0.00    +0.000 N 
ATOM      7  N   UNL     1      49.680   4.937  16.813  0.00  0.00    +0.000 NA
ATOM      8  C   UNL     1      50.777   4.295  17.303  0.00  0.00    +0.000 A 
ATOM      9  H   UNL     1      47.744   5.888  15.974  0.00  0.00    +0.000 HD
BRANCH   2  11
ATOM     10  N   UNL     1      52.110   0.950  18.118  0.00  0.00    +0.000 N 
ATOM     11  C   UNL     1      52.085   2.312  18.008  0.00  0.00    +0.000 C 
ATOM     12  O   UNL     1      53.041   2.997  18.346  0.00  0.00    +0.000 OA
ATOM     13  H   UNL     1      52.980   0.537  18.429  0.00  0.00    +0.000 HD
ATOM     14  H   UNL     1      51.453   0.353  17.639  0.00  0.00    +0.000 HD
ENDBRANCH   2  11
ENDBRANCH   1   6
BRANCH   1  15
ATOM     15  C   UNL     1      46.505   5.086  13.815  0.00  0.00    +0.000 A 
ATOM     16  C   UNL     1      47.505   6.016  13.476  0.00  0.00    +0.000 A 
ATOM     17  C   UNL     1      47.462   6.761  12.278  0.00  0.00    +0.000 A 
ATOM     18  C   UNL     1      46.375   6.532  11.414  0.00  0.00    +0.000 A 
ATOM     19  C   UNL     1      45.373   5.615  11.736  0.00  0.00    +0.000 A 
ATOM     20  C   UNL     1      45.446   4.904  12.927  0.00  0.00    +0.000 A 
ATOM     21  F   UNL     1      44.454   4.052  13.228  0.00  0.00    +0.000 F 
BRANCH  17  22
ATOM     22  C   UNL     1      48.501   7.766  11.963  0.00  0.00    +0.000 A 
ATOM     23  C   UNL     1      49.820   7.410  11.638  0.00  0.00    +0.000 A 
ATOM     24  C   UNL     1      50.780   8.386  11.384  0.00  0.00    +0.000 A 
ATOM     25  C   UNL     1      50.397   9.715  11.439  0.00  0.00    +0.000 A 
ATOM     26  N   UNL     1      49.147  10.118  11.733  0.00  0.00    +0.000 NA
ATOM     27  C   UNL     1      48.240   9.141  11.988  0.00  0.00    +0.000 A 
ENDBRANCH  17  22
ENDBRANCH   1  15
TORSDOF 4
ENDMDL
