MODEL 1
REMARK VINA RESULT:    -7.514      0.000      0.000
REMARK INTER + INTRA:          -8.776
REMARK INTER:                  -8.393
REMARK INTRA:                  -0.383
REMARK UNBOUND:                -0.383
REMARK  Name = 
REMARK  2 active torsions:
REMARK  status: ('A' for Active; 'I' for Inactive)
REMARK    1  A    between atoms: N_11  and  C_12
REMARK    2  A    between atoms: C_12  and  C_13
REMARK                            x       y       z     vdW  Elec       q    Type
REMARK                         _______ _______ _______ _____ _____    ______ ____
ROOT
ATOM      1  N   UNL     1      48.778   9.060  11.912  0.00  0.00    +0.000 NA
ATOM      2  C   UNL     1      48.649   7.848  12.330  0.00  0.00    +0.000 C 
ATOM      3  N   UNL     1      49.717   7.026  12.399  0.00  0.00    +0.000 N 
ATOM      4  N   UNL     1      47.453   7.302  12.675  0.00  0.00    +0.000 N 
ATOM      5  C   UNL     1      46.196   7.799  12.071  0.00  0.00    +0.000 C 
ATOM      6  C   UNL     1      45.631   6.742  11.083  0.00  0.00    +0.000 C 
ATOM      7  C   UNL     1      45.604   5.400  11.758  0.00  0.00    +0.000 A 
ATOM      8  C   UNL     1      46.344   5.100  12.890  0.00  0.00    +0.000 A 
ATOM      9  C   UNL     1      46.060   3.760  13.235  0.00  0.00    +0.000 A 
ATOM     10  C   UNL     1      45.204   3.271  12.270  0.00  0.00    +0.000 A 
ATOM     11  N   UNL     1      44.933   4.273  11.362  0.00  0.00    +0.000 N 
ATOM     12  C   UNL     1      47.258   6.112  13.526  0.00  0.00    +0.000 C 
ATOM     13  H   UNL     1      49.761   9.260  11.733  0.00  0.00    +0.000 HD
ATOM     14  H   UNL     1      50.533   7.363  11.908  0.00  0.00    +0.000 HD
ATOM     15  H   UNL     1      49.489   6.089  12.086  0.00  0.00    +0.000 HD
ENDROOT
BRANCH  11  16
ATOM     16  C   UNL     1      44.242   4.072  10.092  0.00  0.00    +0.000 C 
BRANCH  16  17
ATOM     17  C   UNL     1      45.092   3.468   9.004  0.00  0.00    +0.000 A 
ATOM     18  C   UNL     1      45.357   2.099   8.954  0.00  0.00    +0.000 A 
ATOM     19  C   UNL     1      46.280   1.618   8.027  0.00  0.00    +0.000 A 
ATOM     20  C   UNL     1      46.918   2.507   7.175  0.00  0.00    +0.000 A 
ATOM     21  C   UNL     1      46.595   3.848   7.274  0.00  0.00    +0.000 A 
ATOM     22  N   UNL     1      45.707   4.344   8.165  0.00  0.00    +0.000 NA
ENDBRANCH  16  17
ENDBRANCH  11  16
TORSDOF 2
ENDMDL
MODEL 2
REMARK VINA RESULT:    -7.346      1.491      2.149
REMARK INTER + INTRA:          -8.588
REMARK INTER:                  -8.469
REMARK INTRA:                  -0.118
REMARK UNBOUND:                -0.383
REMARK  Name = 
REMARK  2 active torsions:
REMARK  status: ('A' for Active; 'I' for Inactive)
REMARK    1  A    between atoms: N_11  and  C_12
REMARK    2  A    between atoms: C_12  and  C_13
REMARK                            x       y       z     vdW  Elec       q    Type
REMARK                         _______ _______ _______ _____ _____    ______ ____
ROOT
ATOM      1  N   UNL     1      47.907   7.354  13.682  0.00  0.00    +0.000 NA
ATOM      2  C   UNL     1      47.257   6.242  13.686  0.00  0.00    +0.000 C 
ATOM      3  N   UNL     1      47.798   5.129  14.226  0.00  0.00    +0.000 N 
ATOM      4  N   UNL     1      46.030   6.093  13.119  0.00  0.00    +0.000 N 
ATOM      5  C   UNL     1      45.615   6.954  11.989  0.00  0.00    +0.000 C 
ATOM      6  C   UNL     1      45.579   6.124  10.677  0.00  0.00    +0.000 C 
ATOM      7  C   UNL     1      44.809   4.857  10.915  0.00  0.00    +0.000 A 
ATOM      8  C   UNL     1      44.557   4.343  12.177  0.00  0.00    +0.000 A 
ATOM      9  C   UNL     1      43.809   3.157  12.005  0.00  0.00    +0.000 A 
ATOM     10  C   UNL     1      43.681   2.956  10.646  0.00  0.00    +0.000 A 
ATOM     11  N   UNL     1      44.302   3.993   9.980  0.00  0.00    +0.000 N 
ATOM     12  C   UNL     1      45.061   5.022  13.420  0.00  0.00    +0.000 C 
ATOM     13  H   UNL     1      48.788   7.240  14.181  0.00  0.00    +0.000 HD
ATOM     14  H   UNL     1      48.790   5.197  14.409  0.00  0.00    +0.000 HD
ATOM     15  H   UNL     1      47.608   4.309  13.661  0.00  0.00    +0.000 HD
ENDROOT
BRANCH  11  16
ATOM     16  C   UNL     1      44.558   4.016   8.544  0.00  0.00    +0.000 C 
BRANCH  16  17
ATOM     17  C   UNL     1      45.692   3.129   8.095  0.00  0.00    +0.000 A 
ATOM     18  C   UNL     1      46.674   3.584   7.215  0.00  0.00    +0.000 A 
ATOM     19  C   UNL     1      47.603   2.678   6.705  0.00  0.00    +0.000 A 
ATOM     20  C   UNL     1      47.532   1.345   7.079  0.00  0.00    +0.000 A 
ATOM     21  C   UNL     1      46.539   0.970   7.965  0.00  0.00    +0.000 A 
ATOM     22  N   UNL     1      45.622   1.825   8.473  0.00  0.00    +0.000 NA
ENDBRANCH  16  17
ENDBRANCH  11  16
TORSDOF 2
ENDMDL
MODEL 3
REMARK VINA RESULT:    -7.078      0.667      1.115
REMARK INTER + INTRA:          -8.288
REMARK INTER:                  -7.859
REMARK INTRA:                  -0.430
REMARK UNBOUND:                -0.383
REMARK  Name = 
REMARK  2 active torsions:
REMARK  status: ('A' for Active; 'I' for Inactive)
REMARK    1  A    between atoms: N_11  and  C_12
REMARK    2  A    between atoms: C_12  and  C_13
REMARK                            x       y       z     vdW  Elec       q    Type
REMARK                         _______ _______ _______ _____ _____    ______ ____
ROOT
ATOM      1  N   UNL     1      48.778   9.212  11.909  0.00  0.00    +0.000 NA
ATOM      2  C   UNL     1      48.688   8.015  12.375  0.00  0.00    +0.000 C 
ATOM      3  N   UNL     1      49.784   7.234  12.485  0.00  0.00    +0.000 N 
ATOM      4  N   UNL     1      47.509   7.441  12.735  0.00  0.00    +0.000 N 
ATOM      5  C   UNL     1      46.241   7.868  12.102  0.00  0.00    +0.000 C 
ATOM      6  C   UNL     1      45.721   6.753  11.155  0.00  0.00    +0.000 C 
ATOM      7  C   UNL     1      45.735   5.439  11.883  0.00  0.00    +0.000 A 
ATOM      8  C   UNL     1      46.476   5.212  13.031  0.00  0.00    +0.000 A 
ATOM      9  C   UNL     1      46.236   3.878  13.428  0.00  0.00    +0.000 A 
ATOM     10  C   UNL     1      45.405   3.320  12.479  0.00  0.00    +0.000 A 
ATOM     11  N   UNL     1      45.107   4.275  11.529  0.00  0.00    +0.000 N 
ATOM     12  C   UNL     1      47.348   6.280  13.632  0.00  0.00    +0.000 C 
ATOM     13  H   UNL     1      49.754   9.440  11.729  0.00  0.00    +0.000 HD
ATOM     14  H   UNL     1      50.591   7.580  11.986  0.00  0.00    +0.000 HD
ATOM     15  H   UNL     1      49.591   6.278  12.209  0.00  0.00    +0.000 HD
ENDROOT
BRANCH  11  16
ATOM     16  C   UNL     1      44.433   3.998  10.264  0.00  0.00    +0.000 C 
BRANCH  16  17
ATOM     17  C   UNL     1      45.333   3.468   9.177  0.00  0.00    +0.000 A 
ATOM     18  C   UNL     1      45.832   4.294   8.169  0.00  0.00    +0.000 A 
ATOM     19  C   UNL     1      46.521   3.722   7.101  0.00  0.00    +0.000 A 
ATOM     20  C   UNL     1      46.697   2.347   7.058  0.00  0.00    +0.000 A 
ATOM     21  C   UNL     1      46.187   1.594   8.100  0.00  0.00    +0.000 A 
ATOM     22  N   UNL     1      45.511   2.120   9.147  0.00  0.00    +0.000 NA
ENDBRANCH  16  17
ENDBRANCH  11  16
TORSDOF 2
ENDMDL
MODEL 4
REMARK VINA RESULT:    -6.754      2.585      4.074
REMARK INTER + INTRA:          -7.927
REMARK INTER:                  -7.627
REMARK INTRA:                  -0.299
REMARK UNBOUND:                -0.383
REMARK  Name = 
REMARK  2 active torsions:
REMARK  status: ('A' for Active; 'I' for Inactive)
REMARK    1  A    between atoms: N_11  and  C_12
REMARK    2  A    between atoms: C_12  and  C_13
REMARK                            x       y       z     vdW  Elec       q    Type
REMARK                         _______ _______ _______ _____ _____    ______ ____
ROOT
ATOM      1  N   UNL     1      46.858   3.194  17.528  0.00  0.00    +0.000 NA
ATOM      2  C   UNL     1      47.150   4.347  17.035  0.00  0.00    +0.000 C 
ATOM      3  N   UNL     1      47.022   5.467  17.779  0.00  0.00    +0.000 N 
ATOM      4  N   UNL     1      47.551   4.529  15.748  0.00  0.00    +0.000 N 
ATOM      5  C   UNL     1      47.133   3.583  14.690  0.00  0.00    +0.000 C 
ATOM      6  C   UNL     1      46.096   4.261  13.754  0.00  0.00    +0.000 C 
ATOM      7  C   UNL     1      46.617   5.605  13.330  0.00  0.00    +0.000 A 
ATOM      8  C   UNL     1      47.630   6.275  13.997  0.00  0.00    +0.000 A 
ATOM      9  C   UNL     1      47.851   7.490  13.311  0.00  0.00    +0.000 A 
ATOM     10  C   UNL     1      46.928   7.547  12.287  0.00  0.00    +0.000 A 
ATOM     11  N   UNL     1      46.168   6.395  12.306  0.00  0.00    +0.000 N 
ATOM     12  C   UNL     1      48.279   5.701  15.226  0.00  0.00    +0.000 C 
ATOM     13  H   UNL     1      46.606   3.292  18.510  0.00  0.00    +0.000 HD
ATOM     14  H   UNL     1      46.492   5.341  18.630  0.00  0.00    +0.000 HD
ATOM     15  H   UNL     1      46.631   6.231  17.239  0.00  0.00    +0.000 HD
ENDROOT
BRANCH  11  16
ATOM     16  C   UNL     1      44.959   6.192  11.514  0.00  0.00    +0.000 C 
BRANCH  16  17
ATOM     17  C   UNL     1      45.053   5.079  10.501  0.00  0.00    +0.000 A 
ATOM     18  C   UNL     1      45.751   5.236   9.302  0.00  0.00    +0.000 A 
ATOM     19  C   UNL     1      45.668   4.238   8.332  0.00  0.00    +0.000 A 
ATOM     20  C   UNL     1      44.895   3.112   8.574  0.00  0.00    +0.000 A 
ATOM     21  C   UNL     1      44.243   3.021   9.790  0.00  0.00    +0.000 A 
ATOM     22  N   UNL     1      44.301   3.974  10.748  0.00  0.00    +0.000 NA
ENDBRANCH  16  17
ENDBRANCH  11  16
TORSDOF 2
ENDMDL
MODEL 5
REMARK VINA RESULT:    -6.088      2.280      6.773
REMARK INTER + INTRA:          -7.182
REMARK INTER:                  -6.876
REMARK INTRA:                  -0.306
REMARK UNBOUND:                -0.383
REMARK  Name = 
REMARK  2 active torsions:
REMARK  status: ('A' for Active; 'I' for Inactive)
REMARK    1  A    between atoms: N_11  and  C_12
REMARK    2  A    between atoms: C_12  and  C_13
REMARK                            x       y       z     vdW  Elec       q    Type
REMARK                         _______ _______ _______ _____ _____    ______ ____
ROOT
ATOM      1  N   UNL     1      44.149   2.165   9.810  0.00  0.00    +0.000 NA
ATOM      2  C   UNL     1      44.160   3.451   9.888  0.00  0.00    +0.000 C 
ATOM      3  N   UNL     1      44.171   4.209   8.770  0.00  0.00    +0.000 N 
ATOM      4  N   UNL     1      44.211   4.127  11.067  0.00  0.00    +0.000 N 
ATOM      5  C   UNL     1      44.834   3.511  12.260  0.00  0.00    +0.000 C 
ATOM      6  C   UNL     1      46.184   4.213  12.573  0.00  0.00    +0.000 C 
ATOM      7  C   UNL     1      45.978   5.701  12.576  0.00  0.00    +0.000 A 
ATOM      8  C   UNL     1      44.888   6.322  11.987  0.00  0.00    +0.000 A 
ATOM      9  C   UNL     1      45.034   7.711  12.195  0.00  0.00    +0.000 A 
ATOM     10  C   UNL     1      46.234   7.895  12.850  0.00  0.00    +0.000 A 
ATOM     11  N   UNL     1      46.815   6.664  13.074  0.00  0.00    +0.000 N 
ATOM     12  C   UNL     1      43.822   5.535  11.275  0.00  0.00    +0.000 C 
ATOM     13  H   UNL     1      44.086   1.879   8.835  0.00  0.00    +0.000 HD
ATOM     14  H   UNL     1      44.386   3.698   7.925  0.00  0.00    +0.000 HD
ATOM     15  H   UNL     1      44.796   5.002   8.862  0.00  0.00    +0.000 HD
ENDROOT
BRANCH  11  16
ATOM     16  C   UNL     1      48.182   6.470  13.548  0.00  0.00    +0.000 C 
BRANCH  16  17
ATOM     17  C   UNL     1      48.306   6.272  15.037  0.00  0.00    +0.000 A 
ATOM     18  C   UNL     1      48.869   7.247  15.863  0.00  0.00    +0.000 A 
ATOM     19  C   UNL     1      49.111   6.946  17.202  0.00  0.00    +0.000 A 
ATOM     20  C   UNL     1      48.790   5.688  17.689  0.00  0.00    +0.000 A 
ATOM     21  C   UNL     1      48.224   4.778  16.815  0.00  0.00    +0.000 A 
ATOM     22  N   UNL     1      47.982   5.039  15.510  0.00  0.00    +0.000 NA
ENDBRANCH  16  17
ENDBRANCH  11  16
TORSDOF 2
ENDMDL
MODEL 6
REMARK VINA RESULT:    -6.067      1.924      3.215
REMARK INTER + INTRA:          -7.160
REMARK INTER:                  -6.864
REMARK INTRA:                  -0.295
REMARK UNBOUND:                -0.383
REMARK  Name = 
REMARK  2 active torsions:
REMARK  status: ('A' for Active; 'I' for Inactive)
REMARK    1  A    between atoms: N_11  and  C_12
REMARK    2  A    between atoms: C_12  and  C_13
REMARK                            x       y       z     vdW  Elec       q    Type
REMARK                         _______ _______ _______ _____ _____    ______ ____
ROOT
ATOM      1  N   UNL     1      49.477   7.662  16.067  0.00  0.00    +0.000 NA
ATOM      2  C   UNL     1      48.513   8.271  15.469  0.00  0.00    +0.000 C 
ATOM      3  N   UNL     1      47.700   9.108  16.148  0.00  0.00    +0.000 N 
ATOM      4  N   UNL     1      48.214   8.085  14.156  0.00  0.00    +0.000 N 
ATOM      5  C   UNL     1      48.543   6.809  13.483  0.00  0.00    +0.000 C 
ATOM      6  C   UNL     1      47.241   6.011  13.197  0.00  0.00    +0.000 C 
ATOM      7  C   UNL     1      46.241   6.917  12.536  0.00  0.00    +0.000 A 
ATOM      8  C   UNL     1      46.323   8.300  12.574  0.00  0.00    +0.000 A 
ATOM      9  C   UNL     1      45.223   8.805  11.846  0.00  0.00    +0.000 A 
ATOM     10  C   UNL     1      44.477   7.717  11.440  0.00  0.00    +0.000 A 
ATOM     11  N   UNL     1      45.097   6.563  11.872  0.00  0.00    +0.000 N 
ATOM     12  C   UNL     1      47.431   9.004  13.308  0.00  0.00    +0.000 C 
ATOM     13  H   UNL     1      49.531   7.969  17.037  0.00  0.00    +0.000 HD
ATOM     14  H   UNL     1      47.778   9.037  17.153  0.00  0.00    +0.000 HD
ATOM     15  H   UNL     1      46.732   8.997  15.870  0.00  0.00    +0.000 HD
ENDROOT
BRANCH  11  16
ATOM     16  C   UNL     1      44.497   5.234  11.817  0.00  0.00    +0.000 C 
BRANCH  16  17
ATOM     17  C   UNL     1      44.862   4.431  10.594  0.00  0.00    +0.000 A 
ATOM     18  C   UNL     1      45.493   5.014   9.495  0.00  0.00    +0.000 A 
ATOM     19  C   UNL     1      45.657   4.267   8.330  0.00  0.00    +0.000 A 
ATOM     20  C   UNL     1      45.191   2.961   8.284  0.00  0.00    +0.000 A 
ATOM     21  C   UNL     1      44.588   2.447   9.417  0.00  0.00    +0.000 A 
ATOM     22  N   UNL     1      44.411   3.149  10.560  0.00  0.00    +0.000 NA
ENDBRANCH  16  17
ENDBRANCH  11  16
TORSDOF 2
ENDMDL
MODEL 7
REMARK VINA RESULT:    -5.943      3.212      6.887
REMARK INTER + INTRA:          -7.021
REMARK INTER:                  -6.796
REMARK INTRA:                  -0.225
REMARK UNBOUND:                -0.383
REMARK  Name = 
REMARK  2 active torsions:
REMARK  status: ('A' for Active; 'I' for Inactive)
REMARK    1  A    between atoms: N_11  and  C_12
REMARK    2  A    between atoms: C_12  and  C_13
REMARK                            x       y       z     vdW  Elec       q    Type
REMARK                         _______ _______ _______ _____ _____    ______ ____
ROOT
ATOM      1  N   UNL     1      43.680   4.477   9.501  0.00  0.00    +0.000 NA
ATOM      2  C   UNL     1      44.739   5.089   9.906  0.00  0.00    +0.000 C 
ATOM      3  N   UNL     1      45.814   5.213   9.099  0.00  0.00    +0.000 N 
ATOM      4  N   UNL     1      44.873   5.598  11.160  0.00  0.00    +0.000 N 
ATOM      5  C   UNL     1      44.124   5.011  12.293  0.00  0.00    +0.000 C 
ATOM      6  C   UNL     1      45.098   4.244  13.229  0.00  0.00    +0.000 C 
ATOM      7  C   UNL     1      46.275   5.122  13.543  0.00  0.00    +0.000 A 
ATOM      8  C   UNL     1      46.621   6.233  12.791  0.00  0.00    +0.000 A 
ATOM      9  C   UNL     1      47.767   6.804  13.388  0.00  0.00    +0.000 A 
ATOM     10  C   UNL     1      48.116   5.990  14.446  0.00  0.00    +0.000 A 
ATOM     11  N   UNL     1      47.207   4.956  14.534  0.00  0.00    +0.000 N 
ATOM     12  C   UNL     1      45.835   6.637  11.574  0.00  0.00    +0.000 C 
ATOM     13  H   UNL     1      43.793   4.202   8.526  0.00  0.00    +0.000 HD
ATOM     14  H   UNL     1      45.790   4.619   8.282  0.00  0.00    +0.000 HD
ATOM     15  H   UNL     1      46.680   5.068   9.605  0.00  0.00    +0.000 HD
ENDROOT
BRANCH  11  16
ATOM     16  C   UNL     1      47.369   3.785  15.389  0.00  0.00    +0.000 C 
BRANCH  16  17
ATOM     17  C   UNL     1      47.970   4.075  16.741  0.00  0.00    +0.000 A 
ATOM     18  C   UNL     1      47.256   4.751  17.732  0.00  0.00    +0.000 A 
ATOM     19  C   UNL     1      47.913   5.137  18.899  0.00  0.00    +0.000 A 
ATOM     20  C   UNL     1      49.260   4.845  19.054  0.00  0.00    +0.000 A 
ATOM     21  C   UNL     1      49.898   4.161  18.035  0.00  0.00    +0.000 A 
ATOM     22  N   UNL     1      49.288   3.777  16.890  0.00  0.00    +0.000 NA
ENDBRANCH  16  17
ENDBRANCH  11  16
TORSDOF 2
ENDMDL
MODEL 8
REMARK VINA RESULT:    -5.923      2.000      6.172
REMARK INTER + INTRA:          -6.999
REMARK INTER:                  -6.607
REMARK INTRA:                  -0.391
REMARK UNBOUND:                -0.383
REMARK  Name = 
REMARK  2 active torsions:
REMARK  status: ('A' for Active; 'I' for Inactive)
REMARK    1  A    between atoms: N_11  and  C_12
REMARK    2  A    between atoms: C_12  and  C_13
REMARK                            x       y       z     vdW  Elec       q    Type
REMARK                         _______ _______ _______ _____ _____    ______ ____
ROOT
ATOM      1  N   UNL     1      44.060   2.434  10.199  0.00  0.00    +0.000 NA
ATOM      2  C   UNL     1      44.116   3.720  10.161  0.00  0.00    +0.000 C 
ATOM      3  N   UNL     1      44.224   4.371   8.982  0.00  0.00    +0.000 N 
ATOM      4  N   UNL     1      44.124   4.500  11.275  0.00  0.00    +0.000 N 
ATOM      5  C   UNL     1      44.649   3.976  12.555  0.00  0.00    +0.000 C 
ATOM      6  C   UNL     1      46.004   4.657  12.889  0.00  0.00    +0.000 C 
ATOM      7  C   UNL     1      45.857   6.145  12.745  0.00  0.00    +0.000 A 
ATOM      8  C   UNL     1      44.830   6.746  12.035  0.00  0.00    +0.000 A 
ATOM      9  C   UNL     1      45.018   8.143  12.126  0.00  0.00    +0.000 A 
ATOM     10  C   UNL     1      46.183   8.346  12.836  0.00  0.00    +0.000 A 
ATOM     11  N   UNL     1      46.701   7.121  13.207  0.00  0.00    +0.000 N 
ATOM     12  C   UNL     1      43.779   5.933  11.331  0.00  0.00    +0.000 C 
ATOM     13  H   UNL     1      44.044   2.061   9.251  0.00  0.00    +0.000 HD
ATOM     14  H   UNL     1      44.469   3.777   8.202  0.00  0.00    +0.000 HD
ATOM     15  H   UNL     1      44.873   5.147   9.042  0.00  0.00    +0.000 HD
ENDROOT
BRANCH  11  16
ATOM     16  C   UNL     1      48.027   6.926  13.781  0.00  0.00    +0.000 C 
BRANCH  16  17
ATOM     17  C   UNL     1      49.143   7.607  13.030  0.00  0.00    +0.000 A 
ATOM     18  C   UNL     1      49.511   7.209  11.744  0.00  0.00    +0.000 A 
ATOM     19  C   UNL     1      50.652   7.760  11.163  0.00  0.00    +0.000 A 
ATOM     20  C   UNL     1      51.398   8.691  11.871  0.00  0.00    +0.000 A 
ATOM     21  C   UNL     1      50.964   9.046  13.134  0.00  0.00    +0.000 A 
ATOM     22  N   UNL     1      49.865   8.526  13.726  0.00  0.00    +0.000 NA
ENDBRANCH  16  17
ENDBRANCH  11  16
TORSDOF 2
ENDMDL
MODEL 9
REMARK VINA RESULT:    -5.658      2.816      6.063
REMARK INTER + INTRA:          -6.703
REMARK INTER:                  -6.317
REMARK INTRA:                  -0.386
REMARK UNBOUND:                -0.383
REMARK  Name = 
REMARK  2 active torsions:
REMARK  status: ('A' for Active; 'I' for Inactive)
REMARK    1  A    between atoms: N_11  and  C_12
REMARK    2  A    between atoms: C_12  and  C_13
REMARK                            x       y       z     vdW  Elec       q    Type
REMARK                         _______ _______ _______ _____ _____    ______ ____
ROOT
ATOM      1  N   UNL     1      42.671   5.828  10.894  0.00  0.00    +0.000 NA
ATOM      2  C   UNL     1      43.313   5.537  11.973  0.00  0.00    +0.000 C 
ATOM      3  N   UNL     1      42.675   5.490  13.162  0.00  0.00    +0.000 N 
ATOM      4  N   UNL     1      44.653   5.311  12.006  0.00  0.00    +0.000 N 
ATOM      5  C   UNL     1      45.545   5.930  11.001  0.00  0.00    +0.000 C 
ATOM      6  C   UNL     1      46.398   7.045  11.667  0.00  0.00    +0.000 C 
ATOM      7  C   UNL     1      47.021   6.506  12.923  0.00  0.00    +0.000 A 
ATOM      8  C   UNL     1      46.566   5.371  13.574  0.00  0.00    +0.000 A 
ATOM      9  C   UNL     1      47.394   5.174  14.701  0.00  0.00    +0.000 A 
ATOM     10  C   UNL     1      48.286   6.226  14.733  0.00  0.00    +0.000 A 
ATOM     11  N   UNL     1      48.050   7.046  13.649  0.00  0.00    +0.000 N 
ATOM     12  C   UNL     1      45.384   4.591  13.067  0.00  0.00    +0.000 C 
ATOM     13  H   UNL     1      41.679   5.933  11.100  0.00  0.00    +0.000 HD
ATOM     14  H   UNL     1      41.752   5.902  13.154  0.00  0.00    +0.000 HD
ATOM     15  H   UNL     1      43.231   5.905  13.901  0.00  0.00    +0.000 HD
ENDROOT
BRANCH  11  16
ATOM     16  C   UNL     1      48.648   8.364  13.465  0.00  0.00    +0.000 C 
BRANCH  16  17
ATOM     17  C   UNL     1      49.941   8.362  12.690  0.00  0.00    +0.000 A 
ATOM     18  C   UNL     1      50.027   7.823  11.406  0.00  0.00    +0.000 A 
ATOM     19  C   UNL     1      51.277   7.698  10.803  0.00  0.00    +0.000 A 
ATOM     20  C   UNL     1      52.410   8.110  11.488  0.00  0.00    +0.000 A 
ATOM     21  C   UNL     1      52.246   8.647  12.752  0.00  0.00    +0.000 A 
ATOM     22  N   UNL     1      51.047   8.776  13.364  0.00  0.00    +0.000 NA
ENDBRANCH  16  17
ENDBRANCH  11  16
TORSDOF 2
ENDMDL
