MODEL 1
REMARK VINA RESULT:    -8.629      0.000      0.000
REMARK INTER + INTRA:         -10.060
REMARK INTER:                 -10.142
REMARK INTRA:                   0.083
REMARK UNBOUND:                 0.083
REMARK  Name = 
REMARK  3 active torsions:
REMARK  status: ('A' for Active; 'I' for Inactive)
REMARK    1  A    between atoms: C_5  and  C_6
REMARK    2  A    between atoms: C_6  and  N_7
REMARK    3  A    between atoms: C_11  and  C_12
REMARK                            x       y       z     vdW  Elec       q    Type
REMARK                         _______ _______ _______ _____ _____    ______ ____
ROOT
ATOM      1  N   UNL     1      44.328   5.227   9.881  0.00  0.00    +0.000 N 
ATOM      2  C   UNL     1      44.999   4.206   9.215  0.00  0.00    +0.000 A 
ATOM      3  C   UNL     1      44.993   2.878   9.612  0.00  0.00    +0.000 A 
ATOM      4  C   UNL     1      45.683   1.933   8.845  0.00  0.00    +0.000 A 
ATOM      5  C   UNL     1      46.368   2.338   7.698  0.00  0.00    +0.000 A 
ATOM      6  C   UNL     1      46.308   3.679   7.370  0.00  0.00    +0.000 A 
ATOM      7  N   UNL     1      45.645   4.607   8.098  0.00  0.00    +0.000 NA
ATOM      8  H   UNL     1      44.558   6.100   9.421  0.00  0.00    +0.000 HD
ENDROOT
BRANCH   5   9
ATOM      9  C   UNL     1      47.149   1.404   6.828  0.00  0.00    +0.000 C 
ATOM     10  F   UNL     1      46.793   0.098   6.973  0.00  0.00    +0.000 F 
ATOM     11  F   UNL     1      47.012   1.684   5.502  0.00  0.00    +0.000 F 
ATOM     12  F   UNL     1      48.487   1.454   7.082  0.00  0.00    +0.000 F 
ENDBRANCH   5   9
BRANCH   1  13
ATOM     13  C   UNL     1      43.937   5.239  11.293  0.00  0.00    +0.000 C 
ATOM     14  C   UNL     1      42.541   5.645  11.728  0.00  0.00    +0.000 C 
ATOM     15  C   UNL     1      42.887   4.196  11.674  0.00  0.00    +0.000 C 
BRANCH  13  20
ATOM     16  F   UNL     1      48.379   5.833  14.790  0.00  0.00    +0.000 F 
ATOM     17  C   UNL     1      47.315   5.695  13.989  0.00  0.00    +0.000 A 
ATOM     18  C   UNL     1      46.691   4.460  13.887  0.00  0.00    +0.000 A 
ATOM     19  C   UNL     1      45.590   4.313  13.038  0.00  0.00    +0.000 A 
ATOM     20  C   UNL     1      45.104   5.390  12.271  0.00  0.00    +0.000 A 
ATOM     21  C   UNL     1      45.752   6.632  12.422  0.00  0.00    +0.000 A 
ATOM     22  C   UNL     1      46.849   6.785  13.271  0.00  0.00    +0.000 A 
ENDBRANCH  13  20
ENDBRANCH   1  13
TORSDOF 3
ENDMDL
MODEL 2
REMARK VINA RESULT:    -8.116      1.546      2.153
REMARK INTER + INTRA:          -9.457
REMARK INTER:                  -8.818
REMARK INTRA:                  -0.639
REMARK UNBOUND:                 0.083
REMARK  Name = 
REMARK  3 active torsions:
REMARK  status: ('A' for Active; 'I' for Inactive)
REMARK    1  A    between atoms: C_5  and  C_6
REMARK    2  A    between atoms: C_6  and  N_7
REMARK    3  A    between atoms: C_11  and  C_12
REMARK                            x       y       z     vdW  Elec       q    Type
REMARK                         _______ _______ _______ _____ _____    ______ ____
ROOT
ATOM      1  N   UNL     1      44.558   3.983  11.310  0.00  0.00    +0.000 N 
ATOM      2  C   UNL     1      45.126   3.698  10.072  0.00  0.00    +0.000 A 
ATOM      3  C   UNL     1      45.665   4.651   9.222  0.00  0.00    +0.000 A 
ATOM      4  C   UNL     1      46.236   4.241   8.012  0.00  0.00    +0.000 A 
ATOM      5  C   UNL     1      46.252   2.886   7.677  0.00  0.00    +0.000 A 
ATOM      6  C   UNL     1      45.705   2.005   8.591  0.00  0.00    +0.000 A 
ATOM      7  N   UNL     1      45.150   2.382   9.766  0.00  0.00    +0.000 NA
ATOM      8  H   UNL     1      44.183   3.119  11.685  0.00  0.00    +0.000 HD
ENDROOT
BRANCH   5   9
ATOM      9  C   UNL     1      46.821   2.357   6.398  0.00  0.00    +0.000 C 
ATOM     10  F   UNL     1      48.107   2.743   6.173  0.00  0.00    +0.000 F 
ATOM     11  F   UNL     1      46.826   0.996   6.350  0.00  0.00    +0.000 F 
ATOM     12  F   UNL     1      46.115   2.766   5.307  0.00  0.00    +0.000 F 
ENDBRANCH   5   9
BRANCH   1  13
ATOM     13  C   UNL     1      43.979   5.261  11.732  0.00  0.00    +0.000 C 
ATOM     14  C   UNL     1      42.582   5.679  11.312  0.00  0.00    +0.000 C 
ATOM     15  C   UNL     1      42.792   5.140  12.687  0.00  0.00    +0.000 C 
BRANCH  13  20
ATOM     16  F   UNL     1      47.844   9.264  12.897  0.00  0.00    +0.000 F 
ATOM     17  C   UNL     1      46.923   8.324  12.650  0.00  0.00    +0.000 A 
ATOM     18  C   UNL     1      47.142   7.022  13.080  0.00  0.00    +0.000 A 
ATOM     19  C   UNL     1      46.188   6.038  12.807  0.00  0.00    +0.000 A 
ATOM     20  C   UNL     1      45.010   6.333  12.092  0.00  0.00    +0.000 A 
ATOM     21  C   UNL     1      44.817   7.671  11.695  0.00  0.00    +0.000 A 
ATOM     22  C   UNL     1      45.764   8.658  11.968  0.00  0.00    +0.000 A 
ENDBRANCH  13  20
ENDBRANCH   1  13
TORSDOF 3
ENDMDL
MODEL 3
REMARK VINA RESULT:    -7.562      2.300      6.889
REMARK INTER + INTRA:          -8.806
REMARK INTER:                  -8.433
REMARK INTRA:                  -0.372
REMARK UNBOUND:                 0.083
REMARK  Name = 
REMARK  3 active torsions:
REMARK  status: ('A' for Active; 'I' for Inactive)
REMARK    1  A    between atoms: C_5  and  C_6
REMARK    2  A    between atoms: C_6  and  N_7
REMARK    3  A    between atoms: C_11  and  C_12
REMARK                            x       y       z     vdW  Elec       q    Type
REMARK                         _______ _______ _______ _____ _____    ______ ____
ROOT
ATOM      1  N   UNL     1      44.387   5.530  10.688  0.00  0.00    +0.000 N 
ATOM      2  C   UNL     1      45.290   6.457  11.199  0.00  0.00    +0.000 A 
ATOM      3  C   UNL     1      46.645   6.218  11.367  0.00  0.00    +0.000 A 
ATOM      4  C   UNL     1      47.462   7.239  11.864  0.00  0.00    +0.000 A 
ATOM      5  C   UNL     1      46.905   8.478  12.185  0.00  0.00    +0.000 A 
ATOM      6  C   UNL     1      45.548   8.633  11.972  0.00  0.00    +0.000 A 
ATOM      7  N   UNL     1      44.742   7.657  11.491  0.00  0.00    +0.000 NA
ATOM      8  H   UNL     1      43.461   5.939  10.739  0.00  0.00    +0.000 HD
ENDROOT
BRANCH   5   9
ATOM      9  C   UNL     1      47.694   9.621  12.741  0.00  0.00    +0.000 C 
ATOM     10  F   UNL     1      47.838   9.578  14.094  0.00  0.00    +0.000 F 
ATOM     11  F   UNL     1      48.956   9.683  12.233  0.00  0.00    +0.000 F 
ATOM     12  F   UNL     1      47.124  10.828  12.466  0.00  0.00    +0.000 F 
ENDBRANCH   5   9
BRANCH   1  13
ATOM     13  C   UNL     1      44.532   4.072  10.700  0.00  0.00    +0.000 C 
ATOM     14  C   UNL     1      44.600   3.291  11.999  0.00  0.00    +0.000 C 
ATOM     15  C   UNL     1      43.318   3.315  11.238  0.00  0.00    +0.000 C 
BRANCH  13  20
ATOM     16  F   UNL     1      47.031   1.854   6.102  0.00  0.00    +0.000 F 
ATOM     17  C   UNL     1      46.418   2.378   7.170  0.00  0.00    +0.000 A 
ATOM     18  C   UNL     1      46.227   3.751   7.245  0.00  0.00    +0.000 A 
ATOM     19  C   UNL     1      45.601   4.299   8.368  0.00  0.00    +0.000 A 
ATOM     20  C   UNL     1      45.168   3.489   9.436  0.00  0.00    +0.000 A 
ATOM     21  C   UNL     1      45.360   2.099   9.310  0.00  0.00    +0.000 A 
ATOM     22  C   UNL     1      45.980   1.547   8.189  0.00  0.00    +0.000 A 
ENDBRANCH  13  20
ENDBRANCH   1  13
TORSDOF 3
ENDMDL
MODEL 4
REMARK VINA RESULT:    -7.464      1.798      6.958
REMARK INTER + INTRA:          -8.690
REMARK INTER:                  -8.177
REMARK INTRA:                  -0.513
REMARK UNBOUND:                 0.083
REMARK  Name = 
REMARK  3 active torsions:
REMARK  status: ('A' for Active; 'I' for Inactive)
REMARK    1  A    between atoms: C_5  and  C_6
REMARK    2  A    between atoms: C_6  and  N_7
REMARK    3  A    between atoms: C_11  and  C_12
REMARK                            x       y       z     vdW  Elec       q    Type
REMARK                         _______ _______ _______ _____ _____    ______ ____
ROOT
ATOM      1  N   UNL     1      45.701   5.419  11.551  0.00  0.00    +0.000 N 
ATOM      2  C   UNL     1      46.289   5.119  12.776  0.00  0.00    +0.000 A 
ATOM      3  C   UNL     1      46.384   3.841  13.305  0.00  0.00    +0.000 A 
ATOM      4  C   UNL     1      47.025   3.657  14.535  0.00  0.00    +0.000 A 
ATOM      5  C   UNL     1      47.554   4.758  15.212  0.00  0.00    +0.000 A 
ATOM      6  C   UNL     1      47.426   5.992  14.603  0.00  0.00    +0.000 A 
ATOM      7  N   UNL     1      46.811   6.189  13.414  0.00  0.00    +0.000 NA
ATOM      8  H   UNL     1      45.705   6.428  11.444  0.00  0.00    +0.000 HD
ENDROOT
BRANCH   5   9
ATOM      9  C   UNL     1      48.237   4.662  16.540  0.00  0.00    +0.000 C 
ATOM     10  F   UNL     1      49.261   5.546  16.691  0.00  0.00    +0.000 F 
ATOM     11  F   UNL     1      47.390   4.888  17.582  0.00  0.00    +0.000 F 
ATOM     12  F   UNL     1      48.775   3.429  16.759  0.00  0.00    +0.000 F 
ENDBRANCH   5   9
BRANCH   1  13
ATOM     13  C   UNL     1      44.687   4.626  10.851  0.00  0.00    +0.000 C 
ATOM     14  C   UNL     1      43.434   4.139  11.553  0.00  0.00    +0.000 C 
ATOM     15  C   UNL     1      43.344   5.330  10.661  0.00  0.00    +0.000 C 
BRANCH  13  20
ATOM     16  F   UNL     1      46.763   1.725   6.425  0.00  0.00    +0.000 F 
ATOM     17  C   UNL     1      46.250   2.413   7.452  0.00  0.00    +0.000 A 
ATOM     18  C   UNL     1      46.294   3.801   7.437  0.00  0.00    +0.000 A 
ATOM     19  C   UNL     1      45.773   4.518   8.517  0.00  0.00    +0.000 A 
ATOM     20  C   UNL     1      45.212   3.864   9.632  0.00  0.00    +0.000 A 
ATOM     21  C   UNL     1      45.166   2.456   9.597  0.00  0.00    +0.000 A 
ATOM     22  C   UNL     1      45.682   1.735   8.519  0.00  0.00    +0.000 A 
ENDBRANCH  13  20
ENDBRANCH   1  13
TORSDOF 3
ENDMDL
MODEL 5
REMARK VINA RESULT:    -7.359      1.953      6.980
REMARK INTER + INTRA:          -8.567
REMARK INTER:                  -8.097
REMARK INTRA:                  -0.470
REMARK UNBOUND:                 0.083
REMARK  Name = 
REMARK  3 active torsions:
REMARK  status: ('A' for Active; 'I' for Inactive)
REMARK    1  A    between atoms: C_5  and  C_6
REMARK    2  A    between atoms: C_6  and  N_7
REMARK    3  A    between atoms: C_11  and  C_12
REMARK                            x       y       z     vdW  Elec       q    Type
REMARK                         _______ _______ _______ _____ _____    ______ ____
ROOT
ATOM      1  N   UNL     1      44.600   6.008  11.116  0.00  0.00    +0.000 N 
ATOM      2  C   UNL     1      45.540   6.658  11.911  0.00  0.00    +0.000 A 
ATOM      3  C   UNL     1      46.698   6.068  12.392  0.00  0.00    +0.000 A 
ATOM      4  C   UNL     1      47.585   6.830  13.159  0.00  0.00    +0.000 A 
ATOM      5  C   UNL     1      47.293   8.168  13.431  0.00  0.00    +0.000 A 
ATOM      6  C   UNL     1      46.123   8.677  12.899  0.00  0.00    +0.000 A 
ATOM      7  N   UNL     1      45.254   7.956  12.154  0.00  0.00    +0.000 NA
ATOM      8  H   UNL     1      43.826   6.646  10.968  0.00  0.00    +0.000 HD
ENDROOT
BRANCH   5   9
ATOM      9  C   UNL     1      48.169   9.055  14.258  0.00  0.00    +0.000 C 
ATOM     10  F   UNL     1      48.275  10.322  13.771  0.00  0.00    +0.000 F 
ATOM     11  F   UNL     1      47.728   9.182  15.540  0.00  0.00    +0.000 F 
ATOM     12  F   UNL     1      49.445   8.585  14.349  0.00  0.00    +0.000 F 
ENDBRANCH   5   9
BRANCH   1  13
ATOM     13  C   UNL     1      44.365   4.564  11.045  0.00  0.00    +0.000 C 
ATOM     14  C   UNL     1      44.028   3.751  12.281  0.00  0.00    +0.000 C 
ATOM     15  C   UNL     1      42.930   4.134  11.347  0.00  0.00    +0.000 C 
BRANCH  13  20
ATOM     16  F   UNL     1      46.689   2.076   6.492  0.00  0.00    +0.000 F 
ATOM     17  C   UNL     1      46.166   2.656   7.579  0.00  0.00    +0.000 A 
ATOM     18  C   UNL     1      45.620   1.866   8.581  0.00  0.00    +0.000 A 
ATOM     19  C   UNL     1      45.060   2.473   9.709  0.00  0.00    +0.000 A 
ATOM     20  C   UNL     1      45.024   3.875   9.848  0.00  0.00    +0.000 A 
ATOM     21  C   UNL     1      45.609   4.639   8.819  0.00  0.00    +0.000 A 
ATOM     22  C   UNL     1      46.174   4.038   7.693  0.00  0.00    +0.000 A 
ENDBRANCH  13  20
ENDBRANCH   1  13
TORSDOF 3
ENDMDL
MODEL 6
REMARK VINA RESULT:    -6.948      2.245      6.462
REMARK INTER + INTRA:          -8.084
REMARK INTER:                  -8.095
REMARK INTRA:                   0.011
REMARK UNBOUND:                 0.083
REMARK  Name = 
REMARK  3 active torsions:
REMARK  status: ('A' for Active; 'I' for Inactive)
REMARK    1  A    between atoms: C_5  and  C_6
REMARK    2  A    between atoms: C_6  and  N_7
REMARK    3  A    between atoms: C_11  and  C_12
REMARK                            x       y       z     vdW  Elec       q    Type
REMARK                         _______ _______ _______ _____ _____    ______ ____
ROOT
ATOM      1  N   UNL     1      45.326   4.761  12.468  0.00  0.00    +0.000 N 
ATOM      2  C   UNL     1      46.425   5.614  12.436  0.00  0.00    +0.000 A 
ATOM      3  C   UNL     1      46.513   6.745  11.640  0.00  0.00    +0.000 A 
ATOM      4  C   UNL     1      47.659   7.545  11.713  0.00  0.00    +0.000 A 
ATOM      5  C   UNL     1      48.695   7.193  12.581  0.00  0.00    +0.000 A 
ATOM      6  C   UNL     1      48.515   6.057  13.348  0.00  0.00    +0.000 A 
ATOM      7  N   UNL     1      47.414   5.272  13.291  0.00  0.00    +0.000 NA
ATOM      8  H   UNL     1      45.555   3.984  13.079  0.00  0.00    +0.000 HD
ENDROOT
BRANCH   5   9
ATOM      9  C   UNL     1      49.965   7.974  12.713  0.00  0.00    +0.000 C 
ATOM     10  F   UNL     1      49.778   9.322  12.709  0.00  0.00    +0.000 F 
ATOM     11  F   UNL     1      50.636   7.692  13.863  0.00  0.00    +0.000 F 
ATOM     12  F   UNL     1      50.839   7.718  11.699  0.00  0.00    +0.000 F 
ENDBRANCH   5   9
BRANCH   1  13
ATOM     13  C   UNL     1      44.334   4.574  11.407  0.00  0.00    +0.000 C 
ATOM     14  C   UNL     1      42.853   4.454  11.715  0.00  0.00    +0.000 C 
ATOM     15  C   UNL     1      43.382   5.753  11.208  0.00  0.00    +0.000 C 
BRANCH  13  20
ATOM     16  F   UNL     1      46.528   2.178   6.742  0.00  0.00    +0.000 F 
ATOM     17  C   UNL     1      45.987   2.748   7.826  0.00  0.00    +0.000 A 
ATOM     18  C   UNL     1      45.981   4.131   7.941  0.00  0.00    +0.000 A 
ATOM     19  C   UNL     1      45.431   4.725   9.081  0.00  0.00    +0.000 A 
ATOM     20  C   UNL     1      44.890   3.949  10.126  0.00  0.00    +0.000 A 
ATOM     21  C   UNL     1      44.895   2.550   9.958  0.00  0.00    +0.000 A 
ATOM     22  C   UNL     1      45.440   1.953   8.821  0.00  0.00    +0.000 A 
ENDBRANCH  13  20
ENDBRANCH   1  13
TORSDOF 3
ENDMDL
MODEL 7
REMARK VINA RESULT:    -6.910      4.570      6.726
REMARK INTER + INTRA:          -8.040
REMARK INTER:                  -7.736
REMARK INTRA:                  -0.303
REMARK UNBOUND:                 0.083
REMARK  Name = 
REMARK  3 active torsions:
REMARK  status: ('A' for Active; 'I' for Inactive)
REMARK    1  A    between atoms: C_5  and  C_6
REMARK    2  A    between atoms: C_6  and  N_7
REMARK    3  A    between atoms: C_11  and  C_12
REMARK                            x       y       z     vdW  Elec       q    Type
REMARK                         _______ _______ _______ _____ _____    ______ ____
ROOT
ATOM      1  N   UNL     1      47.602   3.020  15.352  0.00  0.00    +0.000 N 
ATOM      2  C   UNL     1      47.075   3.866  14.381  0.00  0.00    +0.000 A 
ATOM      3  C   UNL     1      47.249   5.241  14.365  0.00  0.00    +0.000 A 
ATOM      4  C   UNL     1      46.696   5.988  13.320  0.00  0.00    +0.000 A 
ATOM      5  C   UNL     1      45.976   5.342  12.313  0.00  0.00    +0.000 A 
ATOM      6  C   UNL     1      45.865   3.967  12.402  0.00  0.00    +0.000 A 
ATOM      7  N   UNL     1      46.395   3.228  13.404  0.00  0.00    +0.000 NA
ATOM      8  H   UNL     1      47.265   2.082  15.162  0.00  0.00    +0.000 HD
ENDROOT
BRANCH   5   9
ATOM      9  C   UNL     1      45.332   6.058  11.168  0.00  0.00    +0.000 C 
ATOM     10  F   UNL     1      45.285   7.409  11.327  0.00  0.00    +0.000 F 
ATOM     11  F   UNL     1      45.974   5.843   9.986  0.00  0.00    +0.000 F 
ATOM     12  F   UNL     1      44.043   5.663  10.968  0.00  0.00    +0.000 F 
ENDBRANCH   5   9
BRANCH   1  13
ATOM     13  C   UNL     1      47.974   3.386  16.721  0.00  0.00    +0.000 C 
ATOM     14  C   UNL     1      47.154   4.371  17.532  0.00  0.00    +0.000 C 
ATOM     15  C   UNL     1      46.998   2.912  17.797  0.00  0.00    +0.000 C 
BRANCH  13  20
ATOM     16  F   UNL     1      53.440   2.578  18.058  0.00  0.00    +0.000 F 
ATOM     17  C   UNL     1      52.161   2.778  17.717  0.00  0.00    +0.000 A 
ATOM     18  C   UNL     1      51.626   4.057  17.788  0.00  0.00    +0.000 A 
ATOM     19  C   UNL     1      50.286   4.262  17.447  0.00  0.00    +0.000 A 
ATOM     20  C   UNL     1      49.458   3.195  17.044  0.00  0.00    +0.000 A 
ATOM     21  C   UNL     1      50.047   1.918  16.964  0.00  0.00    +0.000 A 
ATOM     22  C   UNL     1      51.385   1.708  17.299  0.00  0.00    +0.000 A 
ENDBRANCH  13  20
ENDBRANCH   1  13
TORSDOF 3
ENDMDL
MODEL 8
REMARK VINA RESULT:    -6.870      1.868      6.933
REMARK INTER + INTRA:          -7.992
REMARK INTER:                  -7.415
REMARK INTRA:                  -0.577
REMARK UNBOUND:                 0.083
REMARK  Name = 
REMARK  3 active torsions:
REMARK  status: ('A' for Active; 'I' for Inactive)
REMARK    1  A    between atoms: C_5  and  C_6
REMARK    2  A    between atoms: C_6  and  N_7
REMARK    3  A    between atoms: C_11  and  C_12
REMARK                            x       y       z     vdW  Elec       q    Type
REMARK                         _______ _______ _______ _____ _____    ______ ____
ROOT
ATOM      1  N   UNL     1      45.636   5.993  11.839  0.00  0.00    +0.000 N 
ATOM      2  C   UNL     1      46.350   5.729  13.004  0.00  0.00    +0.000 A 
ATOM      3  C   UNL     1      46.500   4.469  13.560  0.00  0.00    +0.000 A 
ATOM      4  C   UNL     1      47.267   4.321  14.721  0.00  0.00    +0.000 A 
ATOM      5  C   UNL     1      47.866   5.439  15.303  0.00  0.00    +0.000 A 
ATOM      6  C   UNL     1      47.676   6.655  14.672  0.00  0.00    +0.000 A 
ATOM      7  N   UNL     1      46.939   6.817  13.548  0.00  0.00    +0.000 NA
ATOM      8  H   UNL     1      45.630   6.998  11.701  0.00  0.00    +0.000 HD
ENDROOT
BRANCH   5   9
ATOM      9  C   UNL     1      48.686   5.382  16.553  0.00  0.00    +0.000 C 
ATOM     10  F   UNL     1      48.116   6.027  17.608  0.00  0.00    +0.000 F 
ATOM     11  F   UNL     1      48.914   4.107  16.973  0.00  0.00    +0.000 F 
ATOM     12  F   UNL     1      49.916   5.947  16.393  0.00  0.00    +0.000 F 
ENDBRANCH   5   9
BRANCH   1  13
ATOM     13  C   UNL     1      44.553   5.183  11.277  0.00  0.00    +0.000 C 
ATOM     14  C   UNL     1      43.319   4.832  12.087  0.00  0.00    +0.000 C 
ATOM     15  C   UNL     1      43.233   5.929  11.081  0.00  0.00    +0.000 C 
BRANCH  13  20
ATOM     16  F   UNL     1      46.018   1.900   6.874  0.00  0.00    +0.000 F 
ATOM     17  C   UNL     1      45.697   2.664   7.925  0.00  0.00    +0.000 A 
ATOM     18  C   UNL     1      45.078   2.088   9.026  0.00  0.00    +0.000 A 
ATOM     19  C   UNL     1      44.728   2.890  10.116  0.00  0.00    +0.000 A 
ATOM     20  C   UNL     1      44.978   4.277  10.119  0.00  0.00    +0.000 A 
ATOM     21  C   UNL     1      45.628   4.816   8.992  0.00  0.00    +0.000 A 
ATOM     22  C   UNL     1      45.983   4.020   7.903  0.00  0.00    +0.000 A 
ENDBRANCH  13  20
ENDBRANCH   1  13
TORSDOF 3
ENDMDL
MODEL 9
REMARK VINA RESULT:    -6.044      3.549      5.485
REMARK INTER + INTRA:          -7.021
REMARK INTER:                  -6.367
REMARK INTRA:                  -0.654
REMARK UNBOUND:                 0.083
REMARK  Name = 
REMARK  3 active torsions:
REMARK  status: ('A' for Active; 'I' for Inactive)
REMARK    1  A    between atoms: C_5  and  C_6
REMARK    2  A    between atoms: C_6  and  N_7
REMARK    3  A    between atoms: C_11  and  C_12
REMARK                            x       y       z     vdW  Elec       q    Type
REMARK                         _______ _______ _______ _____ _____    ______ ____
ROOT
ATOM      1  N   UNL     1      47.193   7.848  12.392  0.00  0.00    +0.000 N 
ATOM      2  C   UNL     1      46.441   6.685  12.258  0.00  0.00    +0.000 A 
ATOM      3  C   UNL     1      46.654   5.528  12.991  0.00  0.00    +0.000 A 
ATOM      4  C   UNL     1      45.814   4.428  12.789  0.00  0.00    +0.000 A 
ATOM      5  C   UNL     1      44.779   4.508  11.856  0.00  0.00    +0.000 A 
ATOM      6  C   UNL     1      44.631   5.705  11.180  0.00  0.00    +0.000 A 
ATOM      7  N   UNL     1      45.433   6.780  11.363  0.00  0.00    +0.000 NA
ATOM      8  H   UNL     1      46.870   8.508  11.692  0.00  0.00    +0.000 HD
ENDROOT
BRANCH   5   9
ATOM      9  C   UNL     1      43.844   3.378  11.558  0.00  0.00    +0.000 C 
ATOM     10  F   UNL     1      43.668   2.527  12.606  0.00  0.00    +0.000 F 
ATOM     11  F   UNL     1      42.599   3.805  11.210  0.00  0.00    +0.000 F 
ATOM     12  F   UNL     1      44.276   2.606  10.521  0.00  0.00    +0.000 F 
ENDBRANCH   5   9
BRANCH   1  13
ATOM     13  C   UNL     1      48.564   7.949  12.897  0.00  0.00    +0.000 C 
ATOM     14  C   UNL     1      49.748   7.457  12.086  0.00  0.00    +0.000 C 
ATOM     15  C   UNL     1      49.459   8.919  12.127  0.00  0.00    +0.000 C 
BRANCH  13  20
ATOM     16  F   UNL     1      48.864   8.062  18.573  0.00  0.00    +0.000 F 
ATOM     17  C   UNL     1      48.815   8.054  17.235  0.00  0.00    +0.000 A 
ATOM     18  C   UNL     1      48.191   9.097  16.566  0.00  0.00    +0.000 A 
ATOM     19  C   UNL     1      48.127   9.080  15.170  0.00  0.00    +0.000 A 
ATOM     20  C   UNL     1      48.672   8.018  14.422  0.00  0.00    +0.000 A 
ATOM     21  C   UNL     1      49.317   6.990  15.138  0.00  0.00    +0.000 A 
ATOM     22  C   UNL     1      49.387   7.005  16.532  0.00  0.00    +0.000 A 
ENDBRANCH  13  20
ENDBRANCH   1  13
TORSDOF 3
ENDMDL
