MODEL 1
REMARK VINA RESULT:    -6.962      0.000      0.000
REMARK INTER + INTRA:          -8.047
REMARK INTER:                  -8.591
REMARK INTRA:                   0.544
REMARK UNBOUND:                 0.544
REMARK  Name = 
REMARK  6 active torsions:
REMARK  status: ('A' for Active; 'I' for Inactive)
REMARK    1  A    between atoms: C_1  and  C_2
REMARK    2  A    between atoms: C_3  and  C_4
REMARK    3  A    between atoms: C_7  and  C_8
REMARK    4  A    between atoms: C_14  and  C_15
REMARK    5  A    between atoms: C_14  and  C_16
REMARK    6  A    between atoms: C_19  and  C_20
REMARK                            x       y       z     vdW  Elec       q    Type
REMARK                         _______ _______ _______ _____ _____    ______ ____
ROOT
ATOM      1  C   UNL     1      46.092   2.936  12.508  0.00  0.00    +0.000 C 
ATOM      2  C   UNL     1      45.191   4.162  12.395  0.00  0.00    +0.000 C 
ATOM      3  C   UNL     1      45.716   5.496  13.047  0.00  0.00    +0.000 C 
ATOM      4  C   UNL     1      46.191   5.899  11.630  0.00  0.00    +0.000 C 
ATOM      5  C   UNL     1      45.105   4.943  11.025  0.00  0.00    +0.000 C 
ATOM      6  C   UNL     1      43.736   5.627  10.844  0.00  0.00    +0.000 C 
ENDROOT
BRANCH   3   7
ATOM      7  C   UNL     1      46.743   5.441  14.245  0.00  0.00    +0.000 A 
ATOM      8  C   UNL     1      46.661   4.520  15.302  0.00  0.00    +0.000 A 
ATOM      9  C   UNL     1      47.586   4.533  16.346  0.00  0.00    +0.000 A 
ATOM     10  C   UNL     1      48.599   5.474  16.304  0.00  0.00    +0.000 A 
ATOM     11  N   UNL     1      48.755   6.374  15.295  0.00  0.00    +0.000 NA
ATOM     12  C   UNL     1      47.833   6.321  14.308  0.00  0.00    +0.000 A 
BRANCH  10  13
ATOM     13  C   UNL     1      49.590   5.553  17.421  0.00  0.00    +0.000 C 
ATOM     14  N   UNL     1      49.290   6.454  18.406  0.00  0.00    +0.000 N 
ATOM     15  O   UNL     1      50.602   4.861  17.462  0.00  0.00    +0.000 OA
ATOM     16  H   UNL     1      48.434   6.994  18.340  0.00  0.00    +0.000 HD
ATOM     17  H   UNL     1      49.898   6.546  19.204  0.00  0.00    +0.000 HD
ENDBRANCH  10  13
ENDBRANCH   3   7
BRANCH   5  18
ATOM     18  C   UNL     1      45.499   4.259   9.668  0.00  0.00    +0.000 A 
ATOM     19  N   UNL     1      46.072   4.993   8.695  0.00  0.00    +0.000 NA
ATOM     20  C   UNL     1      46.464   4.321   7.588  0.00  0.00    +0.000 A 
ATOM     21  C   UNL     1      46.315   2.962   7.422  0.00  0.00    +0.000 A 
ATOM     22  C   UNL     1      45.722   2.308   8.475  0.00  0.00    +0.000 A 
ATOM     23  N   UNL     1      45.311   2.925   9.597  0.00  0.00    +0.000 NA
BRANCH  21  24
ATOM     24  C   UNL     1      46.755   2.221   6.213  0.00  0.00    +0.000 C 
ATOM     25  F   UNL     1      45.982   2.449   5.116  0.00  0.00    +0.000 F 
ATOM     26  F   UNL     1      48.027   2.535   5.844  0.00  0.00    +0.000 F 
ATOM     27  F   UNL     1      46.748   0.872   6.399  0.00  0.00    +0.000 F 
ENDBRANCH  21  24
ENDBRANCH   5  18
TORSDOF 4
ENDMDL
MODEL 2
REMARK VINA RESULT:    -6.273      6.218      9.238
REMARK INTER + INTRA:          -7.196
REMARK INTER:                  -6.896
REMARK INTRA:                  -0.300
REMARK UNBOUND:                 0.544
REMARK  Name = 
REMARK  6 active torsions:
REMARK  status: ('A' for Active; 'I' for Inactive)
REMARK    1  A    between atoms: C_1  and  C_2
REMARK    2  A    between atoms: C_3  and  C_4
REMARK    3  A    between atoms: C_7  and  C_8
REMARK    4  A    between atoms: C_14  and  C_15
REMARK    5  A    between atoms: C_14  and  C_16
REMARK    6  A    between atoms: C_19  and  C_20
REMARK                            x       y       z     vdW  Elec       q    Type
REMARK                         _______ _______ _______ _____ _____    ______ ____
ROOT
ATOM      1  C   UNL     1      48.650   6.664  12.867  0.00  0.00    +0.000 C 
ATOM      2  C   UNL     1      48.051   7.907  12.216  0.00  0.00    +0.000 C 
ATOM      3  C   UNL     1      46.501   7.889  11.936  0.00  0.00    +0.000 C 
ATOM      4  C   UNL     1      46.342   8.685  13.254  0.00  0.00    +0.000 C 
ATOM      5  C   UNL     1      47.812   9.205  13.084  0.00  0.00    +0.000 C 
ATOM      6  C   UNL     1      47.902  10.485  12.232  0.00  0.00    +0.000 C 
ENDROOT
BRANCH   3   7
ATOM      7  C   UNL     1      45.748   6.515  11.739  0.00  0.00    +0.000 A 
ATOM      8  C   UNL     1      45.018   5.873  12.752  0.00  0.00    +0.000 A 
ATOM      9  C   UNL     1      44.391   4.648  12.525  0.00  0.00    +0.000 A 
ATOM     10  C   UNL     1      44.495   4.088  11.265  0.00  0.00    +0.000 A 
ATOM     11  N   UNL     1      45.159   4.673  10.230  0.00  0.00    +0.000 NA
ATOM     12  C   UNL     1      45.750   5.857  10.501  0.00  0.00    +0.000 A 
BRANCH  10  13
ATOM     13  C   UNL     1      43.873   2.758  10.985  0.00  0.00    +0.000 C 
ATOM     14  N   UNL     1      44.409   2.072   9.928  0.00  0.00    +0.000 N 
ATOM     15  O   UNL     1      42.951   2.301  11.652  0.00  0.00    +0.000 OA
ATOM     16  H   UNL     1      45.182   2.481   9.414  0.00  0.00    +0.000 HD
ATOM     17  H   UNL     1      44.058   1.157   9.694  0.00  0.00    +0.000 HD
ENDBRANCH  10  13
ENDBRANCH   3   7
BRANCH   5  18
ATOM     18  C   UNL     1      48.593   9.447  14.425  0.00  0.00    +0.000 A 
ATOM     19  N   UNL     1      48.146   8.887  15.565  0.00  0.00    +0.000 NA
ATOM     20  C   UNL     1      48.916   9.066  16.663  0.00  0.00    +0.000 A 
ATOM     21  C   UNL     1      50.103   9.764  16.664  0.00  0.00    +0.000 A 
ATOM     22  C   UNL     1      50.468  10.291  15.448  0.00  0.00    +0.000 A 
ATOM     23  N   UNL     1      49.742  10.147  14.326  0.00  0.00    +0.000 NA
BRANCH  21  24
ATOM     24  C   UNL     1      50.955   9.953  17.864  0.00  0.00    +0.000 C 
ATOM     25  F   UNL     1      51.148   8.815  18.586  0.00  0.00    +0.000 F 
ATOM     26  F   UNL     1      52.198  10.412  17.553  0.00  0.00    +0.000 F 
ATOM     27  F   UNL     1      50.434  10.862  18.734  0.00  0.00    +0.000 F 
ENDBRANCH  21  24
ENDBRANCH   5  18
TORSDOF 4
ENDMDL
MODEL 3
REMARK VINA RESULT:    -6.248      2.913      3.496
REMARK INTER + INTRA:          -7.165
REMARK INTER:                  -7.187
REMARK INTRA:                   0.022
REMARK UNBOUND:                 0.544
REMARK  Name = 
REMARK  6 active torsions:
REMARK  status: ('A' for Active; 'I' for Inactive)
REMARK    1  A    between atoms: C_1  and  C_2
REMARK    2  A    between atoms: C_3  and  C_4
REMARK    3  A    between atoms: C_7  and  C_8
REMARK    4  A    between atoms: C_14  and  C_15
REMARK    5  A    between atoms: C_14  and  C_16
REMARK    6  A    between atoms: C_19  and  C_20
REMARK                            x       y       z     vdW  Elec       q    Type
REMARK                         _______ _______ _______ _____ _____    ______ ____
ROOT
ATOM      1  C   UNL     1      47.132   5.597  12.701  0.00  0.00    +0.000 C 
ATOM      2  C   UNL     1      45.697   6.114  12.670  0.00  0.00    +0.000 C 
ATOM      3  C   UNL     1      45.503   7.672  12.544  0.00  0.00    +0.000 C 
ATOM      4  C   UNL     1      45.292   7.436  11.029  0.00  0.00    +0.000 C 
ATOM      5  C   UNL     1      44.843   5.968  11.350  0.00  0.00    +0.000 C 
ATOM      6  C   UNL     1      43.337   5.853  11.655  0.00  0.00    +0.000 C 
ENDROOT
BRANCH   3   7
ATOM      7  C   UNL     1      46.632   8.654  13.048  0.00  0.00    +0.000 A 
ATOM      8  C   UNL     1      47.100   9.752  12.307  0.00  0.00    +0.000 A 
ATOM      9  C   UNL     1      48.117  10.572  12.795  0.00  0.00    +0.000 A 
ATOM     10  C   UNL     1      48.643  10.283  14.041  0.00  0.00    +0.000 A 
ATOM     11  N   UNL     1      48.214   9.256  14.825  0.00  0.00    +0.000 NA
ATOM     12  C   UNL     1      47.229   8.490  14.306  0.00  0.00    +0.000 A 
BRANCH  10  13
ATOM     13  C   UNL     1      49.762  11.111  14.589  0.00  0.00    +0.000 C 
ATOM     14  N   UNL     1      49.684  11.386  15.928  0.00  0.00    +0.000 N 
ATOM     15  O   UNL     1      50.690  11.516  13.898  0.00  0.00    +0.000 OA
ATOM     16  H   UNL     1      48.907  11.017  16.465  0.00  0.00    +0.000 HD
ATOM     17  H   UNL     1      50.414  11.917  16.374  0.00  0.00    +0.000 HD
ENDBRANCH  10  13
ENDBRANCH   3   7
BRANCH   5  18
ATOM     18  C   UNL     1      45.208   4.904  10.254  0.00  0.00    +0.000 A 
ATOM     19  N   UNL     1      45.789   5.304   9.107  0.00  0.00    +0.000 NA
ATOM     20  C   UNL     1      46.154   4.325   8.246  0.00  0.00    +0.000 A 
ATOM     21  C   UNL     1      45.972   2.982   8.489  0.00  0.00    +0.000 A 
ATOM     22  C   UNL     1      45.373   2.683   9.689  0.00  0.00    +0.000 A 
ATOM     23  N   UNL     1      44.988   3.614  10.580  0.00  0.00    +0.000 NA
BRANCH  21  24
ATOM     24  C   UNL     1      46.382   1.906   7.552  0.00  0.00    +0.000 C 
ATOM     25  F   UNL     1      45.952   2.096   6.275  0.00  0.00    +0.000 F 
ATOM     26  F   UNL     1      47.735   1.772   7.474  0.00  0.00    +0.000 F 
ATOM     27  F   UNL     1      45.912   0.684   7.926  0.00  0.00    +0.000 F 
ENDBRANCH  21  24
ENDBRANCH   5  18
TORSDOF 4
ENDMDL
MODEL 4
REMARK VINA RESULT:    -6.020      4.426      6.772
REMARK INTER + INTRA:          -6.884
REMARK INTER:                  -7.594
REMARK INTRA:                   0.710
REMARK UNBOUND:                 0.544
REMARK  Name = 
REMARK  6 active torsions:
REMARK  status: ('A' for Active; 'I' for Inactive)
REMARK    1  A    between atoms: C_1  and  C_2
REMARK    2  A    between atoms: C_3  and  C_4
REMARK    3  A    between atoms: C_7  and  C_8
REMARK    4  A    between atoms: C_14  and  C_15
REMARK    5  A    between atoms: C_14  and  C_16
REMARK    6  A    between atoms: C_19  and  C_20
REMARK                            x       y       z     vdW  Elec       q    Type
REMARK                         _______ _______ _______ _____ _____    ______ ____
ROOT
ATOM      1  C   UNL     1      48.921   2.131  16.331  0.00  0.00    +0.000 C 
ATOM      2  C   UNL     1      48.707   3.236  17.361  0.00  0.00    +0.000 C 
ATOM      3  C   UNL     1      49.995   3.848  18.030  0.00  0.00    +0.000 C 
ATOM      4  C   UNL     1      49.882   4.994  16.997  0.00  0.00    +0.000 C 
ATOM      5  C   UNL     1      48.348   4.696  16.877  0.00  0.00    +0.000 C 
ATOM      6  C   UNL     1      47.504   5.452  17.922  0.00  0.00    +0.000 C 
ENDROOT
BRANCH   3   7
ATOM      7  C   UNL     1      51.318   2.991  18.129  0.00  0.00    +0.000 A 
ATOM      8  C   UNL     1      51.482   1.735  17.524  0.00  0.00    +0.000 A 
ATOM      9  C   UNL     1      52.668   1.014  17.665  0.00  0.00    +0.000 A 
ATOM     10  C   UNL     1      53.688   1.581  18.407  0.00  0.00    +0.000 A 
ATOM     11  N   UNL     1      53.608   2.807  18.992  0.00  0.00    +0.000 NA
ATOM     12  C   UNL     1      52.438   3.464  18.828  0.00  0.00    +0.000 A 
BRANCH  10  13
ATOM     13  C   UNL     1      54.963   0.829  18.618  0.00  0.00    +0.000 C 
ATOM     14  N   UNL     1      55.166   0.367  19.891  0.00  0.00    +0.000 N 
ATOM     15  O   UNL     1      55.775   0.630  17.721  0.00  0.00    +0.000 OA
ATOM     16  H   UNL     1      54.460   0.541  20.599  0.00  0.00    +0.000 HD
ATOM     17  H   UNL     1      55.991  -0.170  20.104  0.00  0.00    +0.000 HD
ENDBRANCH  10  13
ENDBRANCH   3   7
BRANCH   5  18
ATOM     18  C   UNL     1      47.726   4.957  15.458  0.00  0.00    +0.000 A 
ATOM     19  N   UNL     1      46.614   4.295  15.088  0.00  0.00    +0.000 NA
ATOM     20  C   UNL     1      46.085   4.633  13.889  0.00  0.00    +0.000 A 
ATOM     21  C   UNL     1      46.614   5.599  13.062  0.00  0.00    +0.000 A 
ATOM     22  C   UNL     1      47.747   6.215  13.535  0.00  0.00    +0.000 A 
ATOM     23  N   UNL     1      48.316   5.918  14.717  0.00  0.00    +0.000 NA
BRANCH  21  24
ATOM     24  C   UNL     1      46.030   5.979  11.751  0.00  0.00    +0.000 C 
ATOM     25  F   UNL     1      45.519   4.930  11.051  0.00  0.00    +0.000 F 
ATOM     26  F   UNL     1      45.012   6.875  11.875  0.00  0.00    +0.000 F 
ATOM     27  F   UNL     1      46.940   6.568  10.927  0.00  0.00    +0.000 F 
ENDBRANCH  21  24
ENDBRANCH   5  18
TORSDOF 4
ENDMDL
MODEL 5
REMARK VINA RESULT:    -6.019      1.975      2.406
REMARK INTER + INTRA:          -6.882
REMARK INTER:                  -7.480
REMARK INTRA:                   0.598
REMARK UNBOUND:                 0.544
REMARK  Name = 
REMARK  6 active torsions:
REMARK  status: ('A' for Active; 'I' for Inactive)
REMARK    1  A    between atoms: C_1  and  C_2
REMARK    2  A    between atoms: C_3  and  C_4
REMARK    3  A    between atoms: C_7  and  C_8
REMARK    4  A    between atoms: C_14  and  C_15
REMARK    5  A    between atoms: C_14  and  C_16
REMARK    6  A    between atoms: C_19  and  C_20
REMARK                            x       y       z     vdW  Elec       q    Type
REMARK                         _______ _______ _______ _____ _____    ______ ____
ROOT
ATOM      1  C   UNL     1      46.796   4.219  12.489  0.00  0.00    +0.000 C 
ATOM      2  C   UNL     1      45.455   4.889  12.210  0.00  0.00    +0.000 C 
ATOM      3  C   UNL     1      45.402   6.459  12.335  0.00  0.00    +0.000 C 
ATOM      4  C   UNL     1      45.573   6.500  10.797  0.00  0.00    +0.000 C 
ATOM      5  C   UNL     1      44.962   5.059  10.719  0.00  0.00    +0.000 C 
ATOM      6  C   UNL     1      43.424   5.061  10.623  0.00  0.00    +0.000 C 
ENDROOT
BRANCH   3   7
ATOM      7  C   UNL     1      46.424   7.213  13.272  0.00  0.00    +0.000 A 
ATOM      8  C   UNL     1      47.412   6.566  14.031  0.00  0.00    +0.000 A 
ATOM      9  C   UNL     1      48.274   7.285  14.859  0.00  0.00    +0.000 A 
ATOM     10  C   UNL     1      48.139   8.661  14.899  0.00  0.00    +0.000 A 
ATOM     11  N   UNL     1      47.226   9.354  14.165  0.00  0.00    +0.000 NA
ATOM     12  C   UNL     1      46.413   8.612  13.380  0.00  0.00    +0.000 A 
BRANCH  10  13
ATOM     13  C   UNL     1      49.015   9.470  15.801  0.00  0.00    +0.000 C 
ATOM     14  N   UNL     1      48.573  10.740  16.059  0.00  0.00    +0.000 N 
ATOM     15  O   UNL     1      50.054   9.036  16.285  0.00  0.00    +0.000 OA
ATOM     16  H   UNL     1      47.699  11.053  15.651  0.00  0.00    +0.000 HD
ATOM     17  H   UNL     1      49.097  11.337  16.679  0.00  0.00    +0.000 HD
ENDBRANCH  10  13
ENDBRANCH   3   7
BRANCH   5  18
ATOM     18  C   UNL     1      45.527   4.156   9.564  0.00  0.00    +0.000 A 
ATOM     19  N   UNL     1      45.302   2.829   9.587  0.00  0.00    +0.000 NA
ATOM     20  C   UNL     1      45.742   2.126   8.518  0.00  0.00    +0.000 A 
ATOM     21  C   UNL     1      46.381   2.693   7.437  0.00  0.00    +0.000 A 
ATOM     22  C   UNL     1      46.558   4.054   7.513  0.00  0.00    +0.000 A 
ATOM     23  N   UNL     1      46.144   4.801   8.552  0.00  0.00    +0.000 NA
BRANCH  21  24
ATOM     24  C   UNL     1      46.856   1.927   6.258  0.00  0.00    +0.000 C 
ATOM     25  F   UNL     1      46.223   2.255   5.098  0.00  0.00    +0.000 F 
ATOM     26  F   UNL     1      48.184   2.107   6.021  0.00  0.00    +0.000 F 
ATOM     27  F   UNL     1      46.687   0.584   6.408  0.00  0.00    +0.000 F 
ENDBRANCH  21  24
ENDBRANCH   5  18
TORSDOF 4
ENDMDL
MODEL 6
REMARK VINA RESULT:    -5.866      5.612      9.123
REMARK INTER + INTRA:          -6.693
REMARK INTER:                  -6.891
REMARK INTRA:                   0.197
REMARK UNBOUND:                 0.544
REMARK  Name = 
REMARK  6 active torsions:
REMARK  status: ('A' for Active; 'I' for Inactive)
REMARK    1  A    between atoms: C_1  and  C_2
REMARK    2  A    between atoms: C_3  and  C_4
REMARK    3  A    between atoms: C_7  and  C_8
REMARK    4  A    between atoms: C_14  and  C_15
REMARK    5  A    between atoms: C_14  and  C_16
REMARK    6  A    between atoms: C_19  and  C_20
REMARK                            x       y       z     vdW  Elec       q    Type
REMARK                         _______ _______ _______ _____ _____    ______ ____
ROOT
ATOM      1  C   UNL     1      48.946   6.101  14.838  0.00  0.00    +0.000 C 
ATOM      2  C   UNL     1      47.866   5.663  15.823  0.00  0.00    +0.000 C 
ATOM      3  C   UNL     1      46.685   4.794  15.247  0.00  0.00    +0.000 C 
ATOM      4  C   UNL     1      47.455   3.558  15.772  0.00  0.00    +0.000 C 
ATOM      5  C   UNL     1      48.159   4.480  16.827  0.00  0.00    +0.000 C 
ATOM      6  C   UNL     1      47.352   4.626  18.131  0.00  0.00    +0.000 C 
ENDROOT
BRANCH   3   7
ATOM      7  C   UNL     1      46.295   4.901  13.721  0.00  0.00    +0.000 A 
ATOM      8  C   UNL     1      46.333   6.098  12.987  0.00  0.00    +0.000 A 
ATOM      9  C   UNL     1      45.955   6.135  11.645  0.00  0.00    +0.000 A 
ATOM     10  C   UNL     1      45.554   4.952  11.050  0.00  0.00    +0.000 A 
ATOM     11  N   UNL     1      45.524   3.753  11.694  0.00  0.00    +0.000 NA
ATOM     12  C   UNL     1      45.898   3.770  12.992  0.00  0.00    +0.000 A 
BRANCH  10  13
ATOM     13  C   UNL     1      45.102   4.950   9.625  0.00  0.00    +0.000 C 
ATOM     14  N   UNL     1      43.777   4.664   9.432  0.00  0.00    +0.000 N 
ATOM     15  O   UNL     1      45.856   5.189   8.687  0.00  0.00    +0.000 OA
ATOM     16  H   UNL     1      43.186   4.488  10.237  0.00  0.00    +0.000 HD
ATOM     17  H   UNL     1      43.394   4.669   8.500  0.00  0.00    +0.000 HD
ENDBRANCH  10  13
ENDBRANCH   3   7
BRANCH   5  18
ATOM     18  C   UNL     1      49.628   4.067  17.198  0.00  0.00    +0.000 A 
ATOM     19  N   UNL     1      50.420   4.942  17.847  0.00  0.00    +0.000 NA
ATOM     20  C   UNL     1      51.642   4.490  18.211  0.00  0.00    +0.000 A 
ATOM     21  C   UNL     1      52.093   3.212  17.964  0.00  0.00    +0.000 A 
ATOM     22  C   UNL     1      51.205   2.400  17.299  0.00  0.00    +0.000 A 
ATOM     23  N   UNL     1      49.981   2.797  16.912  0.00  0.00    +0.000 NA
BRANCH  21  24
ATOM     24  C   UNL     1      53.428   2.709  18.373  0.00  0.00    +0.000 C 
ATOM     25  F   UNL     1      53.896   3.263  19.525  0.00  0.00    +0.000 F 
ATOM     26  F   UNL     1      53.437   1.363  18.575  0.00  0.00    +0.000 F 
ATOM     27  F   UNL     1      54.383   2.946  17.431  0.00  0.00    +0.000 F 
ENDBRANCH  21  24
ENDBRANCH   5  18
TORSDOF 4
ENDMDL
MODEL 7
REMARK VINA RESULT:    -5.831      5.684      8.795
REMARK INTER + INTRA:          -6.651
REMARK INTER:                  -6.644
REMARK INTRA:                  -0.007
REMARK UNBOUND:                 0.544
REMARK  Name = 
REMARK  6 active torsions:
REMARK  status: ('A' for Active; 'I' for Inactive)
REMARK    1  A    between atoms: C_1  and  C_2
REMARK    2  A    between atoms: C_3  and  C_4
REMARK    3  A    between atoms: C_7  and  C_8
REMARK    4  A    between atoms: C_14  and  C_15
REMARK    5  A    between atoms: C_14  and  C_16
REMARK    6  A    between atoms: C_19  and  C_20
REMARK                            x       y       z     vdW  Elec       q    Type
REMARK                         _______ _______ _______ _____ _____    ______ ____
ROOT
ATOM      1  C   UNL     1      49.303   7.190  11.760  0.00  0.00    +0.000 C 
ATOM      2  C   UNL     1      48.543   8.027  12.784  0.00  0.00    +0.000 C 
ATOM      3  C   UNL     1      47.275   7.366  13.446  0.00  0.00    +0.000 C 
ATOM      4  C   UNL     1      48.192   7.009  14.640  0.00  0.00    +0.000 C 
ATOM      5  C   UNL     1      49.129   8.201  14.241  0.00  0.00    +0.000 C 
ATOM      6  C   UNL     1      48.701   9.540  14.871  0.00  0.00    +0.000 C 
ENDROOT
BRANCH   3   7
ATOM      7  C   UNL     1      46.483   6.233  12.682  0.00  0.00    +0.000 A 
ATOM      8  C   UNL     1      45.876   6.414  11.429  0.00  0.00    +0.000 A 
ATOM      9  C   UNL     1      45.170   5.381  10.812  0.00  0.00    +0.000 A 
ATOM     10  C   UNL     1      45.098   4.164  11.465  0.00  0.00    +0.000 A 
ATOM     11  N   UNL     1      45.690   3.911  12.664  0.00  0.00    +0.000 NA
ATOM     12  C   UNL     1      46.360   4.944  13.221  0.00  0.00    +0.000 A 
BRANCH  10  13
ATOM     13  C   UNL     1      44.319   3.039  10.861  0.00  0.00    +0.000 C 
ATOM     14  N   UNL     1      44.970   2.337   9.882  0.00  0.00    +0.000 N 
ATOM     15  O   UNL     1      43.180   2.754  11.214  0.00  0.00    +0.000 OA
ATOM     16  H   UNL     1      45.918   2.597   9.633  0.00  0.00    +0.000 HD
ATOM     17  H   UNL     1      44.518   1.549   9.447  0.00  0.00    +0.000 HD
ENDBRANCH  10  13
ENDBRANCH   3   7
BRANCH   5  18
ATOM     18  C   UNL     1      50.655   7.979  14.539  0.00  0.00    +0.000 A 
ATOM     19  N   UNL     1      51.574   8.698  13.868  0.00  0.00    +0.000 NA
ATOM     20  C   UNL     1      52.864   8.517  14.237  0.00  0.00    +0.000 A 
ATOM     21  C   UNL     1      53.262   7.666  15.244  0.00  0.00    +0.000 A 
ATOM     22  C   UNL     1      52.244   6.984  15.866  0.00  0.00    +0.000 A 
ATOM     23  N   UNL     1      50.947   7.122  15.539  0.00  0.00    +0.000 NA
BRANCH  21  24
ATOM     24  C   UNL     1      54.674   7.475  15.659  0.00  0.00    +0.000 C 
ATOM     25  F   UNL     1      55.088   6.179  15.621  0.00  0.00    +0.000 F 
ATOM     26  F   UNL     1      55.545   8.168  14.874  0.00  0.00    +0.000 F 
ATOM     27  F   UNL     1      54.905   7.903  16.931  0.00  0.00    +0.000 F 
ENDBRANCH  21  24
ENDBRANCH   5  18
TORSDOF 4
ENDMDL
MODEL 8
REMARK VINA RESULT:    -5.556      4.109      5.444
REMARK INTER + INTRA:          -6.311
REMARK INTER:                  -6.109
REMARK INTRA:                  -0.202
REMARK UNBOUND:                 0.544
REMARK  Name = 
REMARK  6 active torsions:
REMARK  status: ('A' for Active; 'I' for Inactive)
REMARK    1  A    between atoms: C_1  and  C_2
REMARK    2  A    between atoms: C_3  and  C_4
REMARK    3  A    between atoms: C_7  and  C_8
REMARK    4  A    between atoms: C_14  and  C_15
REMARK    5  A    between atoms: C_14  and  C_16
REMARK    6  A    between atoms: C_19  and  C_20
REMARK                            x       y       z     vdW  Elec       q    Type
REMARK                         _______ _______ _______ _____ _____    ______ ____
ROOT
ATOM      1  C   UNL     1      46.397   8.993  13.634  0.00  0.00    +0.000 C 
ATOM      2  C   UNL     1      47.810   8.615  13.199  0.00  0.00    +0.000 C 
ATOM      3  C   UNL     1      48.897   8.495  14.332  0.00  0.00    +0.000 C 
ATOM      4  C   UNL     1      48.639   6.969  14.298  0.00  0.00    +0.000 C 
ATOM      5  C   UNL     1      48.135   7.116  12.821  0.00  0.00    +0.000 C 
ATOM      6  C   UNL     1      49.273   7.024  11.785  0.00  0.00    +0.000 C 
ENDROOT
BRANCH   3   7
ATOM      7  C   UNL     1      48.730   9.301  15.679  0.00  0.00    +0.000 A 
ATOM      8  C   UNL     1      48.984  10.677  15.803  0.00  0.00    +0.000 A 
ATOM      9  C   UNL     1      48.839  11.331  17.025  0.00  0.00    +0.000 A 
ATOM     10  C   UNL     1      48.421  10.589  18.115  0.00  0.00    +0.000 A 
ATOM     11  N   UNL     1      48.126   9.261  18.057  0.00  0.00    +0.000 NA
ATOM     12  C   UNL     1      48.284   8.672  16.851  0.00  0.00    +0.000 A 
BRANCH  10  13
ATOM     13  C   UNL     1      48.289  11.239  19.455  0.00  0.00    +0.000 C 
ATOM     14  N   UNL     1      47.006  11.502  19.853  0.00  0.00    +0.000 N 
ATOM     15  O   UNL     1      49.255  11.516  20.158  0.00  0.00    +0.000 OA
ATOM     16  H   UNL     1      46.236  11.241  19.247  0.00  0.00    +0.000 HD
ATOM     17  H   UNL     1      46.837  11.917  20.756  0.00  0.00    +0.000 HD
ENDBRANCH  10  13
ENDBRANCH   3   7
BRANCH   5  18
ATOM     18  C   UNL     1      47.001   6.115  12.399  0.00  0.00    +0.000 A 
ATOM     19  N   UNL     1      46.568   5.193  13.280  0.00  0.00    +0.000 NA
ATOM     20  C   UNL     1      45.531   4.421  12.880  0.00  0.00    +0.000 A 
ATOM     21  C   UNL     1      44.913   4.541  11.655  0.00  0.00    +0.000 A 
ATOM     22  C   UNL     1      45.430   5.514  10.834  0.00  0.00    +0.000 A 
ATOM     23  N   UNL     1      46.460   6.307  11.179  0.00  0.00    +0.000 NA
BRANCH  21  24
ATOM     24  C   UNL     1      43.768   3.704  11.218  0.00  0.00    +0.000 C 
ATOM     25  F   UNL     1      43.625   2.552  11.929  0.00  0.00    +0.000 F 
ATOM     26  F   UNL     1      42.577   4.357  11.322  0.00  0.00    +0.000 F 
ATOM     27  F   UNL     1      43.867   3.326   9.913  0.00  0.00    +0.000 F 
ENDBRANCH  21  24
ENDBRANCH   5  18
TORSDOF 4
ENDMDL
MODEL 9
REMARK VINA RESULT:    -5.501      4.692      5.907
REMARK INTER + INTRA:          -6.243
REMARK INTER:                  -6.153
REMARK INTRA:                  -0.090
REMARK UNBOUND:                 0.544
REMARK  Name = 
REMARK  6 active torsions:
REMARK  status: ('A' for Active; 'I' for Inactive)
REMARK    1  A    between atoms: C_1  and  C_2
REMARK    2  A    between atoms: C_3  and  C_4
REMARK    3  A    between atoms: C_7  and  C_8
REMARK    4  A    between atoms: C_14  and  C_15
REMARK    5  A    between atoms: C_14  and  C_16
REMARK    6  A    between atoms: C_19  and  C_20
REMARK                            x       y       z     vdW  Elec       q    Type
REMARK                         _______ _______ _______ _____ _____    ______ ____
ROOT
ATOM      1  C   UNL     1      48.922   6.657  13.956  0.00  0.00    +0.000 C 
ATOM      2  C   UNL     1      48.325   7.980  13.485  0.00  0.00    +0.000 C 
ATOM      3  C   UNL     1      49.157   8.803  12.431  0.00  0.00    +0.000 C 
ATOM      4  C   UNL     1      48.242   8.177  11.351  0.00  0.00    +0.000 C 
ATOM      5  C   UNL     1      47.138   7.973  12.444  0.00  0.00    +0.000 C 
ATOM      6  C   UNL     1      46.224   9.203  12.614  0.00  0.00    +0.000 C 
ENDROOT
BRANCH   3   7
ATOM      7  C   UNL     1      50.724   8.628  12.348  0.00  0.00    +0.000 A 
ATOM      8  C   UNL     1      51.393   8.108  11.228  0.00  0.00    +0.000 A 
ATOM      9  C   UNL     1      52.780   7.957  11.221  0.00  0.00    +0.000 A 
ATOM     10  C   UNL     1      53.482   8.348  12.347  0.00  0.00    +0.000 A 
ATOM     11  N   UNL     1      52.900   8.889  13.452  0.00  0.00    +0.000 NA
ATOM     12  C   UNL     1      51.555   9.013  13.410  0.00  0.00    +0.000 A 
BRANCH  10  13
ATOM     13  C   UNL     1      54.965   8.168  12.401  0.00  0.00    +0.000 C 
ATOM     14  N   UNL     1      55.392   6.879  12.573  0.00  0.00    +0.000 N 
ATOM     15  O   UNL     1      55.753   9.102  12.295  0.00  0.00    +0.000 OA
ATOM     16  H   UNL     1      54.706   6.135  12.639  0.00  0.00    +0.000 HD
ATOM     17  H   UNL     1      56.378   6.676  12.594  0.00  0.00    +0.000 HD
ENDBRANCH  10  13
ENDBRANCH   3   7
BRANCH   5  18
ATOM     18  C   UNL     1      46.229   6.707  12.248  0.00  0.00    +0.000 A 
ATOM     19  N   UNL     1      45.440   6.293  13.256  0.00  0.00    +0.000 NA
ATOM     20  C   UNL     1      44.621   5.249  12.988  0.00  0.00    +0.000 A 
ATOM     21  C   UNL     1      44.556   4.619  11.765  0.00  0.00    +0.000 A 
ATOM     22  C   UNL     1      45.401   5.122  10.805  0.00  0.00    +0.000 A 
ATOM     23  N   UNL     1      46.237   6.155  11.017  0.00  0.00    +0.000 NA
BRANCH  21  24
ATOM     24  C   UNL     1      43.652   3.481  11.464  0.00  0.00    +0.000 C 
ATOM     25  F   UNL     1      43.937   2.846  10.295  0.00  0.00    +0.000 F 
ATOM     26  F   UNL     1      43.686   2.521  12.428  0.00  0.00    +0.000 F 
ATOM     27  F   UNL     1      42.348   3.864  11.372  0.00  0.00    +0.000 F 
ENDBRANCH  21  24
ENDBRANCH   5  18
TORSDOF 4
ENDMDL
