MODEL 1
REMARK VINA RESULT:    -7.685      0.000      0.000
REMARK INTER + INTRA:         -10.998
REMARK INTER:                 -10.157
REMARK INTRA:                  -0.841
REMARK UNBOUND:                -0.841
REMARK  Name = 
REMARK  6 active torsions:
REMARK  status: ('A' for Active; 'I' for Inactive)
REMARK    1  A    between atoms: N_1  and  C_2
REMARK    2  A    between atoms: C_2  and  C_3
REMARK    3  A    between atoms: C_6  and  O_7
REMARK    4  A    between atoms: O_7  and  C_8
REMARK    5  A    between atoms: C_8  and  C_9
REMARK    6  A    between atoms: C_13  and  C_14
REMARK                            x       y       z     vdW  Elec       q    Type
REMARK                         _______ _______ _______ _____ _____    ______ ____
ROOT
ATOM      1  O   UNL     1      43.766   3.438   9.688  0.00  0.00    +0.000 OA
ENDROOT
BRANCH   1   5
ATOM      2  C   UNL     1      47.025   2.367   7.298  0.00  0.00    +0.000 A 
ATOM      3  C   UNL     1      46.322   1.427   8.065  0.00  0.00    +0.000 A 
ATOM      4  C   UNL     1      45.220   1.815   8.833  0.00  0.00    +0.000 A 
ATOM      5  C   UNL     1      44.816   3.149   8.855  0.00  0.00    +0.000 A 
ATOM      6  C   UNL     1      45.483   4.081   8.060  0.00  0.00    +0.000 A 
ATOM      7  C   UNL     1      46.589   3.697   7.297  0.00  0.00    +0.000 A 
BRANCH   2   8
ATOM      8  C   UNL     1      48.234   1.964   6.495  0.00  0.00    +0.000 C 
BRANCH   8   9
ATOM      9  N   UNL     1      48.227   2.585   5.176  0.00  0.00    +0.000 NA
ATOM     10  H   UNL     1      47.561   3.354   5.173  0.00  0.00    +0.000 HD
ATOM     11  H   UNL     1      47.887   1.904   4.498  0.00  0.00    +0.000 HD
ENDBRANCH   8   9
ENDBRANCH   2   8
ENDBRANCH   1   5
BRANCH   1  12
ATOM     12  C   UNL     1      43.955   3.030  11.045  0.00  0.00    +0.000 C 
BRANCH  12  13
ATOM     13  C   UNL     1      44.870   3.958  11.811  0.00  0.00    +0.000 A 
ATOM     14  C   UNL     1      45.767   3.393  12.731  0.00  0.00    +0.000 A 
ATOM     15  C   UNL     1      46.626   4.198  13.476  0.00  0.00    +0.000 A 
ATOM     16  C   UNL     1      46.606   5.580  13.303  0.00  0.00    +0.000 A 
ATOM     17  C   UNL     1      45.730   6.171  12.381  0.00  0.00    +0.000 A 
ATOM     18  C   UNL     1      44.862   5.349  11.640  0.00  0.00    +0.000 A 
BRANCH  17  19
ATOM     19  C   UNL     1      45.708   7.664  12.172  0.00  0.00    +0.000 C 
ATOM     20  F   UNL     1      45.327   8.364  13.278  0.00  0.00    +0.000 F 
ATOM     21  F   UNL     1      46.927   8.161  11.822  0.00  0.00    +0.000 F 
ATOM     22  F   UNL     1      44.851   8.042  11.182  0.00  0.00    +0.000 F 
ENDBRANCH  17  19
ENDBRANCH  12  13
ENDBRANCH   1  12
TORSDOF 6
ENDMDL
MODEL 2
REMARK VINA RESULT:    -7.631      0.802      1.425
REMARK INTER + INTRA:         -10.926
REMARK INTER:                 -10.036
REMARK INTRA:                  -0.889
REMARK UNBOUND:                -0.841
REMARK  Name = 
REMARK  6 active torsions:
REMARK  status: ('A' for Active; 'I' for Inactive)
REMARK    1  A    between atoms: N_1  and  C_2
REMARK    2  A    between atoms: C_2  and  C_3
REMARK    3  A    between atoms: C_6  and  O_7
REMARK    4  A    between atoms: O_7  and  C_8
REMARK    5  A    between atoms: C_8  and  C_9
REMARK    6  A    between atoms: C_13  and  C_14
REMARK                            x       y       z     vdW  Elec       q    Type
REMARK                         _______ _______ _______ _____ _____    ______ ____
ROOT
ATOM      1  O   UNL     1      43.712   4.209   9.948  0.00  0.00    +0.000 OA
ENDROOT
BRANCH   1   5
ATOM      2  C   UNL     1      46.592   2.342   7.560  0.00  0.00    +0.000 A 
ATOM      3  C   UNL     1      46.408   3.732   7.556  0.00  0.00    +0.000 A 
ATOM      4  C   UNL     1      45.454   4.326   8.387  0.00  0.00    +0.000 A 
ATOM      5  C   UNL     1      44.662   3.538   9.220  0.00  0.00    +0.000 A 
ATOM      6  C   UNL     1      44.870   2.158   9.261  0.00  0.00    +0.000 A 
ATOM      7  C   UNL     1      45.818   1.562   8.427  0.00  0.00    +0.000 A 
BRANCH   2   8
ATOM      8  C   UNL     1      47.594   1.690   6.643  0.00  0.00    +0.000 C 
BRANCH   8   9
ATOM      9  N   UNL     1      48.680   2.602   6.307  0.00  0.00    +0.000 NA
ATOM     10  H   UNL     1      49.204   2.820   7.151  0.00  0.00    +0.000 HD
ATOM     11  H   UNL     1      48.279   3.479   5.979  0.00  0.00    +0.000 HD
ENDBRANCH   8   9
ENDBRANCH   2   8
ENDBRANCH   1   5
BRANCH   1  12
ATOM     12  C   UNL     1      43.663   3.853  11.330  0.00  0.00    +0.000 C 
BRANCH  12  13
ATOM     13  C   UNL     1      44.812   4.431  12.125  0.00  0.00    +0.000 A 
ATOM     14  C   UNL     1      45.641   3.545  12.830  0.00  0.00    +0.000 A 
ATOM     15  C   UNL     1      46.709   4.019  13.589  0.00  0.00    +0.000 A 
ATOM     16  C   UNL     1      46.967   5.387  13.646  0.00  0.00    +0.000 A 
ATOM     17  C   UNL     1      46.163   6.294  12.939  0.00  0.00    +0.000 A 
ATOM     18  C   UNL     1      45.084   5.805  12.182  0.00  0.00    +0.000 A 
BRANCH  17  19
ATOM     19  C   UNL     1      46.440   7.776  12.978  0.00  0.00    +0.000 C 
ATOM     20  F   UNL     1      45.334   8.530  13.237  0.00  0.00    +0.000 F 
ATOM     21  F   UNL     1      47.348   8.113  13.935  0.00  0.00    +0.000 F 
ATOM     22  F   UNL     1      46.942   8.247  11.802  0.00  0.00    +0.000 F 
ENDBRANCH  17  19
ENDBRANCH  12  13
ENDBRANCH   1  12
TORSDOF 6
ENDMDL
MODEL 3
REMARK VINA RESULT:    -7.065      4.271      6.589
REMARK INTER + INTRA:         -10.177
REMARK INTER:                  -9.672
REMARK INTRA:                  -0.506
REMARK UNBOUND:                -0.841
REMARK  Name = 
REMARK  6 active torsions:
REMARK  status: ('A' for Active; 'I' for Inactive)
REMARK    1  A    between atoms: N_1  and  C_2
REMARK    2  A    between atoms: C_2  and  C_3
REMARK    3  A    between atoms: C_6  and  O_7
REMARK    4  A    between atoms: O_7  and  C_8
REMARK    5  A    between atoms: C_8  and  C_9
REMARK    6  A    between atoms: C_13  and  C_14
REMARK                            x       y       z     vdW  Elec       q    Type
REMARK                         _______ _______ _______ _____ _____    ______ ____
ROOT
ATOM      1  O   UNL     1      44.442   2.900  12.184  0.00  0.00    +0.000 OA
ENDROOT
BRANCH   1   5
ATOM      2  C   UNL     1      45.803   6.783  12.927  0.00  0.00    +0.000 A 
ATOM      3  C   UNL     1      44.450   6.498  12.695  0.00  0.00    +0.000 A 
ATOM      4  C   UNL     1      44.025   5.185  12.476  0.00  0.00    +0.000 A 
ATOM      5  C   UNL     1      44.949   4.141  12.471  0.00  0.00    +0.000 A 
ATOM      6  C   UNL     1      46.291   4.411  12.745  0.00  0.00    +0.000 A 
ATOM      7  C   UNL     1      46.718   5.724  12.957  0.00  0.00    +0.000 A 
BRANCH   2   8
ATOM      8  C   UNL     1      46.275   8.199  13.129  0.00  0.00    +0.000 C 
BRANCH   8   9
ATOM      9  N   UNL     1      45.186   9.152  12.952  0.00  0.00    +0.000 NA
ATOM     10  H   UNL     1      44.298   8.662  13.033  0.00  0.00    +0.000 HD
ATOM     11  H   UNL     1      45.229   9.522  12.004  0.00  0.00    +0.000 HD
ENDBRANCH   8   9
ENDBRANCH   2   8
ENDBRANCH   1   5
BRANCH   1  12
ATOM     12  C   UNL     1      43.780   2.807  10.921  0.00  0.00    +0.000 C 
BRANCH  12  13
ATOM     13  C   UNL     1      44.709   3.056   9.755  0.00  0.00    +0.000 A 
ATOM     14  C   UNL     1      44.877   4.377   9.312  0.00  0.00    +0.000 A 
ATOM     15  C   UNL     1      45.710   4.667   8.234  0.00  0.00    +0.000 A 
ATOM     16  C   UNL     1      46.394   3.639   7.589  0.00  0.00    +0.000 A 
ATOM     17  C   UNL     1      46.256   2.311   8.019  0.00  0.00    +0.000 A 
ATOM     18  C   UNL     1      45.406   2.029   9.103  0.00  0.00    +0.000 A 
BRANCH  17  19
ATOM     19  C   UNL     1      47.002   1.190   7.341  0.00  0.00    +0.000 C 
ATOM     20  F   UNL     1      46.805  -0.026   7.924  0.00  0.00    +0.000 F 
ATOM     21  F   UNL     1      46.640   1.036   6.036  0.00  0.00    +0.000 F 
ATOM     22  F   UNL     1      48.350   1.385   7.335  0.00  0.00    +0.000 F 
ENDBRANCH  17  19
ENDBRANCH  12  13
ENDBRANCH   1  12
TORSDOF 6
ENDMDL
MODEL 4
REMARK VINA RESULT:    -7.042      1.969      2.810
REMARK INTER + INTRA:         -10.148
REMARK INTER:                  -9.592
REMARK INTRA:                  -0.556
REMARK UNBOUND:                -0.841
REMARK  Name = 
REMARK  6 active torsions:
REMARK  status: ('A' for Active; 'I' for Inactive)
REMARK    1  A    between atoms: N_1  and  C_2
REMARK    2  A    between atoms: C_2  and  C_3
REMARK    3  A    between atoms: C_6  and  O_7
REMARK    4  A    between atoms: O_7  and  C_8
REMARK    5  A    between atoms: C_8  and  C_9
REMARK    6  A    between atoms: C_13  and  C_14
REMARK                            x       y       z     vdW  Elec       q    Type
REMARK                         _______ _______ _______ _____ _____    ______ ____
ROOT
ATOM      1  O   UNL     1      44.312   3.228  10.253  0.00  0.00    +0.000 OA
ENDROOT
BRANCH   1   5
ATOM      2  C   UNL     1      46.625   2.743   6.803  0.00  0.00    +0.000 A 
ATOM      3  C   UNL     1      46.208   4.005   7.251  0.00  0.00    +0.000 A 
ATOM      4  C   UNL     1      45.458   4.133   8.423  0.00  0.00    +0.000 A 
ATOM      5  C   UNL     1      45.102   3.001   9.155  0.00  0.00    +0.000 A 
ATOM      6  C   UNL     1      45.550   1.747   8.739  0.00  0.00    +0.000 A 
ATOM      7  C   UNL     1      46.294   1.616   7.564  0.00  0.00    +0.000 A 
BRANCH   2   8
ATOM      8  C   UNL     1      47.404   2.593   5.523  0.00  0.00    +0.000 C 
BRANCH   8   9
ATOM      9  N   UNL     1      48.635   1.843   5.735  0.00  0.00    +0.000 NA
ATOM     10  H   UNL     1      48.557   0.937   5.278  0.00  0.00    +0.000 HD
ATOM     11  H   UNL     1      48.736   1.658   6.731  0.00  0.00    +0.000 HD
ENDBRANCH   8   9
ENDBRANCH   2   8
ENDBRANCH   1   5
BRANCH   1  12
ATOM     12  C   UNL     1      43.863   4.577  10.393  0.00  0.00    +0.000 C 
BRANCH  12  13
ATOM     13  C   UNL     1      44.673   5.360  11.401  0.00  0.00    +0.000 A 
ATOM     14  C   UNL     1      44.612   6.762  11.355  0.00  0.00    +0.000 A 
ATOM     15  C   UNL     1      45.345   7.537  12.250  0.00  0.00    +0.000 A 
ATOM     16  C   UNL     1      46.144   6.921  13.211  0.00  0.00    +0.000 A 
ATOM     17  C   UNL     1      46.213   5.522  13.289  0.00  0.00    +0.000 A 
ATOM     18  C   UNL     1      45.474   4.749  12.376  0.00  0.00    +0.000 A 
BRANCH  17  19
ATOM     19  C   UNL     1      47.060   4.840  14.333  0.00  0.00    +0.000 C 
ATOM     20  F   UNL     1      47.644   3.688  13.895  0.00  0.00    +0.000 F 
ATOM     21  F   UNL     1      48.082   5.627  14.772  0.00  0.00    +0.000 F 
ATOM     22  F   UNL     1      46.349   4.496  15.443  0.00  0.00    +0.000 F 
ENDBRANCH  17  19
ENDBRANCH  12  13
ENDBRANCH   1  12
TORSDOF 6
ENDMDL
MODEL 5
REMARK VINA RESULT:    -6.744      3.705      6.003
REMARK INTER + INTRA:          -9.754
REMARK INTER:                  -8.810
REMARK INTRA:                  -0.944
REMARK UNBOUND:                -0.841
REMARK  Name = 
REMARK  6 active torsions:
REMARK  status: ('A' for Active; 'I' for Inactive)
REMARK    1  A    between atoms: N_1  and  C_2
REMARK    2  A    between atoms: C_2  and  C_3
REMARK    3  A    between atoms: C_6  and  O_7
REMARK    4  A    between atoms: O_7  and  C_8
REMARK    5  A    between atoms: C_8  and  C_9
REMARK    6  A    between atoms: C_13  and  C_14
REMARK                            x       y       z     vdW  Elec       q    Type
REMARK                         _______ _______ _______ _____ _____    ______ ____
ROOT
ATOM      1  O   UNL     1      43.846   5.418  12.077  0.00  0.00    +0.000 OA
ENDROOT
BRANCH   1   5
ATOM      2  C   UNL     1      47.762   6.697  12.797  0.00  0.00    +0.000 A 
ATOM      3  C   UNL     1      46.869   7.436  12.008  0.00  0.00    +0.000 A 
ATOM      4  C   UNL     1      45.558   6.993  11.809  0.00  0.00    +0.000 A 
ATOM      5  C   UNL     1      45.128   5.798  12.384  0.00  0.00    +0.000 A 
ATOM      6  C   UNL     1      45.997   5.079  13.206  0.00  0.00    +0.000 A 
ATOM      7  C   UNL     1      47.309   5.518  13.400  0.00  0.00    +0.000 A 
BRANCH   2   8
ATOM      8  C   UNL     1      49.185   7.150  12.988  0.00  0.00    +0.000 C 
BRANCH   8   9
ATOM      9  N   UNL     1      49.681   6.800  14.313  0.00  0.00    +0.000 NA
ATOM     10  H   UNL     1      49.828   5.794  14.359  0.00  0.00    +0.000 HD
ATOM     11  H   UNL     1      48.961   7.020  14.998  0.00  0.00    +0.000 HD
ENDBRANCH   8   9
ENDBRANCH   2   8
ENDBRANCH   1   5
BRANCH   1  12
ATOM     12  C   UNL     1      43.559   5.376  10.678  0.00  0.00    +0.000 C 
BRANCH  12  13
ATOM     13  C   UNL     1      44.221   4.209   9.980  0.00  0.00    +0.000 A 
ATOM     14  C   UNL     1      43.861   2.911  10.374  0.00  0.00    +0.000 A 
ATOM     15  C   UNL     1      44.445   1.796   9.776  0.00  0.00    +0.000 A 
ATOM     16  C   UNL     1      45.392   1.966   8.768  0.00  0.00    +0.000 A 
ATOM     17  C   UNL     1      45.760   3.252   8.345  0.00  0.00    +0.000 A 
ATOM     18  C   UNL     1      45.169   4.369   8.961  0.00  0.00    +0.000 A 
BRANCH  17  19
ATOM     19  C   UNL     1      46.773   3.451   7.245  0.00  0.00    +0.000 C 
ATOM     20  F   UNL     1      47.375   4.674   7.274  0.00  0.00    +0.000 F 
ATOM     21  F   UNL     1      47.784   2.540   7.295  0.00  0.00    +0.000 F 
ATOM     22  F   UNL     1      46.226   3.336   6.003  0.00  0.00    +0.000 F 
ENDBRANCH  17  19
ENDBRANCH  12  13
ENDBRANCH   1  12
TORSDOF 6
ENDMDL
MODEL 6
REMARK VINA RESULT:    -6.186      3.788      5.998
REMARK INTER + INTRA:          -9.016
REMARK INTER:                  -8.155
REMARK INTRA:                  -0.862
REMARK UNBOUND:                -0.841
REMARK  Name = 
REMARK  6 active torsions:
REMARK  status: ('A' for Active; 'I' for Inactive)
REMARK    1  A    between atoms: N_1  and  C_2
REMARK    2  A    between atoms: C_2  and  C_3
REMARK    3  A    between atoms: C_6  and  O_7
REMARK    4  A    between atoms: O_7  and  C_8
REMARK    5  A    between atoms: C_8  and  C_9
REMARK    6  A    between atoms: C_13  and  C_14
REMARK                            x       y       z     vdW  Elec       q    Type
REMARK                         _______ _______ _______ _____ _____    ______ ____
ROOT
ATOM      1  O   UNL     1      44.557   6.395  12.817  0.00  0.00    +0.000 OA
ENDROOT
BRANCH   1   5
ATOM      2  C   UNL     1      48.599   7.439  12.579  0.00  0.00    +0.000 A 
ATOM      3  C   UNL     1      48.177   6.194  13.068  0.00  0.00    +0.000 A 
ATOM      4  C   UNL     1      46.819   5.867  13.109  0.00  0.00    +0.000 A 
ATOM      5  C   UNL     1      45.864   6.786  12.676  0.00  0.00    +0.000 A 
ATOM      6  C   UNL     1      46.278   8.010  12.147  0.00  0.00    +0.000 A 
ATOM      7  C   UNL     1      47.635   8.340  12.112  0.00  0.00    +0.000 A 
BRANCH   2   8
ATOM      8  C   UNL     1      50.058   7.813  12.563  0.00  0.00    +0.000 C 
BRANCH   8   9
ATOM      9  N   UNL     1      50.653   7.688  13.888  0.00  0.00    +0.000 NA
ATOM     10  H   UNL     1      50.635   8.595  14.348  0.00  0.00    +0.000 HD
ATOM     11  H   UNL     1      51.634   7.435  13.781  0.00  0.00    +0.000 HD
ENDBRANCH   8   9
ENDBRANCH   2   8
ENDBRANCH   1   5
BRANCH   1  12
ATOM     12  C   UNL     1      43.843   6.258  11.587  0.00  0.00    +0.000 C 
BRANCH  12  13
ATOM     13  C   UNL     1      44.100   4.933  10.906  0.00  0.00    +0.000 A 
ATOM     14  C   UNL     1      43.511   3.782  11.452  0.00  0.00    +0.000 A 
ATOM     15  C   UNL     1      43.722   2.532  10.875  0.00  0.00    +0.000 A 
ATOM     16  C   UNL     1      44.518   2.417   9.738  0.00  0.00    +0.000 A 
ATOM     17  C   UNL     1      45.108   3.552   9.163  0.00  0.00    +0.000 A 
ATOM     18  C   UNL     1      44.894   4.809   9.758  0.00  0.00    +0.000 A 
BRANCH  17  19
ATOM     19  C   UNL     1      45.960   3.446   7.923  0.00  0.00    +0.000 C 
ATOM     20  F   UNL     1      45.236   3.358   6.771  0.00  0.00    +0.000 F 
ATOM     21  F   UNL     1      46.782   4.520   7.761  0.00  0.00    +0.000 F 
ATOM     22  F   UNL     1      46.771   2.351   7.936  0.00  0.00    +0.000 F 
ENDBRANCH  17  19
ENDBRANCH  12  13
ENDBRANCH   1  12
TORSDOF 6
ENDMDL
MODEL 7
REMARK VINA RESULT:    -5.811      5.129      7.853
REMARK INTER + INTRA:          -8.521
REMARK INTER:                  -7.991
REMARK INTRA:                  -0.530
REMARK UNBOUND:                -0.841
REMARK  Name = 
REMARK  6 active torsions:
REMARK  status: ('A' for Active; 'I' for Inactive)
REMARK    1  A    between atoms: N_1  and  C_2
REMARK    2  A    between atoms: C_2  and  C_3
REMARK    3  A    between atoms: C_6  and  O_7
REMARK    4  A    between atoms: O_7  and  C_8
REMARK    5  A    between atoms: C_8  and  C_9
REMARK    6  A    between atoms: C_13  and  C_14
REMARK                            x       y       z     vdW  Elec       q    Type
REMARK                         _______ _______ _______ _____ _____    ______ ____
ROOT
ATOM      1  O   UNL     1      47.101   3.620  14.446  0.00  0.00    +0.000 OA
ENDROOT
BRANCH   1   5
ATOM      2  C   UNL     1      48.489   4.434  18.306  0.00  0.00    +0.000 A 
ATOM      3  C   UNL     1      48.305   5.444  17.351  0.00  0.00    +0.000 A 
ATOM      4  C   UNL     1      47.813   5.140  16.078  0.00  0.00    +0.000 A 
ATOM      5  C   UNL     1      47.515   3.822  15.738  0.00  0.00    +0.000 A 
ATOM      6  C   UNL     1      47.654   2.817  16.698  0.00  0.00    +0.000 A 
ATOM      7  C   UNL     1      48.150   3.118  17.968  0.00  0.00    +0.000 A 
BRANCH   2   8
ATOM      8  C   UNL     1      49.049   4.747  19.668  0.00  0.00    +0.000 C 
BRANCH   8   9
ATOM      9  N   UNL     1      48.490   3.869  20.688  0.00  0.00    +0.000 NA
ATOM     10  H   UNL     1      48.985   4.019  21.565  0.00  0.00    +0.000 HD
ATOM     11  H   UNL     1      48.665   2.903  20.418  0.00  0.00    +0.000 HD
ENDBRANCH   8   9
ENDBRANCH   2   8
ENDBRANCH   1   5
BRANCH   1  12
ATOM     12  C   UNL     1      46.796   4.816  13.727  0.00  0.00    +0.000 C 
BRANCH  12  13
ATOM     13  C   UNL     1      45.600   4.662  12.815  0.00  0.00    +0.000 A 
ATOM     14  C   UNL     1      44.358   5.134  13.266  0.00  0.00    +0.000 A 
ATOM     15  C   UNL     1      43.218   5.009  12.476  0.00  0.00    +0.000 A 
ATOM     16  C   UNL     1      43.308   4.417  11.218  0.00  0.00    +0.000 A 
ATOM     17  C   UNL     1      44.539   3.949  10.736  0.00  0.00    +0.000 A 
ATOM     18  C   UNL     1      45.682   4.073  11.546  0.00  0.00    +0.000 A 
BRANCH  17  19
ATOM     19  C   UNL     1      44.654   3.319   9.370  0.00  0.00    +0.000 C 
ATOM     20  F   UNL     1      44.044   2.104   9.277  0.00  0.00    +0.000 F 
ATOM     21  F   UNL     1      44.097   4.088   8.393  0.00  0.00    +0.000 F 
ATOM     22  F   UNL     1      45.948   3.115   8.995  0.00  0.00    +0.000 F 
ENDBRANCH  17  19
ENDBRANCH  12  13
ENDBRANCH   1  12
TORSDOF 6
ENDMDL
MODEL 8
REMARK VINA RESULT:    -5.752      4.960      7.536
REMARK INTER + INTRA:          -8.442
REMARK INTER:                  -7.840
REMARK INTRA:                  -0.602
REMARK UNBOUND:                -0.841
REMARK  Name = 
REMARK  6 active torsions:
REMARK  status: ('A' for Active; 'I' for Inactive)
REMARK    1  A    between atoms: N_1  and  C_2
REMARK    2  A    between atoms: C_2  and  C_3
REMARK    3  A    between atoms: C_6  and  O_7
REMARK    4  A    between atoms: O_7  and  C_8
REMARK    5  A    between atoms: C_8  and  C_9
REMARK    6  A    between atoms: C_13  and  C_14
REMARK                            x       y       z     vdW  Elec       q    Type
REMARK                         _______ _______ _______ _____ _____    ______ ____
ROOT
ATOM      1  O   UNL     1      46.731   3.728  15.443  0.00  0.00    +0.000 OA
ENDROOT
BRANCH   1   5
ATOM      2  C   UNL     1      50.037   4.237  17.952  0.00  0.00    +0.000 A 
ATOM      3  C   UNL     1      49.344   5.325  17.401  0.00  0.00    +0.000 A 
ATOM      4  C   UNL     1      48.226   5.119  16.588  0.00  0.00    +0.000 A 
ATOM      5  C   UNL     1      47.796   3.824  16.301  0.00  0.00    +0.000 A 
ATOM      6  C   UNL     1      48.454   2.739  16.882  0.00  0.00    +0.000 A 
ATOM      7  C   UNL     1      49.575   2.942  17.690  0.00  0.00    +0.000 A 
BRANCH   2   8
ATOM      8  C   UNL     1      51.262   4.448  18.802  0.00  0.00    +0.000 C 
BRANCH   8   9
ATOM      9  N   UNL     1      52.092   3.251  18.845  0.00  0.00    +0.000 NA
ATOM     10  H   UNL     1      51.498   2.439  18.995  0.00  0.00    +0.000 HD
ATOM     11  H   UNL     1      52.710   3.312  19.653  0.00  0.00    +0.000 HD
ENDBRANCH   8   9
ENDBRANCH   2   8
ENDBRANCH   1   5
BRANCH   1  12
ATOM     12  C   UNL     1      47.089   3.597  14.066  0.00  0.00    +0.000 C 
BRANCH  12  13
ATOM     13  C   UNL     1      46.428   4.636  13.189  0.00  0.00    +0.000 A 
ATOM     14  C   UNL     1      47.066   5.877  13.034  0.00  0.00    +0.000 A 
ATOM     15  C   UNL     1      46.499   6.877  12.248  0.00  0.00    +0.000 A 
ATOM     16  C   UNL     1      45.288   6.647  11.599  0.00  0.00    +0.000 A 
ATOM     17  C   UNL     1      44.635   5.412  11.724  0.00  0.00    +0.000 A 
ATOM     18  C   UNL     1      45.213   4.412  12.526  0.00  0.00    +0.000 A 
BRANCH  17  19
ATOM     19  C   UNL     1      43.332   5.143  11.014  0.00  0.00    +0.000 C 
ATOM     20  F   UNL     1      43.487   4.786   9.708  0.00  0.00    +0.000 F 
ATOM     21  F   UNL     1      42.623   4.133  11.591  0.00  0.00    +0.000 F 
ATOM     22  F   UNL     1      42.505   6.225  11.007  0.00  0.00    +0.000 F 
ENDBRANCH  17  19
ENDBRANCH  12  13
ENDBRANCH   1  12
TORSDOF 6
ENDMDL
MODEL 9
REMARK VINA RESULT:    -5.552      5.247      7.702
REMARK INTER + INTRA:          -8.178
REMARK INTER:                  -7.586
REMARK INTRA:                  -0.592
REMARK UNBOUND:                -0.841
REMARK  Name = 
REMARK  6 active torsions:
REMARK  status: ('A' for Active; 'I' for Inactive)
REMARK    1  A    between atoms: N_1  and  C_2
REMARK    2  A    between atoms: C_2  and  C_3
REMARK    3  A    between atoms: C_6  and  O_7
REMARK    4  A    between atoms: O_7  and  C_8
REMARK    5  A    between atoms: C_8  and  C_9
REMARK    6  A    between atoms: C_13  and  C_14
REMARK                            x       y       z     vdW  Elec       q    Type
REMARK                         _______ _______ _______ _____ _____    ______ ____
ROOT
ATOM      1  O   UNL     1      48.077   4.863  16.592  0.00  0.00    +0.000 OA
ENDROOT
BRANCH   1   5
ATOM      2  C   UNL     1      51.323   2.425  17.595  0.00  0.00    +0.000 A 
ATOM      3  C   UNL     1      51.355   3.817  17.765  0.00  0.00    +0.000 A 
ATOM      4  C   UNL     1      50.242   4.599  17.444  0.00  0.00    +0.000 A 
ATOM      5  C   UNL     1      49.089   4.003  16.936  0.00  0.00    +0.000 A 
ATOM      6  C   UNL     1      49.034   2.615  16.805  0.00  0.00    +0.000 A 
ATOM      7  C   UNL     1      50.148   1.832  17.119  0.00  0.00    +0.000 A 
BRANCH   2   8
ATOM      8  C   UNL     1      52.529   1.578  17.906  0.00  0.00    +0.000 C 
BRANCH   8   9
ATOM      9  N   UNL     1      52.149   0.204  18.210  0.00  0.00    +0.000 NA
ATOM     10  H   UNL     1      52.630  -0.095  19.055  0.00  0.00    +0.000 HD
ATOM     11  H   UNL     1      52.480  -0.399  17.459  0.00  0.00    +0.000 HD
ENDBRANCH   8   9
ENDBRANCH   2   8
ENDBRANCH   1   5
BRANCH   1  12
ATOM     12  C   UNL     1      47.105   4.311  15.702  0.00  0.00    +0.000 C 
BRANCH  12  13
ATOM     13  C   UNL     1      47.015   5.065  14.395  0.00  0.00    +0.000 A 
ATOM     14  C   UNL     1      47.914   6.120  14.175  0.00  0.00    +0.000 A 
ATOM     15  C   UNL     1      47.872   6.858  12.995  0.00  0.00    +0.000 A 
ATOM     16  C   UNL     1      46.933   6.545  12.014  0.00  0.00    +0.000 A 
ATOM     17  C   UNL     1      46.032   5.488  12.201  0.00  0.00    +0.000 A 
ATOM     18  C   UNL     1      46.079   4.753  13.399  0.00  0.00    +0.000 A 
BRANCH  17  19
ATOM     19  C   UNL     1      45.020   5.127  11.142  0.00  0.00    +0.000 C 
ATOM     20  F   UNL     1      44.319   3.992  11.422  0.00  0.00    +0.000 F 
ATOM     21  F   UNL     1      44.087   6.102  10.958  0.00  0.00    +0.000 F 
ATOM     22  F   UNL     1      45.590   4.919   9.922  0.00  0.00    +0.000 F 
ENDBRANCH  17  19
ENDBRANCH  12  13
ENDBRANCH   1  12
TORSDOF 6
ENDMDL
