MODEL 1
REMARK VINA RESULT:    -7.752      0.000      0.000
REMARK INTER + INTRA:         -11.258
REMARK INTER:                 -10.471
REMARK INTRA:                  -0.787
REMARK UNBOUND:                -0.787
REMARK  Name = 
REMARK  8 active torsions:
REMARK  status: ('A' for Active; 'I' for Inactive)
REMARK    1  A    between atoms: C_1  and  N_2
REMARK    2  A    between atoms: N_2  and  C_3
REMARK    3  A    between atoms: N_2  and  C_4
REMARK    4  A    between atoms: C_4  and  C_5
REMARK    5  A    between atoms: C_5  and  C_6
REMARK    6  A    between atoms: N_8  and  C_9
REMARK    7  A    between atoms: C_9  and  C_10
REMARK    8  A    between atoms: C_13  and  C_14
REMARK                            x       y       z     vdW  Elec       q    Type
REMARK                         _______ _______ _______ _____ _____    ______ ____
ROOT
ATOM      1  C   UNL     1      46.348   5.760  13.183  0.00  0.00    +0.000 A 
ATOM      2  C   UNL     1      45.737   4.779  12.431  0.00  0.00    +0.000 A 
ATOM      3  N   UNL     1      44.849   5.377  11.571  0.00  0.00    +0.000 N 
ATOM      4  C   UNL     1      44.896   6.750  11.729  0.00  0.00    +0.000 A 
ATOM      5  C   UNL     1      44.222   7.787  11.063  0.00  0.00    +0.000 A 
ATOM      6  C   UNL     1      44.494   9.106  11.447  0.00  0.00    +0.000 A 
ATOM      7  C   UNL     1      45.391   9.384  12.473  0.00  0.00    +0.000 A 
ATOM      8  C   UNL     1      46.050   8.347  13.136  0.00  0.00    +0.000 A 
ATOM      9  C   UNL     1      45.815   7.011  12.750  0.00  0.00    +0.000 A 
ENDROOT
BRANCH   1  10
ATOM     10  C   UNL     1      47.377   5.545  14.247  0.00  0.00    +0.000 C 
BRANCH  10  11
ATOM     11  C   UNL     1      47.093   4.270  15.058  0.00  0.00    +0.000 C 
BRANCH  11  13
ATOM     12  C   UNL     1      48.545   5.313  16.658  0.00  0.00    +0.000 C 
ATOM     13  N   UNL     1      48.036   4.028  16.169  0.00  0.00    +0.000 NA
ATOM     14  C   UNL     1      47.412   3.294  17.270  0.00  0.00    +0.000 C 
ENDBRANCH  11  13
ENDBRANCH  10  11
ENDBRANCH   1  10
BRANCH   3  15
ATOM     15  C   UNL     1      43.976   4.639  10.660  0.00  0.00    +0.000 C 
BRANCH  15  16
ATOM     16  C   UNL     1      44.767   3.928   9.587  0.00  0.00    +0.000 A 
ATOM     17  C   UNL     1      44.795   2.525   9.525  0.00  0.00    +0.000 A 
ATOM     18  C   UNL     1      45.638   1.870   8.623  0.00  0.00    +0.000 A 
ATOM     19  C   UNL     1      46.433   2.610   7.744  0.00  0.00    +0.000 A 
ATOM     20  C   UNL     1      46.350   4.007   7.744  0.00  0.00    +0.000 A 
ATOM     21  C   UNL     1      45.521   4.660   8.659  0.00  0.00    +0.000 A 
BRANCH  19  22
ATOM     22  C   UNL     1      47.345   1.941   6.867  0.00  0.00    +0.000 C 
ATOM     23  N   UNL     1      48.080   1.390   6.150  0.00  0.00    +0.000 NA
ENDBRANCH  19  22
ENDBRANCH  15  16
ENDBRANCH   3  15
TORSDOF 6
ENDMDL
MODEL 2
REMARK VINA RESULT:    -7.582      1.665      3.675
REMARK INTER + INTRA:         -11.028
REMARK INTER:                 -10.021
REMARK INTRA:                  -1.007
REMARK UNBOUND:                -0.787
REMARK  Name = 
REMARK  8 active torsions:
REMARK  status: ('A' for Active; 'I' for Inactive)
REMARK    1  A    between atoms: C_1  and  N_2
REMARK    2  A    between atoms: N_2  and  C_3
REMARK    3  A    between atoms: N_2  and  C_4
REMARK    4  A    between atoms: C_4  and  C_5
REMARK    5  A    between atoms: C_5  and  C_6
REMARK    6  A    between atoms: N_8  and  C_9
REMARK    7  A    between atoms: C_9  and  C_10
REMARK    8  A    between atoms: C_13  and  C_14
REMARK                            x       y       z     vdW  Elec       q    Type
REMARK                         _______ _______ _______ _____ _____    ______ ____
ROOT
ATOM      1  C   UNL     1      45.325   7.122  12.432  0.00  0.00    +0.000 A 
ATOM      2  C   UNL     1      44.421   6.702  11.478  0.00  0.00    +0.000 A 
ATOM      3  N   UNL     1      44.471   5.332  11.402  0.00  0.00    +0.000 N 
ATOM      4  C   UNL     1      45.379   4.844  12.323  0.00  0.00    +0.000 A 
ATOM      5  C   UNL     1      45.752   3.532  12.657  0.00  0.00    +0.000 A 
ATOM      6  C   UNL     1      46.711   3.352  13.662  0.00  0.00    +0.000 A 
ATOM      7  C   UNL     1      47.294   4.442  14.300  0.00  0.00    +0.000 A 
ATOM      8  C   UNL     1      46.925   5.743  13.955  0.00  0.00    +0.000 A 
ATOM      9  C   UNL     1      45.941   5.951  12.966  0.00  0.00    +0.000 A 
ENDROOT
BRANCH   1  10
ATOM     10  C   UNL     1      45.597   8.538  12.827  0.00  0.00    +0.000 C 
BRANCH  10  11
ATOM     11  C   UNL     1      46.727   9.152  11.985  0.00  0.00    +0.000 C 
BRANCH  11  13
ATOM     12  C   UNL     1      48.894   8.160  11.704  0.00  0.00    +0.000 C 
ATOM     13  N   UNL     1      48.075   9.012  12.573  0.00  0.00    +0.000 NA
ATOM     14  C   UNL     1      48.733  10.306  12.756  0.00  0.00    +0.000 C 
ENDBRANCH  11  13
ENDBRANCH  10  11
ENDBRANCH   1  10
BRANCH   3  15
ATOM     15  C   UNL     1      43.690   4.540  10.452  0.00  0.00    +0.000 C 
BRANCH  15  16
ATOM     16  C   UNL     1      44.577   3.850   9.443  0.00  0.00    +0.000 A 
ATOM     17  C   UNL     1      44.661   2.449   9.398  0.00  0.00    +0.000 A 
ATOM     18  C   UNL     1      45.587   1.818   8.562  0.00  0.00    +0.000 A 
ATOM     19  C   UNL     1      46.412   2.579   7.730  0.00  0.00    +0.000 A 
ATOM     20  C   UNL     1      46.277   3.972   7.709  0.00  0.00    +0.000 A 
ATOM     21  C   UNL     1      45.365   4.601   8.559  0.00  0.00    +0.000 A 
BRANCH  19  22
ATOM     22  C   UNL     1      47.405   1.938   6.923  0.00  0.00    +0.000 C 
ATOM     23  N   UNL     1      48.217   1.412   6.276  0.00  0.00    +0.000 NA
ENDBRANCH  19  22
ENDBRANCH  15  16
ENDBRANCH   3  15
TORSDOF 6
ENDMDL
MODEL 3
REMARK VINA RESULT:    -7.290      1.755      4.562
REMARK INTER + INTRA:         -10.635
REMARK INTER:                  -9.762
REMARK INTRA:                  -0.873
REMARK UNBOUND:                -0.787
REMARK  Name = 
REMARK  8 active torsions:
REMARK  status: ('A' for Active; 'I' for Inactive)
REMARK    1  A    between atoms: C_1  and  N_2
REMARK    2  A    between atoms: N_2  and  C_3
REMARK    3  A    between atoms: N_2  and  C_4
REMARK    4  A    between atoms: C_4  and  C_5
REMARK    5  A    between atoms: C_5  and  C_6
REMARK    6  A    between atoms: N_8  and  C_9
REMARK    7  A    between atoms: C_9  and  C_10
REMARK    8  A    between atoms: C_13  and  C_14
REMARK                            x       y       z     vdW  Elec       q    Type
REMARK                         _______ _______ _______ _____ _____    ______ ____
ROOT
ATOM      1  C   UNL     1      44.840   7.053  12.080  0.00  0.00    +0.000 A 
ATOM      2  C   UNL     1      43.995   6.380  11.221  0.00  0.00    +0.000 A 
ATOM      3  N   UNL     1      44.277   5.038  11.294  0.00  0.00    +0.000 N 
ATOM      4  C   UNL     1      45.279   4.819  12.221  0.00  0.00    +0.000 A 
ATOM      5  C   UNL     1      45.879   3.635  12.680  0.00  0.00    +0.000 A 
ATOM      6  C   UNL     1      46.882   3.736  13.653  0.00  0.00    +0.000 A 
ATOM      7  C   UNL     1      47.288   4.974  14.139  0.00  0.00    +0.000 A 
ATOM      8  C   UNL     1      46.692   6.147  13.671  0.00  0.00    +0.000 A 
ATOM      9  C   UNL     1      45.661   6.071  12.711  0.00  0.00    +0.000 A 
ENDROOT
BRANCH   1  10
ATOM     10  C   UNL     1      44.877   8.531  12.304  0.00  0.00    +0.000 C 
BRANCH  10  11
ATOM     11  C   UNL     1      44.882   9.304  10.975  0.00  0.00    +0.000 C 
BRANCH  11  13
ATOM     12  C   UNL     1      43.122  10.776  11.675  0.00  0.00    +0.000 C 
ATOM     13  N   UNL     1      43.579   9.888  10.601  0.00  0.00    +0.000 NA
ATOM     14  C   UNL     1      43.651  10.633   9.344  0.00  0.00    +0.000 C 
ENDBRANCH  11  13
ENDBRANCH  10  11
ENDBRANCH   1  10
BRANCH   3  15
ATOM     15  C   UNL     1      43.617   4.023  10.475  0.00  0.00    +0.000 C 
BRANCH  15  16
ATOM     16  C   UNL     1      44.548   3.468   9.422  0.00  0.00    +0.000 A 
ATOM     17  C   UNL     1      44.806   2.090   9.345  0.00  0.00    +0.000 A 
ATOM     18  C   UNL     1      45.773   1.596   8.465  0.00  0.00    +0.000 A 
ATOM     19  C   UNL     1      46.466   2.469   7.623  0.00  0.00    +0.000 A 
ATOM     20  C   UNL     1      46.156   3.834   7.636  0.00  0.00    +0.000 A 
ATOM     21  C   UNL     1      45.203   4.328   8.529  0.00  0.00    +0.000 A 
BRANCH  19  22
ATOM     22  C   UNL     1      47.503   1.973   6.770  0.00  0.00    +0.000 C 
ATOM     23  N   UNL     1      48.343   1.575   6.068  0.00  0.00    +0.000 NA
ENDBRANCH  19  22
ENDBRANCH  15  16
ENDBRANCH   3  15
TORSDOF 6
ENDMDL
MODEL 4
REMARK VINA RESULT:    -5.935      3.496      7.415
REMARK INTER + INTRA:          -8.804
REMARK INTER:                  -7.974
REMARK INTRA:                  -0.830
REMARK UNBOUND:                -0.787
REMARK  Name = 
REMARK  8 active torsions:
REMARK  status: ('A' for Active; 'I' for Inactive)
REMARK    1  A    between atoms: C_1  and  N_2
REMARK    2  A    between atoms: N_2  and  C_3
REMARK    3  A    between atoms: N_2  and  C_4
REMARK    4  A    between atoms: C_4  and  C_5
REMARK    5  A    between atoms: C_5  and  C_6
REMARK    6  A    between atoms: N_8  and  C_9
REMARK    7  A    between atoms: C_9  and  C_10
REMARK    8  A    between atoms: C_13  and  C_14
REMARK                            x       y       z     vdW  Elec       q    Type
REMARK                         _______ _______ _______ _____ _____    ______ ____
ROOT
ATOM      1  C   UNL     1      46.798   5.247  13.576  0.00  0.00    +0.000 A 
ATOM      2  C   UNL     1      46.741   4.745  14.860  0.00  0.00    +0.000 A 
ATOM      3  N   UNL     1      47.754   5.311  15.595  0.00  0.00    +0.000 N 
ATOM      4  C   UNL     1      48.457   6.207  14.812  0.00  0.00    +0.000 A 
ATOM      5  C   UNL     1      49.536   7.056  15.110  0.00  0.00    +0.000 A 
ATOM      6  C   UNL     1      50.036   7.874  14.089  0.00  0.00    +0.000 A 
ATOM      7  C   UNL     1      49.493   7.835  12.809  0.00  0.00    +0.000 A 
ATOM      8  C   UNL     1      48.427   6.982  12.519  0.00  0.00    +0.000 A 
ATOM      9  C   UNL     1      47.887   6.168  13.536  0.00  0.00    +0.000 A 
ENDROOT
BRANCH   1  10
ATOM     10  C   UNL     1      45.884   4.891  12.448  0.00  0.00    +0.000 C 
BRANCH  10  11
ATOM     11  C   UNL     1      45.423   3.426  12.535  0.00  0.00    +0.000 C 
BRANCH  11  13
ATOM     12  C   UNL     1      43.366   4.566  13.015  0.00  0.00    +0.000 C 
ATOM     13  N   UNL     1      43.976   3.254  12.780  0.00  0.00    +0.000 NA
ATOM     14  C   UNL     1      43.305   2.592  11.661  0.00  0.00    +0.000 C 
ENDBRANCH  11  13
ENDBRANCH  10  11
ENDBRANCH   1  10
BRANCH   3  15
ATOM     15  C   UNL     1      48.038   4.968  16.988  0.00  0.00    +0.000 C 
BRANCH  15  16
ATOM     16  C   UNL     1      49.198   4.007  17.097  0.00  0.00    +0.000 A 
ATOM     17  C   UNL     1      49.036   2.645  16.794  0.00  0.00    +0.000 A 
ATOM     18  C   UNL     1      50.070   1.735  17.031  0.00  0.00    +0.000 A 
ATOM     19  C   UNL     1      51.293   2.182  17.537  0.00  0.00    +0.000 A 
ATOM     20  C   UNL     1      51.491   3.549  17.765  0.00  0.00    +0.000 A 
ATOM     21  C   UNL     1      50.450   4.453  17.545  0.00  0.00    +0.000 A 
BRANCH  19  22
ATOM     22  C   UNL     1      52.329   1.243  17.843  0.00  0.00    +0.000 C 
ATOM     23  N   UNL     1      53.174   0.477  18.081  0.00  0.00    +0.000 NA
ENDBRANCH  19  22
ENDBRANCH  15  16
ENDBRANCH   3  15
TORSDOF 6
ENDMDL
MODEL 5
REMARK VINA RESULT:    -5.377      2.980      5.382
REMARK INTER + INTRA:          -8.051
REMARK INTER:                  -7.580
REMARK INTRA:                  -0.471
REMARK UNBOUND:                -0.787
REMARK  Name = 
REMARK  8 active torsions:
REMARK  status: ('A' for Active; 'I' for Inactive)
REMARK    1  A    between atoms: C_1  and  N_2
REMARK    2  A    between atoms: N_2  and  C_3
REMARK    3  A    between atoms: N_2  and  C_4
REMARK    4  A    between atoms: C_4  and  C_5
REMARK    5  A    between atoms: C_5  and  C_6
REMARK    6  A    between atoms: N_8  and  C_9
REMARK    7  A    between atoms: C_9  and  C_10
REMARK    8  A    between atoms: C_13  and  C_14
REMARK                            x       y       z     vdW  Elec       q    Type
REMARK                         _______ _______ _______ _____ _____    ______ ____
ROOT
ATOM      1  C   UNL     1      46.607   4.578  13.763  0.00  0.00    +0.000 A 
ATOM      2  C   UNL     1      46.834   5.936  13.851  0.00  0.00    +0.000 A 
ATOM      3  N   UNL     1      46.082   6.568  12.891  0.00  0.00    +0.000 N 
ATOM      4  C   UNL     1      45.334   5.638  12.194  0.00  0.00    +0.000 A 
ATOM      5  C   UNL     1      44.393   5.786  11.162  0.00  0.00    +0.000 A 
ATOM      6  C   UNL     1      43.780   4.633  10.655  0.00  0.00    +0.000 A 
ATOM      7  C   UNL     1      44.109   3.372  11.144  0.00  0.00    +0.000 A 
ATOM      8  C   UNL     1      45.053   3.233  12.163  0.00  0.00    +0.000 A 
ATOM      9  C   UNL     1      45.663   4.381  12.710  0.00  0.00    +0.000 A 
ENDROOT
BRANCH   1  10
ATOM     10  C   UNL     1      47.231   3.521  14.616  0.00  0.00    +0.000 C 
BRANCH  10  11
ATOM     11  C   UNL     1      47.391   3.992  16.071  0.00  0.00    +0.000 C 
BRANCH  11  13
ATOM     12  C   UNL     1      49.042   5.522  16.904  0.00  0.00    +0.000 C 
ATOM     13  N   UNL     1      48.791   4.128  16.520  0.00  0.00    +0.000 NA
ATOM     14  C   UNL     1      49.097   3.246  17.646  0.00  0.00    +0.000 C 
ENDBRANCH  11  13
ENDBRANCH  10  11
ENDBRANCH   1  10
BRANCH   3  15
ATOM     15  C   UNL     1      46.116   8.010  12.650  0.00  0.00    +0.000 C 
BRANCH  15  16
ATOM     16  C   UNL     1      47.463   8.453  12.128  0.00  0.00    +0.000 A 
ATOM     17  C   UNL     1      48.427   7.511  11.732  0.00  0.00    +0.000 A 
ATOM     18  C   UNL     1      49.718   7.918  11.385  0.00  0.00    +0.000 A 
ATOM     19  C   UNL     1      50.050   9.275  11.390  0.00  0.00    +0.000 A 
ATOM     20  C   UNL     1      49.072  10.226  11.703  0.00  0.00    +0.000 A 
ATOM     21  C   UNL     1      47.787   9.816  12.069  0.00  0.00    +0.000 A 
BRANCH  19  22
ATOM     22  C   UNL     1      51.389   9.687  11.099  0.00  0.00    +0.000 C 
ATOM     23  N   UNL     1      52.480  10.026  10.872  0.00  0.00    +0.000 NA
ENDBRANCH  19  22
ENDBRANCH  15  16
ENDBRANCH   3  15
TORSDOF 6
ENDMDL
MODEL 6
REMARK VINA RESULT:    -5.256      2.629      3.999
REMARK INTER + INTRA:          -7.887
REMARK INTER:                  -7.081
REMARK INTRA:                  -0.806
REMARK UNBOUND:                -0.787
REMARK  Name = 
REMARK  8 active torsions:
REMARK  status: ('A' for Active; 'I' for Inactive)
REMARK    1  A    between atoms: C_1  and  N_2
REMARK    2  A    between atoms: N_2  and  C_3
REMARK    3  A    between atoms: N_2  and  C_4
REMARK    4  A    between atoms: C_4  and  C_5
REMARK    5  A    between atoms: C_5  and  C_6
REMARK    6  A    between atoms: N_8  and  C_9
REMARK    7  A    between atoms: C_9  and  C_10
REMARK    8  A    between atoms: C_13  and  C_14
REMARK                            x       y       z     vdW  Elec       q    Type
REMARK                         _______ _______ _______ _____ _____    ______ ____
ROOT
ATOM      1  C   UNL     1      49.259   7.031  14.850  0.00  0.00    +0.000 A 
ATOM      2  C   UNL     1      47.917   6.788  14.640  0.00  0.00    +0.000 A 
ATOM      3  N   UNL     1      47.536   7.414  13.478  0.00  0.00    +0.000 N 
ATOM      4  C   UNL     1      48.627   8.040  12.904  0.00  0.00    +0.000 A 
ATOM      5  C   UNL     1      48.760   8.764  11.708  0.00  0.00    +0.000 A 
ATOM      6  C   UNL     1      50.022   9.278  11.383  0.00  0.00    +0.000 A 
ATOM      7  C   UNL     1      51.110   9.095  12.230  0.00  0.00    +0.000 A 
ATOM      8  C   UNL     1      50.967   8.382  13.421  0.00  0.00    +0.000 A 
ATOM      9  C   UNL     1      49.713   7.830  13.758  0.00  0.00    +0.000 A 
ENDROOT
BRANCH   1  10
ATOM     10  C   UNL     1      50.075   6.542  16.003  0.00  0.00    +0.000 C 
BRANCH  10  11
ATOM     11  C   UNL     1      49.224   5.725  16.990  0.00  0.00    +0.000 C 
BRANCH  11  13
ATOM     12  C   UNL     1      50.099   3.617  17.731  0.00  0.00    +0.000 C 
ATOM     13  N   UNL     1      49.231   4.269  16.745  0.00  0.00    +0.000 NA
ATOM     14  C   UNL     1      47.888   3.693  16.814  0.00  0.00    +0.000 C 
ENDBRANCH  11  13
ENDBRANCH  10  11
ENDBRANCH   1  10
BRANCH   3  15
ATOM     15  C   UNL     1      46.165   7.422  12.971  0.00  0.00    +0.000 C 
BRANCH  15  16
ATOM     16  C   UNL     1      45.864   6.181  12.164  0.00  0.00    +0.000 A 
ATOM     17  C   UNL     1      45.930   6.201  10.762  0.00  0.00    +0.000 A 
ATOM     18  C   UNL     1      45.516   5.095  10.014  0.00  0.00    +0.000 A 
ATOM     19  C   UNL     1      45.066   3.941  10.661  0.00  0.00    +0.000 A 
ATOM     20  C   UNL     1      45.074   3.884  12.059  0.00  0.00    +0.000 A 
ATOM     21  C   UNL     1      45.471   4.997  12.804  0.00  0.00    +0.000 A 
BRANCH  19  22
ATOM     22  C   UNL     1      44.579   2.834   9.896  0.00  0.00    +0.000 C 
ATOM     23  N   UNL     1      44.173   1.932   9.281  0.00  0.00    +0.000 NA
ENDBRANCH  19  22
ENDBRANCH  15  16
ENDBRANCH   3  15
TORSDOF 6
ENDMDL
MODEL 7
REMARK VINA RESULT:    -5.151      2.460      7.415
REMARK INTER + INTRA:          -7.745
REMARK INTER:                  -6.851
REMARK INTRA:                  -0.894
REMARK UNBOUND:                -0.787
REMARK  Name = 
REMARK  8 active torsions:
REMARK  status: ('A' for Active; 'I' for Inactive)
REMARK    1  A    between atoms: C_1  and  N_2
REMARK    2  A    between atoms: N_2  and  C_3
REMARK    3  A    between atoms: N_2  and  C_4
REMARK    4  A    between atoms: C_4  and  C_5
REMARK    5  A    between atoms: C_5  and  C_6
REMARK    6  A    between atoms: N_8  and  C_9
REMARK    7  A    between atoms: C_9  and  C_10
REMARK    8  A    between atoms: C_13  and  C_14
REMARK                            x       y       z     vdW  Elec       q    Type
REMARK                         _______ _______ _______ _____ _____    ______ ____
ROOT
ATOM      1  C   UNL     1      44.892   6.180  12.672  0.00  0.00    +0.000 A 
ATOM      2  C   UNL     1      46.019   5.629  13.244  0.00  0.00    +0.000 A 
ATOM      3  N   UNL     1      47.013   6.576  13.251  0.00  0.00    +0.000 N 
ATOM      4  C   UNL     1      46.537   7.759  12.718  0.00  0.00    +0.000 A 
ATOM      5  C   UNL     1      47.145   9.014  12.550  0.00  0.00    +0.000 A 
ATOM      6  C   UNL     1      46.388  10.044  11.977  0.00  0.00    +0.000 A 
ATOM      7  C   UNL     1      45.076   9.827  11.567  0.00  0.00    +0.000 A 
ATOM      8  C   UNL     1      44.483   8.574  11.730  0.00  0.00    +0.000 A 
ATOM      9  C   UNL     1      45.215   7.528  12.329  0.00  0.00    +0.000 A 
ENDROOT
BRANCH   1  10
ATOM     10  C   UNL     1      43.582   5.491  12.459  0.00  0.00    +0.000 C 
BRANCH  10  11
ATOM     11  C   UNL     1      43.405   5.053  10.996  0.00  0.00    +0.000 C 
BRANCH  11  13
ATOM     12  C   UNL     1      44.542   3.211   9.960  0.00  0.00    +0.000 C 
ATOM     13  N   UNL     1      43.396   3.590  10.792  0.00  0.00    +0.000 NA
ATOM     14  C   UNL     1      43.444   2.858  12.058  0.00  0.00    +0.000 C 
ENDBRANCH  11  13
ENDBRANCH  10  11
ENDBRANCH   1  10
BRANCH   3  15
ATOM     15  C   UNL     1      48.372   6.325  13.730  0.00  0.00    +0.000 C 
BRANCH  15  16
ATOM     16  C   UNL     1      48.496   6.591  15.212  0.00  0.00    +0.000 A 
ATOM     17  C   UNL     1      48.814   7.873  15.689  0.00  0.00    +0.000 A 
ATOM     18  C   UNL     1      49.066   8.084  17.047  0.00  0.00    +0.000 A 
ATOM     19  C   UNL     1      48.965   7.025  17.952  0.00  0.00    +0.000 A 
ATOM     20  C   UNL     1      48.569   5.762  17.497  0.00  0.00    +0.000 A 
ATOM     21  C   UNL     1      48.335   5.549  16.136  0.00  0.00    +0.000 A 
BRANCH  19  22
ATOM     22  C   UNL     1      49.288   7.225  19.331  0.00  0.00    +0.000 C 
ATOM     23  N   UNL     1      49.550   7.399  20.453  0.00  0.00    +0.000 NA
ENDBRANCH  19  22
ENDBRANCH  15  16
ENDBRANCH   3  15
TORSDOF 6
ENDMDL
MODEL 8
REMARK VINA RESULT:    -4.762      3.771      6.179
REMARK INTER + INTRA:          -7.220
REMARK INTER:                  -6.432
REMARK INTRA:                  -0.788
REMARK UNBOUND:                -0.787
REMARK  Name = 
REMARK  8 active torsions:
REMARK  status: ('A' for Active; 'I' for Inactive)
REMARK    1  A    between atoms: C_1  and  N_2
REMARK    2  A    between atoms: N_2  and  C_3
REMARK    3  A    between atoms: N_2  and  C_4
REMARK    4  A    between atoms: C_4  and  C_5
REMARK    5  A    between atoms: C_5  and  C_6
REMARK    6  A    between atoms: N_8  and  C_9
REMARK    7  A    between atoms: C_9  and  C_10
REMARK    8  A    between atoms: C_13  and  C_14
REMARK                            x       y       z     vdW  Elec       q    Type
REMARK                         _______ _______ _______ _____ _____    ______ ____
ROOT
ATOM      1  C   UNL     1      45.975   5.651  13.177  0.00  0.00    +0.000 A 
ATOM      2  C   UNL     1      47.170   5.827  13.843  0.00  0.00    +0.000 A 
ATOM      3  N   UNL     1      47.580   7.126  13.669  0.00  0.00    +0.000 N 
ATOM      4  C   UNL     1      46.644   7.816  12.921  0.00  0.00    +0.000 A 
ATOM      5  C   UNL     1      46.585   9.160  12.515  0.00  0.00    +0.000 A 
ATOM      6  C   UNL     1      45.482   9.574  11.758  0.00  0.00    +0.000 A 
ATOM      7  C   UNL     1      44.482   8.676  11.398  0.00  0.00    +0.000 A 
ATOM      8  C   UNL     1      44.553   7.341  11.797  0.00  0.00    +0.000 A 
ATOM      9  C   UNL     1      45.639   6.905  12.584  0.00  0.00    +0.000 A 
ENDROOT
BRANCH   1  10
ATOM     10  C   UNL     1      45.185   4.383  13.101  0.00  0.00    +0.000 C 
BRANCH  10  11
ATOM     11  C   UNL     1      45.421   3.650  11.771  0.00  0.00    +0.000 C 
BRANCH  11  13
ATOM     12  C   UNL     1      43.075   3.985  11.394  0.00  0.00    +0.000 C 
ATOM     13  N   UNL     1      44.203   3.077  11.163  0.00  0.00    +0.000 NA
ATOM     14  C   UNL     1      44.362   2.845   9.727  0.00  0.00    +0.000 C 
ENDBRANCH  11  13
ENDBRANCH  10  11
ENDBRANCH   1  10
BRANCH   3  15
ATOM     15  C   UNL     1      48.840   7.658  14.186  0.00  0.00    +0.000 C 
BRANCH  15  16
ATOM     16  C   UNL     1      49.733   8.149  13.071  0.00  0.00    +0.000 A 
ATOM     17  C   UNL     1      49.962   7.360  11.932  0.00  0.00    +0.000 A 
ATOM     18  C   UNL     1      50.897   7.754  10.970  0.00  0.00    +0.000 A 
ATOM     19  C   UNL     1      51.587   8.959  11.116  0.00  0.00    +0.000 A 
ATOM     20  C   UNL     1      51.305   9.791  12.207  0.00  0.00    +0.000 A 
ATOM     21  C   UNL     1      50.384   9.387  13.176  0.00  0.00    +0.000 A 
BRANCH  19  22
ATOM     22  C   UNL     1      52.592   9.330  10.168  0.00  0.00    +0.000 C 
ATOM     23  N   UNL     1      53.403   9.637   9.389  0.00  0.00    +0.000 NA
ENDBRANCH  19  22
ENDBRANCH  15  16
ENDBRANCH   3  15
TORSDOF 6
ENDMDL
