MODEL 1
REMARK VINA RESULT:    -7.556      0.000      0.000
REMARK INTER + INTRA:          -8.802
REMARK INTER:                  -9.323
REMARK INTRA:                   0.520
REMARK UNBOUND:                 0.520
REMARK  Name = 
REMARK  6 active torsions:
REMARK  status: ('A' for Active; 'I' for Inactive)
REMARK    1  A    between atoms: C_1  and  N_2
REMARK    2  A    between atoms: C_3  and  C_5
REMARK    3  A    between atoms: C_8  and  N_9
REMARK    4  A    between atoms: N_9  and  C_10
REMARK    5  A    between atoms: C_10  and  C_11
REMARK    6  A    between atoms: C_10  and  C_12
REMARK                            x       y       z     vdW  Elec       q    Type
REMARK                         _______ _______ _______ _____ _____    ______ ____
ROOT
ATOM      1  C   UNL     1      46.891   5.711  13.331  0.00  0.00    +0.000 A 
ATOM      2  C   UNL     1      45.756   4.934  13.517  0.00  0.00    +0.000 A 
ATOM      3  N   UNL     1      44.848   4.705  12.528  0.00  0.00    +0.000 NA
ATOM      4  C   UNL     1      45.099   5.288  11.337  0.00  0.00    +0.000 A 
ATOM      5  C   UNL     1      46.233   6.102  11.182  0.00  0.00    +0.000 A 
ATOM      6  N   UNL     1      47.161   6.328  12.149  0.00  0.00    +0.000 NA
ENDROOT
BRANCH   1   9
ATOM      7  C   UNL     1      48.345   5.384  16.804  0.00  0.00    +0.000 C 
ATOM      8  N   UNL     1      47.513   5.280  15.636  0.00  0.00    +0.000 N 
ATOM      9  C   UNL     1      47.872   5.870  14.439  0.00  0.00    +0.000 C 
ATOM     10  O   UNL     1      48.917   6.494  14.271  0.00  0.00    +0.000 OA
ATOM     11  H   UNL     1      46.627   4.784  15.663  0.00  0.00    +0.000 HD
ENDBRANCH   1   9
BRANCH   4  12
ATOM     12  N   UNL     1      44.204   5.165  10.269  0.00  0.00    +0.000 N 
ATOM     13  H   UNL     1      43.357   5.675  10.508  0.00  0.00    +0.000 HD
BRANCH  12  14
ATOM     14  C   UNL     1      43.916   3.805   9.796  0.00  0.00    +0.000 C 
ATOM     15  C   UNL     1      43.760   2.923  11.043  0.00  0.00    +0.000 C 
BRANCH  14  16
ATOM     16  C   UNL     1      45.035   3.302   8.894  0.00  0.00    +0.000 A 
ATOM     17  C   UNL     1      45.380   1.940   8.901  0.00  0.00    +0.000 A 
ATOM     18  C   UNL     1      46.387   1.452   8.062  0.00  0.00    +0.000 A 
ATOM     19  C   UNL     1      47.059   2.318   7.203  0.00  0.00    +0.000 A 
ATOM     20  C   UNL     1      46.740   3.674   7.195  0.00  0.00    +0.000 A 
ATOM     21  C   UNL     1      45.740   4.163   8.037  0.00  0.00    +0.000 A 
ENDBRANCH  14  16
ENDBRANCH  12  14
ENDBRANCH   4  12
TORSDOF 4
ENDMDL
MODEL 2
REMARK VINA RESULT:    -7.282      1.454      2.340
REMARK INTER + INTRA:          -8.464
REMARK INTER:                  -7.997
REMARK INTRA:                  -0.467
REMARK UNBOUND:                 0.520
REMARK  Name = 
REMARK  6 active torsions:
REMARK  status: ('A' for Active; 'I' for Inactive)
REMARK    1  A    between atoms: C_1  and  N_2
REMARK    2  A    between atoms: C_3  and  C_5
REMARK    3  A    between atoms: C_8  and  N_9
REMARK    4  A    between atoms: N_9  and  C_10
REMARK    5  A    between atoms: C_10  and  C_11
REMARK    6  A    between atoms: C_10  and  C_12
REMARK                            x       y       z     vdW  Elec       q    Type
REMARK                         _______ _______ _______ _____ _____    ______ ____
ROOT
ATOM      1  C   UNL     1      47.932   6.273  14.397  0.00  0.00    +0.000 A 
ATOM      2  C   UNL     1      47.289   6.889  13.333  0.00  0.00    +0.000 A 
ATOM      3  N   UNL     1      46.324   6.271  12.596  0.00  0.00    +0.000 NA
ATOM      4  C   UNL     1      46.022   5.004  12.946  0.00  0.00    +0.000 A 
ATOM      5  C   UNL     1      46.713   4.385  14.001  0.00  0.00    +0.000 A 
ATOM      6  N   UNL     1      47.664   4.990  14.762  0.00  0.00    +0.000 NA
ENDROOT
BRANCH   1   9
ATOM      7  C   UNL     1      49.261   8.795  16.880  0.00  0.00    +0.000 C 
ATOM      8  N   UNL     1      48.411   7.963  16.070  0.00  0.00    +0.000 N 
ATOM      9  C   UNL     1      48.934   7.029  15.197  0.00  0.00    +0.000 C 
ATOM     10  O   UNL     1      50.137   6.817  15.063  0.00  0.00    +0.000 OA
ATOM     11  H   UNL     1      47.400   8.054  16.104  0.00  0.00    +0.000 HD
ENDBRANCH   1   9
BRANCH   4  12
ATOM     12  N   UNL     1      45.086   4.257  12.222  0.00  0.00    +0.000 N 
ATOM     13  H   UNL     1      45.457   3.316  12.107  0.00  0.00    +0.000 HD
BRANCH  12  14
ATOM     14  C   UNL     1      44.620   4.827  10.952  0.00  0.00    +0.000 C 
ATOM     15  C   UNL     1      43.086   4.830  11.001  0.00  0.00    +0.000 C 
BRANCH  14  16
ATOM     16  C   UNL     1      45.138   4.012   9.775  0.00  0.00    +0.000 A 
ATOM     17  C   UNL     1      45.757   4.661   8.694  0.00  0.00    +0.000 A 
ATOM     18  C   UNL     1      46.263   3.929   7.615  0.00  0.00    +0.000 A 
ATOM     19  C   UNL     1      46.160   2.541   7.603  0.00  0.00    +0.000 A 
ATOM     20  C   UNL     1      45.535   1.883   8.660  0.00  0.00    +0.000 A 
ATOM     21  C   UNL     1      45.023   2.612   9.735  0.00  0.00    +0.000 A 
ENDBRANCH  14  16
ENDBRANCH  12  14
ENDBRANCH   4  12
TORSDOF 4
ENDMDL
MODEL 3
REMARK VINA RESULT:    -7.217      3.066      6.434
REMARK INTER + INTRA:          -8.384
REMARK INTER:                  -7.840
REMARK INTRA:                  -0.544
REMARK UNBOUND:                 0.520
REMARK  Name = 
REMARK  6 active torsions:
REMARK  status: ('A' for Active; 'I' for Inactive)
REMARK    1  A    between atoms: C_1  and  N_2
REMARK    2  A    between atoms: C_3  and  C_5
REMARK    3  A    between atoms: C_8  and  N_9
REMARK    4  A    between atoms: N_9  and  C_10
REMARK    5  A    between atoms: C_10  and  C_11
REMARK    6  A    between atoms: C_10  and  C_12
REMARK                            x       y       z     vdW  Elec       q    Type
REMARK                         _______ _______ _______ _____ _____    ______ ____
ROOT
ATOM      1  C   UNL     1      45.974   2.712   8.079  0.00  0.00    +0.000 A 
ATOM      2  C   UNL     1      45.789   4.087   8.054  0.00  0.00    +0.000 A 
ATOM      3  N   UNL     1      45.017   4.744   8.963  0.00  0.00    +0.000 NA
ATOM      4  C   UNL     1      44.420   3.984   9.903  0.00  0.00    +0.000 A 
ATOM      5  C   UNL     1      44.589   2.590   9.888  0.00  0.00    +0.000 A 
ATOM      6  N   UNL     1      45.369   1.916   9.002  0.00  0.00    +0.000 NA
ENDROOT
BRANCH   1   9
ATOM      7  C   UNL     1      48.078   2.353   4.960  0.00  0.00    +0.000 C 
ATOM      8  N   UNL     1      47.240   2.855   6.014  0.00  0.00    +0.000 N 
ATOM      9  C   UNL     1      46.879   2.066   7.089  0.00  0.00    +0.000 C 
ATOM     10  O   UNL     1      47.257   0.907   7.243  0.00  0.00    +0.000 OA
ATOM     11  H   UNL     1      46.873   3.803   5.988  0.00  0.00    +0.000 HD
ENDBRANCH   1   9
BRANCH   4  12
ATOM     12  N   UNL     1      43.562   4.549  10.853  0.00  0.00    +0.000 N 
ATOM     13  H   UNL     1      43.268   5.461  10.508  0.00  0.00    +0.000 HD
BRANCH  12  14
ATOM     14  C   UNL     1      44.050   4.612  12.236  0.00  0.00    +0.000 C 
ATOM     15  C   UNL     1      42.848   4.980  13.117  0.00  0.00    +0.000 C 
BRANCH  14  16
ATOM     16  C   UNL     1      45.170   5.635  12.365  0.00  0.00    +0.000 A 
ATOM     17  C   UNL     1      44.943   6.970  11.992  0.00  0.00    +0.000 A 
ATOM     18  C   UNL     1      45.950   7.932  12.125  0.00  0.00    +0.000 A 
ATOM     19  C   UNL     1      47.194   7.572  12.636  0.00  0.00    +0.000 A 
ATOM     20  C   UNL     1      47.441   6.249  12.996  0.00  0.00    +0.000 A 
ATOM     21  C   UNL     1      46.439   5.287  12.857  0.00  0.00    +0.000 A 
ENDBRANCH  14  16
ENDBRANCH  12  14
ENDBRANCH   4  12
TORSDOF 4
ENDMDL
MODEL 4
REMARK VINA RESULT:    -7.057      1.772      2.739
REMARK INTER + INTRA:          -8.186
REMARK INTER:                  -7.727
REMARK INTRA:                  -0.460
REMARK UNBOUND:                 0.520
REMARK  Name = 
REMARK  6 active torsions:
REMARK  status: ('A' for Active; 'I' for Inactive)
REMARK    1  A    between atoms: C_1  and  N_2
REMARK    2  A    between atoms: C_3  and  C_5
REMARK    3  A    between atoms: C_8  and  N_9
REMARK    4  A    between atoms: N_9  and  C_10
REMARK    5  A    between atoms: C_10  and  C_11
REMARK    6  A    between atoms: C_10  and  C_12
REMARK                            x       y       z     vdW  Elec       q    Type
REMARK                         _______ _______ _______ _____ _____    ______ ____
ROOT
ATOM      1  C   UNL     1      48.319   5.633  15.520  0.00  0.00    +0.000 A 
ATOM      2  C   UNL     1      47.644   4.521  16.003  0.00  0.00    +0.000 A 
ATOM      3  N   UNL     1      46.710   3.852  15.273  0.00  0.00    +0.000 NA
ATOM      4  C   UNL     1      46.456   4.332  14.038  0.00  0.00    +0.000 A 
ATOM      5  C   UNL     1      47.123   5.482  13.584  0.00  0.00    +0.000 A 
ATOM      6  N   UNL     1      48.072   6.153  14.288  0.00  0.00    +0.000 NA
ENDROOT
BRANCH   1   9
ATOM      7  C   UNL     1      49.991   8.299  17.614  0.00  0.00    +0.000 C 
ATOM      8  N   UNL     1      49.057   7.538  16.830  0.00  0.00    +0.000 N 
ATOM      9  C   UNL     1      49.372   6.281  16.351  0.00  0.00    +0.000 C 
ATOM     10  O   UNL     1      50.439   5.713  16.572  0.00  0.00    +0.000 OA
ATOM     11  H   UNL     1      48.144   7.913  16.590  0.00  0.00    +0.000 HD
ENDBRANCH   1   9
BRANCH   4  12
ATOM     12  N   UNL     1      45.476   3.754  13.223  0.00  0.00    +0.000 N 
ATOM     13  H   UNL     1      45.904   2.984  12.715  0.00  0.00    +0.000 HD
BRANCH  12  14
ATOM     14  C   UNL     1      44.732   4.657  12.336  0.00  0.00    +0.000 C 
ATOM     15  C   UNL     1      43.267   4.625  12.793  0.00  0.00    +0.000 C 
BRANCH  14  16
ATOM     16  C   UNL     1      44.874   4.220  10.885  0.00  0.00    +0.000 A 
ATOM     17  C   UNL     1      44.384   2.968  10.481  0.00  0.00    +0.000 A 
ATOM     18  C   UNL     1      44.480   2.557   9.147  0.00  0.00    +0.000 A 
ATOM     19  C   UNL     1      45.065   3.394   8.200  0.00  0.00    +0.000 A 
ATOM     20  C   UNL     1      45.571   4.633   8.587  0.00  0.00    +0.000 A 
ATOM     21  C   UNL     1      45.481   5.041   9.919  0.00  0.00    +0.000 A 
ENDBRANCH  14  16
ENDBRANCH  12  14
ENDBRANCH   4  12
TORSDOF 4
ENDMDL
MODEL 5
REMARK VINA RESULT:    -6.813      2.700      7.314
REMARK INTER + INTRA:          -7.885
REMARK INTER:                  -7.428
REMARK INTRA:                  -0.458
REMARK UNBOUND:                 0.520
REMARK  Name = 
REMARK  6 active torsions:
REMARK  status: ('A' for Active; 'I' for Inactive)
REMARK    1  A    between atoms: C_1  and  N_2
REMARK    2  A    between atoms: C_3  and  C_5
REMARK    3  A    between atoms: C_8  and  N_9
REMARK    4  A    between atoms: N_9  and  C_10
REMARK    5  A    between atoms: C_10  and  C_11
REMARK    6  A    between atoms: C_10  and  C_12
REMARK                            x       y       z     vdW  Elec       q    Type
REMARK                         _______ _______ _______ _____ _____    ______ ____
ROOT
ATOM      1  C   UNL     1      45.376   4.203  12.147  0.00  0.00    +0.000 A 
ATOM      2  C   UNL     1      45.999   3.206  12.884  0.00  0.00    +0.000 A 
ATOM      3  N   UNL     1      46.696   3.459  14.026  0.00  0.00    +0.000 NA
ATOM      4  C   UNL     1      46.766   4.750  14.412  0.00  0.00    +0.000 A 
ATOM      5  C   UNL     1      46.163   5.748  13.630  0.00  0.00    +0.000 A 
ATOM      6  N   UNL     1      45.446   5.515  12.499  0.00  0.00    +0.000 NA
ENDROOT
BRANCH   1   9
ATOM      7  C   UNL     1      44.481   3.944   8.483  0.00  0.00    +0.000 C 
ATOM      8  N   UNL     1      45.153   4.191   9.731  0.00  0.00    +0.000 N 
ATOM      9  C   UNL     1      44.580   3.847  10.940  0.00  0.00    +0.000 C 
ATOM     10  O   UNL     1      43.489   3.293  11.046  0.00  0.00    +0.000 OA
ATOM     11  H   UNL     1      46.062   4.644   9.758  0.00  0.00    +0.000 HD
ENDBRANCH   1   9
BRANCH   4  12
ATOM     12  N   UNL     1      47.503   5.129  15.539  0.00  0.00    +0.000 N 
ATOM     13  H   UNL     1      48.459   5.313  15.242  0.00  0.00    +0.000 HD
BRANCH  12  14
ATOM     14  C   UNL     1      47.448   4.234  16.702  0.00  0.00    +0.000 C 
ATOM     15  C   UNL     1      46.929   5.068  17.882  0.00  0.00    +0.000 C 
BRANCH  14  16
ATOM     16  C   UNL     1      48.822   3.648  16.994  0.00  0.00    +0.000 A 
ATOM     17  C   UNL     1      49.077   2.294  16.723  0.00  0.00    +0.000 A 
ATOM     18  C   UNL     1      50.339   1.741  16.960  0.00  0.00    +0.000 A 
ATOM     19  C   UNL     1      51.364   2.534  17.469  0.00  0.00    +0.000 A 
ATOM     20  C   UNL     1      51.124   3.876  17.759  0.00  0.00    +0.000 A 
ATOM     21  C   UNL     1      49.862   4.427  17.529  0.00  0.00    +0.000 A 
ENDBRANCH  14  16
ENDBRANCH  12  14
ENDBRANCH   4  12
TORSDOF 4
ENDMDL
MODEL 6
REMARK VINA RESULT:    -6.373      2.033      2.542
REMARK INTER + INTRA:          -7.343
REMARK INTER:                  -7.587
REMARK INTRA:                   0.244
REMARK UNBOUND:                 0.520
REMARK  Name = 
REMARK  6 active torsions:
REMARK  status: ('A' for Active; 'I' for Inactive)
REMARK    1  A    between atoms: C_1  and  N_2
REMARK    2  A    between atoms: C_3  and  C_5
REMARK    3  A    between atoms: C_8  and  N_9
REMARK    4  A    between atoms: N_9  and  C_10
REMARK    5  A    between atoms: C_10  and  C_11
REMARK    6  A    between atoms: C_10  and  C_12
REMARK                            x       y       z     vdW  Elec       q    Type
REMARK                         _______ _______ _______ _____ _____    ______ ____
ROOT
ATOM      1  C   UNL     1      47.356   8.164  13.392  0.00  0.00    +0.000 A 
ATOM      2  C   UNL     1      46.063   8.627  13.196  0.00  0.00    +0.000 A 
ATOM      3  N   UNL     1      45.212   8.078  12.286  0.00  0.00    +0.000 NA
ATOM      4  C   UNL     1      45.695   7.049  11.558  0.00  0.00    +0.000 A 
ATOM      5  C   UNL     1      47.020   6.622  11.744  0.00  0.00    +0.000 A 
ATOM      6  N   UNL     1      47.878   7.142  12.661  0.00  0.00    +0.000 NA
ENDROOT
BRANCH   1   9
ATOM      7  C   UNL     1      48.414   9.263  16.850  0.00  0.00    +0.000 C 
ATOM      8  N   UNL     1      47.715   8.686  15.734  0.00  0.00    +0.000 N 
ATOM      9  C   UNL     1      48.211   8.773  14.447  0.00  0.00    +0.000 C 
ATOM     10  O   UNL     1      49.277   9.314  14.161  0.00  0.00    +0.000 OA
ATOM     11  H   UNL     1      46.824   8.213  15.859  0.00  0.00    +0.000 HD
ENDBRANCH   1   9
BRANCH   4  12
ATOM     12  N   UNL     1      44.926   6.447  10.557  0.00  0.00    +0.000 N 
ATOM     13  H   UNL     1      44.175   7.088  10.309  0.00  0.00    +0.000 HD
BRANCH  12  14
ATOM     14  C   UNL     1      44.430   5.091  10.823  0.00  0.00    +0.000 C 
ATOM     15  C   UNL     1      44.893   4.718  12.238  0.00  0.00    +0.000 C 
BRANCH  14  16
ATOM     16  C   UNL     1      44.962   4.112   9.786  0.00  0.00    +0.000 A 
ATOM     17  C   UNL     1      45.688   4.588   8.682  0.00  0.00    +0.000 A 
ATOM     18  C   UNL     1      46.207   3.704   7.731  0.00  0.00    +0.000 A 
ATOM     19  C   UNL     1      46.010   2.333   7.872  0.00  0.00    +0.000 A 
ATOM     20  C   UNL     1      45.278   1.845   8.953  0.00  0.00    +0.000 A 
ATOM     21  C   UNL     1      44.754   2.727   9.899  0.00  0.00    +0.000 A 
ENDBRANCH  14  16
ENDBRANCH  12  14
ENDBRANCH   4  12
TORSDOF 4
ENDMDL
MODEL 7
REMARK VINA RESULT:    -6.226      2.763      4.367
REMARK INTER + INTRA:          -7.162
REMARK INTER:                  -7.288
REMARK INTRA:                   0.127
REMARK UNBOUND:                 0.520
REMARK  Name = 
REMARK  6 active torsions:
REMARK  status: ('A' for Active; 'I' for Inactive)
REMARK    1  A    between atoms: C_1  and  N_2
REMARK    2  A    between atoms: C_3  and  C_5
REMARK    3  A    between atoms: C_8  and  N_9
REMARK    4  A    between atoms: N_9  and  C_10
REMARK    5  A    between atoms: C_10  and  C_11
REMARK    6  A    between atoms: C_10  and  C_12
REMARK                            x       y       z     vdW  Elec       q    Type
REMARK                         _______ _______ _______ _____ _____    ______ ____
ROOT
ATOM      1  C   UNL     1      47.539   4.555  16.074  0.00  0.00    +0.000 A 
ATOM      2  C   UNL     1      48.288   5.693  15.811  0.00  0.00    +0.000 A 
ATOM      3  N   UNL     1      48.284   6.314  14.599  0.00  0.00    +0.000 NA
ATOM      4  C   UNL     1      47.514   5.757  13.642  0.00  0.00    +0.000 A 
ATOM      5  C   UNL     1      46.794   4.583  13.918  0.00  0.00    +0.000 A 
ATOM      6  N   UNL     1      46.768   3.958  15.125  0.00  0.00    +0.000 NA
ENDROOT
BRANCH   1   9
ATOM      7  C   UNL     1      48.561   4.054  19.679  0.00  0.00    +0.000 C 
ATOM      8  N   UNL     1      48.420   4.546  18.335  0.00  0.00    +0.000 N 
ATOM      9  C   UNL     1      47.544   3.962  17.440  0.00  0.00    +0.000 C 
ATOM     10  O   UNL     1      46.812   3.016  17.719  0.00  0.00    +0.000 OA
ATOM     11  H   UNL     1      48.977   5.326  18.000  0.00  0.00    +0.000 HD
ENDBRANCH   1   9
BRANCH   4  12
ATOM     12  N   UNL     1      47.479   6.281  12.345  0.00  0.00    +0.000 N 
ATOM     13  H   UNL     1      48.317   6.842  12.210  0.00  0.00    +0.000 HD
BRANCH  12  14
ATOM     14  C   UNL     1      46.262   7.002  11.952  0.00  0.00    +0.000 C 
ATOM     15  C   UNL     1      45.952   8.001  13.076  0.00  0.00    +0.000 C 
BRANCH  14  16
ATOM     16  C   UNL     1      45.109   6.032  11.735  0.00  0.00    +0.000 A 
ATOM     17  C   UNL     1      45.129   5.156  10.637  0.00  0.00    +0.000 A 
ATOM     18  C   UNL     1      44.093   4.239  10.433  0.00  0.00    +0.000 A 
ATOM     19  C   UNL     1      43.025   4.183  11.325  0.00  0.00    +0.000 A 
ATOM     20  C   UNL     1      42.982   5.056  12.411  0.00  0.00    +0.000 A 
ATOM     21  C   UNL     1      44.012   5.976  12.612  0.00  0.00    +0.000 A 
ENDBRANCH  14  16
ENDBRANCH  12  14
ENDBRANCH   4  12
TORSDOF 4
ENDMDL
MODEL 8
REMARK VINA RESULT:    -5.948      2.685      4.498
REMARK INTER + INTRA:          -6.818
REMARK INTER:                  -6.563
REMARK INTRA:                  -0.255
REMARK UNBOUND:                 0.520
REMARK  Name = 
REMARK  6 active torsions:
REMARK  status: ('A' for Active; 'I' for Inactive)
REMARK    1  A    between atoms: C_1  and  N_2
REMARK    2  A    between atoms: C_3  and  C_5
REMARK    3  A    between atoms: C_8  and  N_9
REMARK    4  A    between atoms: N_9  and  C_10
REMARK    5  A    between atoms: C_10  and  C_11
REMARK    6  A    between atoms: C_10  and  C_12
REMARK                            x       y       z     vdW  Elec       q    Type
REMARK                         _______ _______ _______ _____ _____    ______ ____
ROOT
ATOM      1  C   UNL     1      49.274   4.326  17.086  0.00  0.00    +0.000 A 
ATOM      2  C   UNL     1      48.232   3.429  16.896  0.00  0.00    +0.000 A 
ATOM      3  N   UNL     1      47.227   3.644  16.003  0.00  0.00    +0.000 NA
ATOM      4  C   UNL     1      47.283   4.796  15.304  0.00  0.00    +0.000 A 
ATOM      5  C   UNL     1      48.325   5.709  15.540  0.00  0.00    +0.000 A 
ATOM      6  N   UNL     1      49.348   5.504  16.410  0.00  0.00    +0.000 NA
ENDROOT
BRANCH   1   9
ATOM      7  C   UNL     1      51.543   4.688  20.087  0.00  0.00    +0.000 C 
ATOM      8  N   UNL     1      50.503   4.858  19.109  0.00  0.00    +0.000 N 
ATOM      9  C   UNL     1      50.373   3.998  18.036  0.00  0.00    +0.000 C 
ATOM     10  O   UNL     1      51.100   3.026  17.847  0.00  0.00    +0.000 OA
ATOM     11  H   UNL     1      49.844   5.629  19.171  0.00  0.00    +0.000 HD
ENDBRANCH   1   9
BRANCH   4  12
ATOM     12  N   UNL     1      46.272   5.145  14.401  0.00  0.00    +0.000 N 
ATOM     13  H   UNL     1      45.539   4.442  14.464  0.00  0.00    +0.000 HD
BRANCH  12  14
ATOM     14  C   UNL     1      46.679   5.396  13.013  0.00  0.00    +0.000 C 
ATOM     15  C   UNL     1      46.733   6.919  12.832  0.00  0.00    +0.000 C 
BRANCH  14  16
ATOM     16  C   UNL     1      45.699   4.753  12.041  0.00  0.00    +0.000 A 
ATOM     17  C   UNL     1      44.958   3.627  12.437  0.00  0.00    +0.000 A 
ATOM     18  C   UNL     1      44.034   3.036  11.570  0.00  0.00    +0.000 A 
ATOM     19  C   UNL     1      43.836   3.565  10.297  0.00  0.00    +0.000 A 
ATOM     20  C   UNL     1      44.574   4.671   9.882  0.00  0.00    +0.000 A 
ATOM     21  C   UNL     1      45.501   5.258  10.745  0.00  0.00    +0.000 A 
ENDBRANCH  14  16
ENDBRANCH  12  14
ENDBRANCH   4  12
TORSDOF 4
ENDMDL
MODEL 9
REMARK VINA RESULT:    -5.804      3.366      6.624
REMARK INTER + INTRA:          -6.640
REMARK INTER:                  -6.238
REMARK INTRA:                  -0.402
REMARK UNBOUND:                 0.520
REMARK  Name = 
REMARK  6 active torsions:
REMARK  status: ('A' for Active; 'I' for Inactive)
REMARK    1  A    between atoms: C_1  and  N_2
REMARK    2  A    between atoms: C_3  and  C_5
REMARK    3  A    between atoms: C_8  and  N_9
REMARK    4  A    between atoms: N_9  and  C_10
REMARK    5  A    between atoms: C_10  and  C_11
REMARK    6  A    between atoms: C_10  and  C_12
REMARK                            x       y       z     vdW  Elec       q    Type
REMARK                         _______ _______ _______ _____ _____    ______ ____
ROOT
ATOM      1  C   UNL     1      45.229   4.733  11.287  0.00  0.00    +0.000 A 
ATOM      2  C   UNL     1      45.512   4.294  12.573  0.00  0.00    +0.000 A 
ATOM      3  N   UNL     1      46.170   5.061  13.486  0.00  0.00    +0.000 NA
ATOM      4  C   UNL     1      46.553   6.287  13.074  0.00  0.00    +0.000 A 
ATOM      5  C   UNL     1      46.291   6.696  11.756  0.00  0.00    +0.000 A 
ATOM      6  N   UNL     1      45.619   5.955  10.836  0.00  0.00    +0.000 NA
ENDROOT
BRANCH   1   9
ATOM      7  C   UNL     1      44.436   1.738   9.121  0.00  0.00    +0.000 C 
ATOM      8  N   UNL     1      45.051   2.662  10.035  0.00  0.00    +0.000 N 
ATOM      9  C   UNL     1      44.452   3.864  10.361  0.00  0.00    +0.000 C 
ATOM     10  O   UNL     1      43.360   4.221   9.928  0.00  0.00    +0.000 OA
ATOM     11  H   UNL     1      45.956   2.464  10.453  0.00  0.00    +0.000 HD
ENDBRANCH   1   9
BRANCH   4  12
ATOM     12  N   UNL     1      47.284   7.137  13.911  0.00  0.00    +0.000 N 
ATOM     13  H   UNL     1      46.917   8.079  13.801  0.00  0.00    +0.000 HD
BRANCH  12  14
ATOM     14  C   UNL     1      48.747   7.095  13.787  0.00  0.00    +0.000 C 
ATOM     15  C   UNL     1      49.319   7.241  15.204  0.00  0.00    +0.000 C 
BRANCH  14  16
ATOM     16  C   UNL     1      49.240   8.206  12.870  0.00  0.00    +0.000 A 
ATOM     17  C   UNL     1      48.565   9.437  12.837  0.00  0.00    +0.000 A 
ATOM     18  C   UNL     1      49.015  10.479  12.021  0.00  0.00    +0.000 A 
ATOM     19  C   UNL     1      50.148  10.305  11.229  0.00  0.00    +0.000 A 
ATOM     20  C   UNL     1      50.820   9.085  11.238  0.00  0.00    +0.000 A 
ATOM     21  C   UNL     1      50.367   8.042  12.047  0.00  0.00    +0.000 A 
ENDBRANCH  14  16
ENDBRANCH  12  14
ENDBRANCH   4  12
TORSDOF 4
ENDMDL
