MODEL 1
REMARK VINA RESULT:    -8.567      0.000      0.000
REMARK INTER + INTRA:         -11.343
REMARK INTER:                 -10.570
REMARK INTRA:                  -0.773
REMARK UNBOUND:                -0.773
REMARK  Name = 
REMARK  4 active torsions:
REMARK  status: ('A' for Active; 'I' for Inactive)
REMARK    1  A    between atoms: C_2  and  C_4
REMARK    2  A    between atoms: C_7  and  N_8
REMARK    3  A    between atoms: N_8  and  C_9
REMARK    4  A    between atoms: C_9  and  C_10
REMARK                            x       y       z     vdW  Elec       q    Type
REMARK                         _______ _______ _______ _____ _____    ______ ____
ROOT
ATOM      1  N   UNL     1      43.965   4.886  10.029  0.00  0.00    +0.000 N 
ATOM      2  H   UNL     1      43.164   5.290   9.550  0.00  0.00    +0.000 HD
ENDROOT
BRANCH   1   6
ATOM      3  C   UNL     1      46.436   2.334   7.749  0.00  0.00    +0.000 A 
ATOM      4  C   UNL     1      45.498   1.784   8.624  0.00  0.00    +0.000 A 
ATOM      5  C   UNL     1      44.660   2.621   9.368  0.00  0.00    +0.000 A 
ATOM      6  C   UNL     1      44.712   4.014   9.240  0.00  0.00    +0.000 A 
ATOM      7  C   UNL     1      45.673   4.550   8.369  0.00  0.00    +0.000 A 
ATOM      8  C   UNL     1      46.531   3.720   7.631  0.00  0.00    +0.000 A 
BRANCH   3  10
ATOM      9  N   UNL     1      48.444   2.082   6.388  0.00  0.00    +0.000 N 
ATOM     10  C   UNL     1      47.371   1.475   6.974  0.00  0.00    +0.000 C 
ATOM     11  O   UNL     1      47.202   0.266   6.881  0.00  0.00    +0.000 OA
ATOM     12  H   UNL     1      49.115   1.472   5.944  0.00  0.00    +0.000 HD
ATOM     13  H   UNL     1      48.747   3.013   6.638  0.00  0.00    +0.000 HD
ENDBRANCH   3  10
ENDBRANCH   1   6
BRANCH   1  14
ATOM     14  C   UNL     1      43.748   4.605  11.442  0.00  0.00    +0.000 C 
BRANCH  14  15
ATOM     15  C   UNL     1      45.047   4.674  12.201  0.00  0.00    +0.000 A 
ATOM     16  C   UNL     1      45.566   3.563  12.861  0.00  0.00    +0.000 A 
ATOM     17  C   UNL     1      46.769   3.708  13.533  0.00  0.00    +0.000 A 
ATOM     18  N   UNL     1      47.475   4.861  13.596  0.00  0.00    +0.000 NA
ATOM     19  C   UNL     1      46.986   5.932  12.940  0.00  0.00    +0.000 A 
ATOM     20  N   UNL     1      47.629   7.165  13.007  0.00  0.00    +0.000 N 
ATOM     21  C   UNL     1      48.568   7.366  14.116  0.00  0.00    +0.000 C 
ATOM     22  C   UNL     1      48.822   8.883  14.221  0.00  0.00    +0.000 C 
ATOM     23  O   UNL     1      49.351   9.420  12.991  0.00  0.00    +0.000 OA
ATOM     24  C   UNL     1      48.455   9.159  11.893  0.00  0.00    +0.000 C 
ATOM     25  C   UNL     1      48.184   7.654  11.734  0.00  0.00    +0.000 C 
ATOM     26  C   UNL     1      45.781   5.862  12.237  0.00  0.00    +0.000 A 
ENDBRANCH  14  15
ENDBRANCH   1  14
TORSDOF 4
ENDMDL
MODEL 2
REMARK VINA RESULT:    -7.108      1.780      6.861
REMARK INTER + INTRA:          -9.543
REMARK INTER:                  -8.984
REMARK INTRA:                  -0.558
REMARK UNBOUND:                -0.773
REMARK  Name = 
REMARK  4 active torsions:
REMARK  status: ('A' for Active; 'I' for Inactive)
REMARK    1  A    between atoms: C_2  and  C_4
REMARK    2  A    between atoms: C_7  and  N_8
REMARK    3  A    between atoms: N_8  and  C_9
REMARK    4  A    between atoms: C_9  and  C_10
REMARK                            x       y       z     vdW  Elec       q    Type
REMARK                         _______ _______ _______ _____ _____    ______ ____
ROOT
ATOM      1  N   UNL     1      46.187   5.990  13.557  0.00  0.00    +0.000 N 
ATOM      2  H   UNL     1      46.092   5.850  14.560  0.00  0.00    +0.000 HD
ENDROOT
BRANCH   1   6
ATOM      3  C   UNL     1      49.823   7.850  12.491  0.00  0.00    +0.000 A 
ATOM      4  C   UNL     1      48.807   7.729  11.543  0.00  0.00    +0.000 A 
ATOM      5  C   UNL     1      47.590   7.134  11.892  0.00  0.00    +0.000 A 
ATOM      6  C   UNL     1      47.344   6.674  13.191  0.00  0.00    +0.000 A 
ATOM      7  C   UNL     1      48.383   6.787  14.127  0.00  0.00    +0.000 A 
ATOM      8  C   UNL     1      49.615   7.367  13.783  0.00  0.00    +0.000 A 
BRANCH   3  10
ATOM      9  N   UNL     1      52.224   8.042  12.877  0.00  0.00    +0.000 N 
ATOM     10  C   UNL     1      51.143   8.439  12.144  0.00  0.00    +0.000 C 
ATOM     11  O   UNL     1      51.267   9.234  11.221  0.00  0.00    +0.000 OA
ATOM     12  H   UNL     1      53.123   8.382  12.570  0.00  0.00    +0.000 HD
ATOM     13  H   UNL     1      52.207   7.225  13.472  0.00  0.00    +0.000 HD
ENDBRANCH   3  10
ENDBRANCH   1   6
BRANCH   1  14
ATOM     14  C   UNL     1      44.932   6.229  12.857  0.00  0.00    +0.000 C 
BRANCH  14  15
ATOM     15  C   UNL     1      44.501   4.998  12.106  0.00  0.00    +0.000 A 
ATOM     16  C   UNL     1      43.418   4.229  12.525  0.00  0.00    +0.000 A 
ATOM     17  C   UNL     1      43.082   3.113  11.775  0.00  0.00    +0.000 A 
ATOM     18  N   UNL     1      43.740   2.715  10.662  0.00  0.00    +0.000 NA
ATOM     19  C   UNL     1      44.775   3.469  10.242  0.00  0.00    +0.000 A 
ATOM     20  N   UNL     1      45.532   3.090   9.137  0.00  0.00    +0.000 N 
ATOM     21  C   UNL     1      45.451   1.683   8.726  0.00  0.00    +0.000 C 
ATOM     22  C   UNL     1      46.646   1.419   7.789  0.00  0.00    +0.000 C 
ATOM     23  O   UNL     1      46.629   2.295   6.644  0.00  0.00    +0.000 OA
ATOM     24  C   UNL     1      46.640   3.675   7.056  0.00  0.00    +0.000 C 
ATOM     25  C   UNL     1      45.453   3.996   7.979  0.00  0.00    +0.000 C 
ATOM     26  C   UNL     1      45.170   4.611  10.942  0.00  0.00    +0.000 A 
ENDBRANCH  14  15
ENDBRANCH   1  14
TORSDOF 4
ENDMDL
MODEL 3
REMARK VINA RESULT:    -6.939      2.497      7.436
REMARK INTER + INTRA:          -9.335
REMARK INTER:                  -8.857
REMARK INTRA:                  -0.478
REMARK UNBOUND:                -0.773
REMARK  Name = 
REMARK  4 active torsions:
REMARK  status: ('A' for Active; 'I' for Inactive)
REMARK    1  A    between atoms: C_2  and  C_4
REMARK    2  A    between atoms: C_7  and  N_8
REMARK    3  A    between atoms: N_8  and  C_9
REMARK    4  A    between atoms: C_9  and  C_10
REMARK                            x       y       z     vdW  Elec       q    Type
REMARK                         _______ _______ _______ _____ _____    ______ ____
ROOT
ATOM      1  N   UNL     1      46.866   6.509  12.709  0.00  0.00    +0.000 N 
ATOM      2  H   UNL     1      47.366   6.205  11.877  0.00  0.00    +0.000 HD
ENDROOT
BRANCH   1   6
ATOM      3  C   UNL     1      48.173   4.943  16.405  0.00  0.00    +0.000 A 
ATOM      4  C   UNL     1      47.232   4.239  15.652  0.00  0.00    +0.000 A 
ATOM      5  C   UNL     1      46.808   4.739  14.416  0.00  0.00    +0.000 A 
ATOM      6  C   UNL     1      47.328   5.926  13.887  0.00  0.00    +0.000 A 
ATOM      7  C   UNL     1      48.260   6.630  14.665  0.00  0.00    +0.000 A 
ATOM      8  C   UNL     1      48.679   6.147  15.915  0.00  0.00    +0.000 A 
BRANCH   3  10
ATOM      9  N   UNL     1      47.727   3.727  18.471  0.00  0.00    +0.000 N 
ATOM     10  C   UNL     1      48.615   4.462  17.740  0.00  0.00    +0.000 C 
ATOM     11  O   UNL     1      49.739   4.695  18.165  0.00  0.00    +0.000 OA
ATOM     12  H   UNL     1      48.074   3.333  19.333  0.00  0.00    +0.000 HD
ATOM     13  H   UNL     1      46.897   3.315  18.065  0.00  0.00    +0.000 HD
ENDBRANCH   3  10
ENDBRANCH   1   6
BRANCH   1  14
ATOM     14  C   UNL     1      45.443   6.745  12.508  0.00  0.00    +0.000 C 
BRANCH  14  15
ATOM     15  C   UNL     1      44.799   5.561  11.836  0.00  0.00    +0.000 A 
ATOM     16  C   UNL     1      43.553   5.084  12.233  0.00  0.00    +0.000 A 
ATOM     17  C   UNL     1      43.027   3.993  11.559  0.00  0.00    +0.000 A 
ATOM     18  N   UNL     1      43.647   3.353  10.541  0.00  0.00    +0.000 NA
ATOM     19  C   UNL     1      44.843   3.826  10.139  0.00  0.00    +0.000 A 
ATOM     20  N   UNL     1      45.564   3.186   9.135  0.00  0.00    +0.000 N 
ATOM     21  C   UNL     1      45.204   1.793   8.843  0.00  0.00    +0.000 C 
ATOM     22  C   UNL     1      46.366   1.189   8.030  0.00  0.00    +0.000 C 
ATOM     23  O   UNL     1      46.606   1.928   6.814  0.00  0.00    +0.000 OA
ATOM     24  C   UNL     1      46.891   3.310   7.104  0.00  0.00    +0.000 C 
ATOM     25  C   UNL     1      45.750   3.965   7.900  0.00  0.00    +0.000 C 
ATOM     26  C   UNL     1      45.435   4.925  10.766  0.00  0.00    +0.000 A 
ENDBRANCH  14  15
ENDBRANCH   1  14
TORSDOF 4
ENDMDL
MODEL 4
REMARK VINA RESULT:    -6.619      4.346      7.948
REMARK INTER + INTRA:          -8.939
REMARK INTER:                  -8.400
REMARK INTRA:                  -0.539
REMARK UNBOUND:                -0.773
REMARK  Name = 
REMARK  4 active torsions:
REMARK  status: ('A' for Active; 'I' for Inactive)
REMARK    1  A    between atoms: C_2  and  C_4
REMARK    2  A    between atoms: C_7  and  N_8
REMARK    3  A    between atoms: N_8  and  C_9
REMARK    4  A    between atoms: C_9  and  C_10
REMARK                            x       y       z     vdW  Elec       q    Type
REMARK                         _______ _______ _______ _____ _____    ______ ____
ROOT
ATOM      1  N   UNL     1      47.970   5.021  16.472  0.00  0.00    +0.000 N 
ATOM      2  H   UNL     1      47.172   5.056  17.102  0.00  0.00    +0.000 HD
ENDROOT
BRANCH   1   6
ATOM      3  C   UNL     1      50.994   2.234  17.422  0.00  0.00    +0.000 A 
ATOM      4  C   UNL     1      51.188   3.586  17.708  0.00  0.00    +0.000 A 
ATOM      5  C   UNL     1      50.183   4.515  17.417  0.00  0.00    +0.000 A 
ATOM      6  C   UNL     1      48.957   4.122  16.866  0.00  0.00    +0.000 A 
ATOM      7  C   UNL     1      48.787   2.762  16.567  0.00  0.00    +0.000 A 
ATOM      8  C   UNL     1      49.796   1.824  16.839  0.00  0.00    +0.000 A 
BRANCH   3  10
ATOM      9  N   UNL     1      51.674   0.032  18.220  0.00  0.00    +0.000 N 
ATOM     10  C   UNL     1      52.057   1.227  17.679  0.00  0.00    +0.000 C 
ATOM     11  O   UNL     1      53.228   1.444  17.399  0.00  0.00    +0.000 OA
ATOM     12  H   UNL     1      52.393  -0.672  18.303  0.00  0.00    +0.000 HD
ATOM     13  H   UNL     1      50.711  -0.273  18.239  0.00  0.00    +0.000 HD
ENDBRANCH   3  10
ENDBRANCH   1   6
BRANCH   1  14
ATOM     14  C   UNL     1      48.328   6.301  15.876  0.00  0.00    +0.000 C 
BRANCH  14  15
ATOM     15  C   UNL     1      47.897   6.354  14.435  0.00  0.00    +0.000 A 
ATOM     16  C   UNL     1      48.604   7.089  13.487  0.00  0.00    +0.000 A 
ATOM     17  C   UNL     1      48.144   7.081  12.180  0.00  0.00    +0.000 A 
ATOM     18  N   UNL     1      47.047   6.409  11.760  0.00  0.00    +0.000 NA
ATOM     19  C   UNL     1      46.373   5.678  12.670  0.00  0.00    +0.000 A 
ATOM     20  N   UNL     1      45.205   5.006  12.322  0.00  0.00    +0.000 N 
ATOM     21  C   UNL     1      44.519   5.450  11.103  0.00  0.00    +0.000 C 
ATOM     22  C   UNL     1      43.092   4.870  11.153  0.00  0.00    +0.000 C 
ATOM     23  O   UNL     1      43.106   3.430  11.243  0.00  0.00    +0.000 OA
ATOM     24  C   UNL     1      43.840   2.998  12.406  0.00  0.00    +0.000 C 
ATOM     25  C   UNL     1      45.280   3.537  12.394  0.00  0.00    +0.000 C 
ATOM     26  C   UNL     1      46.779   5.633  14.006  0.00  0.00    +0.000 A 
ENDBRANCH  14  15
ENDBRANCH   1  14
TORSDOF 4
ENDMDL
MODEL 5
REMARK VINA RESULT:    -6.334      1.956      7.069
REMARK INTER + INTRA:          -8.588
REMARK INTER:                  -8.225
REMARK INTRA:                  -0.364
REMARK UNBOUND:                -0.773
REMARK  Name = 
REMARK  4 active torsions:
REMARK  status: ('A' for Active; 'I' for Inactive)
REMARK    1  A    between atoms: C_2  and  C_4
REMARK    2  A    between atoms: C_7  and  N_8
REMARK    3  A    between atoms: N_8  and  C_9
REMARK    4  A    between atoms: C_9  and  C_10
REMARK                            x       y       z     vdW  Elec       q    Type
REMARK                         _______ _______ _______ _____ _____    ______ ____
ROOT
ATOM      1  N   UNL     1      44.926   7.024  11.107  0.00  0.00    +0.000 N 
ATOM      2  H   UNL     1      45.329   6.928  10.178  0.00  0.00    +0.000 HD
ENDROOT
BRANCH   1   6
ATOM      3  C   UNL     1      47.956   7.014  14.046  0.00  0.00    +0.000 A 
ATOM      4  C   UNL     1      47.452   8.229  13.580  0.00  0.00    +0.000 A 
ATOM      5  C   UNL     1      46.433   8.243  12.622  0.00  0.00    +0.000 A 
ATOM      6  C   UNL     1      45.872   7.059  12.129  0.00  0.00    +0.000 A 
ATOM      7  C   UNL     1      46.403   5.847  12.596  0.00  0.00    +0.000 A 
ATOM      8  C   UNL     1      47.438   5.821  13.544  0.00  0.00    +0.000 A 
BRANCH   3  10
ATOM      9  N   UNL     1      48.877   6.208  16.156  0.00  0.00    +0.000 N 
ATOM     10  C   UNL     1      49.067   6.962  15.033  0.00  0.00    +0.000 C 
ATOM     11  O   UNL     1      50.122   7.552  14.842  0.00  0.00    +0.000 OA
ATOM     12  H   UNL     1      49.674   6.111  16.769  0.00  0.00    +0.000 HD
ATOM     13  H   UNL     1      48.136   5.526  16.235  0.00  0.00    +0.000 HD
ENDBRANCH   3  10
ENDBRANCH   1   6
BRANCH   1  14
ATOM     14  C   UNL     1      43.659   6.331  11.293  0.00  0.00    +0.000 C 
BRANCH  14  15
ATOM     15  C   UNL     1      43.787   4.880  10.911  0.00  0.00    +0.000 A 
ATOM     16  C   UNL     1      43.105   3.880  11.598  0.00  0.00    +0.000 A 
ATOM     17  C   UNL     1      43.273   2.570  11.180  0.00  0.00    +0.000 A 
ATOM     18  N   UNL     1      44.063   2.194  10.147  0.00  0.00    +0.000 NA
ATOM     19  C   UNL     1      44.707   3.161   9.465  0.00  0.00    +0.000 A 
ATOM     20  N   UNL     1      45.579   2.844   8.428  0.00  0.00    +0.000 N 
ATOM     21  C   UNL     1      46.091   1.469   8.386  0.00  0.00    +0.000 C 
ATOM     22  C   UNL     1      47.311   1.471   7.444  0.00  0.00    +0.000 C 
ATOM     23  O   UNL     1      46.963   1.935   6.123  0.00  0.00    +0.000 OA
ATOM     24  C   UNL     1      46.397   3.259   6.178  0.00  0.00    +0.000 C 
ATOM     25  C   UNL     1      45.162   3.305   7.093  0.00  0.00    +0.000 C 
ATOM     26  C   UNL     1      44.583   4.505   9.825  0.00  0.00    +0.000 A 
ENDBRANCH  14  15
ENDBRANCH   1  14
TORSDOF 4
ENDMDL
MODEL 6
REMARK VINA RESULT:    -6.226      3.371      5.342
REMARK INTER + INTRA:          -8.454
REMARK INTER:                  -7.787
REMARK INTRA:                  -0.668
REMARK UNBOUND:                -0.773
REMARK  Name = 
REMARK  4 active torsions:
REMARK  status: ('A' for Active; 'I' for Inactive)
REMARK    1  A    between atoms: C_2  and  C_4
REMARK    2  A    between atoms: C_7  and  N_8
REMARK    3  A    between atoms: N_8  and  C_9
REMARK    4  A    between atoms: C_9  and  C_10
REMARK                            x       y       z     vdW  Elec       q    Type
REMARK                         _______ _______ _______ _____ _____    ______ ____
ROOT
ATOM      1  N   UNL     1      46.063   7.810  12.760  0.00  0.00    +0.000 N 
ATOM      2  H   UNL     1      45.606   8.266  13.546  0.00  0.00    +0.000 HD
ENDROOT
BRANCH   1   6
ATOM      3  C   UNL     1      44.427   4.139  11.470  0.00  0.00    +0.000 A 
ATOM      4  C   UNL     1      44.406   4.464  12.827  0.00  0.00    +0.000 A 
ATOM      5  C   UNL     1      44.927   5.688  13.262  0.00  0.00    +0.000 A 
ATOM      6  C   UNL     1      45.449   6.625  12.362  0.00  0.00    +0.000 A 
ATOM      7  C   UNL     1      45.477   6.274  11.004  0.00  0.00    +0.000 A 
ATOM      8  C   UNL     1      44.974   5.042  10.558  0.00  0.00    +0.000 A 
BRANCH   3  10
ATOM      9  N   UNL     1      44.584   2.251   9.935  0.00  0.00    +0.000 N 
ATOM     10  C   UNL     1      43.920   2.831  10.977  0.00  0.00    +0.000 C 
ATOM     11  O   UNL     1      42.959   2.279  11.497  0.00  0.00    +0.000 OA
ATOM     12  H   UNL     1      44.283   1.323   9.674  0.00  0.00    +0.000 HD
ATOM     13  H   UNL     1      45.505   2.546   9.644  0.00  0.00    +0.000 HD
ENDBRANCH   3  10
ENDBRANCH   1   6
BRANCH   1  14
ATOM     14  C   UNL     1      47.514   7.932  12.749  0.00  0.00    +0.000 C 
BRANCH  14  15
ATOM     15  C   UNL     1      48.065   7.833  14.147  0.00  0.00    +0.000 A 
ATOM     16  C   UNL     1      48.353   8.967  14.901  0.00  0.00    +0.000 A 
ATOM     17  C   UNL     1      48.852   8.789  16.181  0.00  0.00    +0.000 A 
ATOM     18  N   UNL     1      49.085   7.584  16.750  0.00  0.00    +0.000 NA
ATOM     19  C   UNL     1      48.786   6.483  16.031  0.00  0.00    +0.000 A 
ATOM     20  N   UNL     1      49.050   5.211  16.530  0.00  0.00    +0.000 N 
ATOM     21  C   UNL     1      50.022   5.115  17.626  0.00  0.00    +0.000 C 
ATOM     22  C   UNL     1      50.449   3.637  17.719  0.00  0.00    +0.000 C 
ATOM     23  O   UNL     1      49.320   2.770  17.951  0.00  0.00    +0.000 OA
ATOM     24  C   UNL     1      48.338   2.920  16.907  0.00  0.00    +0.000 C 
ATOM     25  C   UNL     1      47.864   4.377  16.786  0.00  0.00    +0.000 C 
ATOM     26  C   UNL     1      48.275   6.583  14.735  0.00  0.00    +0.000 A 
ENDBRANCH  14  15
ENDBRANCH   1  14
TORSDOF 4
ENDMDL
MODEL 7
REMARK VINA RESULT:    -5.866      3.294      4.809
REMARK INTER + INTRA:          -8.010
REMARK INTER:                  -7.355
REMARK INTRA:                  -0.655
REMARK UNBOUND:                -0.773
REMARK  Name = 
REMARK  4 active torsions:
REMARK  status: ('A' for Active; 'I' for Inactive)
REMARK    1  A    between atoms: C_2  and  C_4
REMARK    2  A    between atoms: C_7  and  N_8
REMARK    3  A    between atoms: N_8  and  C_9
REMARK    4  A    between atoms: C_9  and  C_10
REMARK                            x       y       z     vdW  Elec       q    Type
REMARK                         _______ _______ _______ _____ _____    ______ ____
ROOT
ATOM      1  N   UNL     1      45.207   7.976  12.959  0.00  0.00    +0.000 N 
ATOM      2  H   UNL     1      45.246   8.121  13.965  0.00  0.00    +0.000 HD
ENDROOT
BRANCH   1   6
ATOM      3  C   UNL     1      44.163   4.109  11.627  0.00  0.00    +0.000 A 
ATOM      4  C   UNL     1      44.936   4.256  12.779  0.00  0.00    +0.000 A 
ATOM      5  C   UNL     1      45.269   5.533  13.241  0.00  0.00    +0.000 A 
ATOM      6  C   UNL     1      44.820   6.689  12.591  0.00  0.00    +0.000 A 
ATOM      7  C   UNL     1      44.060   6.523  11.424  0.00  0.00    +0.000 A 
ATOM      8  C   UNL     1      43.734   5.245  10.941  0.00  0.00    +0.000 A 
BRANCH   3  10
ATOM      9  N   UNL     1      44.582   2.296  10.050  0.00  0.00    +0.000 N 
ATOM     10  C   UNL     1      43.825   2.766  11.084  0.00  0.00    +0.000 C 
ATOM     11  O   UNL     1      42.919   2.094  11.558  0.00  0.00    +0.000 OA
ATOM     12  H   UNL     1      44.398   1.348   9.756  0.00  0.00    +0.000 HD
ATOM     13  H   UNL     1      45.472   2.703   9.797  0.00  0.00    +0.000 HD
ENDBRANCH   3  10
ENDBRANCH   1   6
BRANCH   1  14
ATOM     14  C   UNL     1      46.230   8.687  12.204  0.00  0.00    +0.000 C 
BRANCH  14  15
ATOM     15  C   UNL     1      47.605   8.283  12.666  0.00  0.00    +0.000 A 
ATOM     16  C   UNL     1      48.660   8.129  11.771  0.00  0.00    +0.000 A 
ATOM     17  C   UNL     1      49.896   7.761  12.277  0.00  0.00    +0.000 A 
ATOM     18  N   UNL     1      50.148   7.534  13.587  0.00  0.00    +0.000 NA
ATOM     19  C   UNL     1      49.135   7.704  14.459  0.00  0.00    +0.000 A 
ATOM     20  N   UNL     1      49.306   7.436  15.814  0.00  0.00    +0.000 N 
ATOM     21  C   UNL     1      50.441   6.582  16.185  0.00  0.00    +0.000 C 
ATOM     22  C   UNL     1      50.189   6.099  17.627  0.00  0.00    +0.000 C 
ATOM     23  O   UNL     1      50.052   7.206  18.543  0.00  0.00    +0.000 OA
ATOM     24  C   UNL     1      48.980   8.078  18.134  0.00  0.00    +0.000 C 
ATOM     25  C   UNL     1      49.195   8.603  16.706  0.00  0.00    +0.000 C 
ATOM     26  C   UNL     1      47.862   8.079  14.025  0.00  0.00    +0.000 A 
ENDBRANCH  14  15
ENDBRANCH   1  14
TORSDOF 4
ENDMDL
