MODEL 1
REMARK VINA RESULT:    -8.195      0.000      0.000
REMARK INTER + INTRA:         -12.060
REMARK INTER:                 -11.070
REMARK INTRA:                  -0.990
REMARK UNBOUND:                -0.990
REMARK  Name = 
REMARK  7 active torsions:
REMARK  status: ('A' for Active; 'I' for Inactive)
REMARK    1  A    between atoms: C_1  and  C_2
REMARK    2  A    between atoms: C_2  and  N_3
REMARK    3  A    between atoms: C_2  and  C_16
REMARK    4  A    between atoms: C_4  and  C_6
REMARK    5  A    between atoms: C_19  and  C_20
REMARK    6  A    between atoms: C_20  and  N_21
REMARK    7  A    between atoms: C_22  and  C_24
REMARK                            x       y       z     vdW  Elec       q    Type
REMARK                         _______ _______ _______ _____ _____    ______ ____
ROOT
ATOM      1  C   UNL     1      47.852   8.876  13.064  0.00  0.00    +0.000 C 
ATOM      2  C   UNL     1      47.983   7.422  13.546  0.00  0.00    +0.000 C 
ENDROOT
BRANCH   2   3
ATOM      3  C   UNL     1      46.922   6.560  12.871  0.00  0.00    +0.000 A 
ATOM      4  C   UNL     1      46.606   5.291  13.376  0.00  0.00    +0.000 A 
ATOM      5  C   UNL     1      45.710   4.452  12.699  0.00  0.00    +0.000 A 
ATOM      6  C   UNL     1      45.119   4.861  11.495  0.00  0.00    +0.000 A 
ATOM      7  C   UNL     1      45.379   6.154  11.027  0.00  0.00    +0.000 A 
ATOM      8  C   UNL     1      46.269   6.992  11.705  0.00  0.00    +0.000 A 
BRANCH   6   9
ATOM      9  C   UNL     1      44.230   3.931  10.710  0.00  0.00    +0.000 C 
BRANCH   9  10
ATOM     10  N   UNL     1      44.991   3.005   9.910  0.00  0.00    +0.000 N 
ATOM     11  C   UNL     1      45.402   3.335   8.640  0.00  0.00    +0.000 C 
ATOM     12  O   UNL     1      45.113   4.403   8.109  0.00  0.00    +0.000 OA
ATOM     13  H   UNL     1      45.317   2.156  10.348  0.00  0.00    +0.000 HD
BRANCH  11  14
ATOM     14  C   UNL     1      46.202   2.341   7.975  0.00  0.00    +0.000 A 
ATOM     15  C   UNL     1      47.226   2.419   7.050  0.00  0.00    +0.000 A 
ATOM     16  N   UNL     1      47.677   1.173   6.695  0.00  0.00    +0.000 NA
ATOM     17  C   UNL     1      46.951   0.332   7.392  0.00  0.00    +0.000 A 
ATOM     18  N   UNL     1      46.055   0.988   8.186  0.00  0.00    +0.000 N 
ATOM     19  H   UNL     1      45.389   0.566   8.821  0.00  0.00    +0.000 HD
ENDBRANCH  11  14
ENDBRANCH   9  10
ENDBRANCH   6   9
ENDBRANCH   2   3
BRANCH   2  20
ATOM     20  N   UNL     1      47.886   7.301  14.994  0.00  0.00    +0.000 N 
ATOM     21  C   UNL     1      48.954   6.916  15.769  0.00  0.00    +0.000 C 
ATOM     22  O   UNL     1      50.071   6.707  15.302  0.00  0.00    +0.000 OA
ATOM     23  H   UNL     1      46.953   7.158  15.371  0.00  0.00    +0.000 HD
BRANCH  21  24
ATOM     24  C   UNL     1      48.722   6.819  17.213  0.00  0.00    +0.000 A 
ATOM     25  C   UNL     1      48.489   7.974  17.947  0.00  0.00    +0.000 A 
ATOM     26  S   UNL     1      48.263   7.691  19.613  0.00  0.00    +0.000 S 
ATOM     27  C   UNL     1      48.512   6.019  19.417  0.00  0.00    +0.000 A 
ATOM     28  N   UNL     1      48.506   5.181  20.487  0.00  0.00    +0.000 NA
ATOM     29  C   UNL     1      48.747   3.947  20.198  0.00  0.00    +0.000 A 
ATOM     30  N   UNL     1      48.971   3.470  18.930  0.00  0.00    +0.000 N 
ATOM     31  C   UNL     1      48.936   4.272  17.813  0.00  0.00    +0.000 A 
ATOM     32  O   UNL     1      49.055   3.809  16.684  0.00  0.00    +0.000 OA
ATOM     33  C   UNL     1      48.719   5.678  18.093  0.00  0.00    +0.000 A 
ATOM     34  H   UNL     1      49.126   2.486  18.770  0.00  0.00    +0.000 HD
ENDBRANCH  21  24
ENDBRANCH   2  20
TORSDOF 6
ENDMDL
MODEL 2
REMARK VINA RESULT:    -7.635      2.612      4.268
REMARK INTER + INTRA:         -11.304
REMARK INTER:                 -10.301
REMARK INTRA:                  -1.002
REMARK UNBOUND:                -0.990
REMARK  Name = 
REMARK  7 active torsions:
REMARK  status: ('A' for Active; 'I' for Inactive)
REMARK    1  A    between atoms: C_1  and  C_2
REMARK    2  A    between atoms: C_2  and  N_3
REMARK    3  A    between atoms: C_2  and  C_16
REMARK    4  A    between atoms: C_4  and  C_6
REMARK    5  A    between atoms: C_19  and  C_20
REMARK    6  A    between atoms: C_20  and  N_21
REMARK    7  A    between atoms: C_22  and  C_24
REMARK                            x       y       z     vdW  Elec       q    Type
REMARK                         _______ _______ _______ _____ _____    ______ ____
ROOT
ATOM      1  C   UNL     1      47.528   3.551  15.295  0.00  0.00    +0.000 C 
ATOM      2  C   UNL     1      46.892   4.882  14.860  0.00  0.00    +0.000 C 
ENDROOT
BRANCH   2   3
ATOM      3  C   UNL     1      46.033   4.659  13.620  0.00  0.00    +0.000 A 
ATOM      4  C   UNL     1      45.943   3.389  13.033  0.00  0.00    +0.000 A 
ATOM      5  C   UNL     1      45.243   3.202  11.833  0.00  0.00    +0.000 A 
ATOM      6  C   UNL     1      44.625   4.284  11.190  0.00  0.00    +0.000 A 
ATOM      7  C   UNL     1      44.655   5.537  11.811  0.00  0.00    +0.000 A 
ATOM      8  C   UNL     1      45.350   5.723  13.009  0.00  0.00    +0.000 A 
BRANCH   6   9
ATOM      9  C   UNL     1      43.951   4.111   9.852  0.00  0.00    +0.000 C 
BRANCH   9  10
ATOM     10  N   UNL     1      44.759   3.346   8.936  0.00  0.00    +0.000 N 
ATOM     11  C   UNL     1      45.775   3.938   8.222  0.00  0.00    +0.000 C 
ATOM     12  O   UNL     1      46.020   5.139   8.292  0.00  0.00    +0.000 OA
ATOM     13  H   UNL     1      44.640   2.344   8.921  0.00  0.00    +0.000 HD
BRANCH  11  14
ATOM     14  C   UNL     1      46.538   3.049   7.387  0.00  0.00    +0.000 A 
ATOM     15  C   UNL     1      46.904   1.722   7.509  0.00  0.00    +0.000 A 
ATOM     16  N   UNL     1      47.659   1.309   6.441  0.00  0.00    +0.000 NA
ATOM     17  C   UNL     1      47.758   2.360   5.662  0.00  0.00    +0.000 A 
ATOM     18  N   UNL     1      47.090   3.430   6.184  0.00  0.00    +0.000 N 
ATOM     19  H   UNL     1      47.010   4.351   5.772  0.00  0.00    +0.000 HD
ENDBRANCH  11  14
ENDBRANCH   9  10
ENDBRANCH   6   9
ENDBRANCH   2   3
BRANCH   2  20
ATOM     20  N   UNL     1      47.883   5.919  14.609  0.00  0.00    +0.000 N 
ATOM     21  C   UNL     1      48.619   6.487  15.622  0.00  0.00    +0.000 C 
ATOM     22  O   UNL     1      48.535   6.118  16.790  0.00  0.00    +0.000 OA
ATOM     23  H   UNL     1      47.765   6.454  13.753  0.00  0.00    +0.000 HD
BRANCH  21  24
ATOM     24  C   UNL     1      49.574   7.531  15.240  0.00  0.00    +0.000 A 
ATOM     25  C   UNL     1      50.909   7.401  15.597  0.00  0.00    +0.000 A 
ATOM     26  S   UNL     1      51.881   8.711  15.099  0.00  0.00    +0.000 S 
ATOM     27  C   UNL     1      50.542   9.517  14.424  0.00  0.00    +0.000 A 
ATOM     28  N   UNL     1      50.675  10.749  13.867  0.00  0.00    +0.000 NA
ATOM     29  C   UNL     1      49.573  11.258  13.431  0.00  0.00    +0.000 A 
ATOM     30  N   UNL     1      48.350  10.635  13.481  0.00  0.00    +0.000 N 
ATOM     31  C   UNL     1      48.177   9.369  13.990  0.00  0.00    +0.000 A 
ATOM     32  O   UNL     1      47.091   8.800  13.946  0.00  0.00    +0.000 OA
ATOM     33  C   UNL     1      49.380   8.775  14.539  0.00  0.00    +0.000 A 
ATOM     34  H   UNL     1      47.530  11.079  13.096  0.00  0.00    +0.000 HD
ENDBRANCH  21  24
ENDBRANCH   2  20
TORSDOF 6
ENDMDL
MODEL 3
REMARK VINA RESULT:    -7.633      1.392      2.240
REMARK INTER + INTRA:         -11.301
REMARK INTER:                 -10.166
REMARK INTRA:                  -1.135
REMARK UNBOUND:                -0.990
REMARK  Name = 
REMARK  7 active torsions:
REMARK  status: ('A' for Active; 'I' for Inactive)
REMARK    1  A    between atoms: C_1  and  C_2
REMARK    2  A    between atoms: C_2  and  N_3
REMARK    3  A    between atoms: C_2  and  C_16
REMARK    4  A    between atoms: C_4  and  C_6
REMARK    5  A    between atoms: C_19  and  C_20
REMARK    6  A    between atoms: C_20  and  N_21
REMARK    7  A    between atoms: C_22  and  C_24
REMARK                            x       y       z     vdW  Elec       q    Type
REMARK                         _______ _______ _______ _____ _____    ______ ____
ROOT
ATOM      1  C   UNL     1      47.484   8.914  13.922  0.00  0.00    +0.000 C 
ATOM      2  C   UNL     1      47.991   7.466  14.027  0.00  0.00    +0.000 C 
ENDROOT
BRANCH   2   3
ATOM      3  C   UNL     1      47.160   6.564  13.122  0.00  0.00    +0.000 A 
ATOM      4  C   UNL     1      46.674   7.036  11.895  0.00  0.00    +0.000 A 
ATOM      5  C   UNL     1      45.821   6.249  11.109  0.00  0.00    +0.000 A 
ATOM      6  C   UNL     1      45.427   4.974  11.541  0.00  0.00    +0.000 A 
ATOM      7  C   UNL     1      45.966   4.474  12.731  0.00  0.00    +0.000 A 
ATOM      8  C   UNL     1      46.821   5.258  13.511  0.00  0.00    +0.000 A 
BRANCH   6   9
ATOM      9  C   UNL     1      44.435   4.159  10.751  0.00  0.00    +0.000 C 
BRANCH   9  10
ATOM     10  N   UNL     1      45.083   3.164   9.934  0.00  0.00    +0.000 N 
ATOM     11  C   UNL     1      45.507   3.460   8.660  0.00  0.00    +0.000 C 
ATOM     12  O   UNL     1      45.324   4.557   8.140  0.00  0.00    +0.000 OA
ATOM     13  H   UNL     1      45.325   2.283  10.362  0.00  0.00    +0.000 HD
BRANCH  11  14
ATOM     14  C   UNL     1      46.189   2.393   7.976  0.00  0.00    +0.000 A 
ATOM     15  C   UNL     1      46.170   1.019   8.116  0.00  0.00    +0.000 A 
ATOM     16  N   UNL     1      47.017   0.411   7.224  0.00  0.00    +0.000 NA
ATOM     17  C   UNL     1      47.550   1.391   6.534  0.00  0.00    +0.000 A 
ATOM     18  N   UNL     1      47.076   2.603   6.943  0.00  0.00    +0.000 N 
ATOM     19  H   UNL     1      47.326   3.509   6.565  0.00  0.00    +0.000 HD
ENDBRANCH  11  14
ENDBRANCH   9  10
ENDBRANCH   6   9
ENDBRANCH   2   3
BRANCH   2  20
ATOM     20  N   UNL     1      47.975   6.965  15.393  0.00  0.00    +0.000 N 
ATOM     21  C   UNL     1      49.109   6.498  16.016  0.00  0.00    +0.000 C 
ATOM     22  O   UNL     1      50.216   6.529  15.485  0.00  0.00    +0.000 OA
ATOM     23  H   UNL     1      47.077   6.637  15.741  0.00  0.00    +0.000 HD
BRANCH  21  24
ATOM     24  C   UNL     1      48.956   6.008  17.388  0.00  0.00    +0.000 A 
ATOM     25  C   UNL     1      49.265   4.686  17.681  0.00  0.00    +0.000 A 
ATOM     26  S   UNL     1      49.010   4.269  19.314  0.00  0.00    +0.000 S 
ATOM     27  C   UNL     1      48.437   5.831  19.678  0.00  0.00    +0.000 A 
ATOM     28  N   UNL     1      47.990   6.139  20.924  0.00  0.00    +0.000 NA
ATOM     29  C   UNL     1      47.549   7.345  21.048  0.00  0.00    +0.000 A 
ATOM     30  N   UNL     1      47.535   8.279  20.042  0.00  0.00    +0.000 N 
ATOM     31  C   UNL     1      48.022   8.028  18.781  0.00  0.00    +0.000 A 
ATOM     32  O   UNL     1      48.077   8.904  17.924  0.00  0.00    +0.000 OA
ATOM     33  C   UNL     1      48.484   6.669  18.578  0.00  0.00    +0.000 A 
ATOM     34  H   UNL     1      47.200   9.215  20.214  0.00  0.00    +0.000 HD
ENDBRANCH  21  24
ENDBRANCH   2  20
TORSDOF 6
ENDMDL
MODEL 4
REMARK VINA RESULT:    -7.272      3.554      8.485
REMARK INTER + INTRA:         -10.813
REMARK INTER:                  -9.848
REMARK INTRA:                  -0.966
REMARK UNBOUND:                -0.990
REMARK  Name = 
REMARK  7 active torsions:
REMARK  status: ('A' for Active; 'I' for Inactive)
REMARK    1  A    between atoms: C_1  and  C_2
REMARK    2  A    between atoms: C_2  and  N_3
REMARK    3  A    between atoms: C_2  and  C_16
REMARK    4  A    between atoms: C_4  and  C_6
REMARK    5  A    between atoms: C_19  and  C_20
REMARK    6  A    between atoms: C_20  and  N_21
REMARK    7  A    between atoms: C_22  and  C_24
REMARK                            x       y       z     vdW  Elec       q    Type
REMARK                         _______ _______ _______ _____ _____    ______ ____
ROOT
ATOM      1  C   UNL     1      49.476   7.390  13.053  0.00  0.00    +0.000 C 
ATOM      2  C   UNL     1      48.122   6.911  13.602  0.00  0.00    +0.000 C 
ENDROOT
BRANCH   2   3
ATOM      3  C   UNL     1      48.327   6.232  14.951  0.00  0.00    +0.000 A 
ATOM      4  C   UNL     1      49.371   6.630  15.799  0.00  0.00    +0.000 A 
ATOM      5  C   UNL     1      49.630   5.938  16.991  0.00  0.00    +0.000 A 
ATOM      6  C   UNL     1      48.855   4.828  17.356  0.00  0.00    +0.000 A 
ATOM      7  C   UNL     1      47.770   4.474  16.546  0.00  0.00    +0.000 A 
ATOM      8  C   UNL     1      47.509   5.166  15.360  0.00  0.00    +0.000 A 
BRANCH   6   9
ATOM      9  C   UNL     1      49.184   4.021  18.585  0.00  0.00    +0.000 C 
BRANCH   9  10
ATOM     10  N   UNL     1      50.465   3.371  18.476  0.00  0.00    +0.000 N 
ATOM     11  C   UNL     1      50.652   2.311  17.621  0.00  0.00    +0.000 C 
ATOM     12  O   UNL     1      49.744   1.839  16.943  0.00  0.00    +0.000 OA
ATOM     13  H   UNL     1      51.251   3.787  18.953  0.00  0.00    +0.000 HD
BRANCH  11  14
ATOM     14  C   UNL     1      51.994   1.792  17.568  0.00  0.00    +0.000 A 
ATOM     15  C   UNL     1      53.220   2.308  17.942  0.00  0.00    +0.000 A 
ATOM     16  N   UNL     1      54.237   1.425  17.680  0.00  0.00    +0.000 NA
ATOM     17  C   UNL     1      53.654   0.373  17.158  0.00  0.00    +0.000 A 
ATOM     18  N   UNL     1      52.301   0.541  17.079  0.00  0.00    +0.000 N 
ATOM     19  H   UNL     1      51.629  -0.126  16.721  0.00  0.00    +0.000 HD
ENDBRANCH  11  14
ENDBRANCH   9  10
ENDBRANCH   6   9
ENDBRANCH   2   3
BRANCH   2  20
ATOM     20  N   UNL     1      47.433   6.015  12.685  0.00  0.00    +0.000 N 
ATOM     21  C   UNL     1      46.408   6.445  11.874  0.00  0.00    +0.000 C 
ATOM     22  O   UNL     1      46.050   7.618  11.825  0.00  0.00    +0.000 OA
ATOM     23  H   UNL     1      47.473   5.024  12.909  0.00  0.00    +0.000 HD
BRANCH  21  24
ATOM     24  C   UNL     1      45.787   5.441  11.006  0.00  0.00    +0.000 A 
ATOM     25  C   UNL     1      45.886   5.572   9.627  0.00  0.00    +0.000 A 
ATOM     26  S   UNL     1      45.090   4.337   8.763  0.00  0.00    +0.000 S 
ATOM     27  C   UNL     1      44.548   3.607  10.202  0.00  0.00    +0.000 A 
ATOM     28  N   UNL     1      43.749   2.508  10.171  0.00  0.00    +0.000 NA
ATOM     29  C   UNL     1      43.382   2.084  11.333  0.00  0.00    +0.000 A 
ATOM     30  N   UNL     1      43.761   2.647  12.526  0.00  0.00    +0.000 N 
ATOM     31  C   UNL     1      44.607   3.727  12.608  0.00  0.00    +0.000 A 
ATOM     32  O   UNL     1      44.999   4.159  13.687  0.00  0.00    +0.000 OA
ATOM     33  C   UNL     1      45.008   4.272  11.325  0.00  0.00    +0.000 A 
ATOM     34  H   UNL     1      43.459   2.247  13.402  0.00  0.00    +0.000 HD
ENDBRANCH  21  24
ENDBRANCH   2  20
TORSDOF 6
ENDMDL
MODEL 5
REMARK VINA RESULT:    -7.107      3.020      8.737
REMARK INTER + INTRA:         -10.590
REMARK INTER:                  -9.509
REMARK INTRA:                  -1.081
REMARK UNBOUND:                -0.990
REMARK  Name = 
REMARK  7 active torsions:
REMARK  status: ('A' for Active; 'I' for Inactive)
REMARK    1  A    between atoms: C_1  and  C_2
REMARK    2  A    between atoms: C_2  and  N_3
REMARK    3  A    between atoms: C_2  and  C_16
REMARK    4  A    between atoms: C_4  and  C_6
REMARK    5  A    between atoms: C_19  and  C_20
REMARK    6  A    between atoms: C_20  and  N_21
REMARK    7  A    between atoms: C_22  and  C_24
REMARK                            x       y       z     vdW  Elec       q    Type
REMARK                         _______ _______ _______ _____ _____    ______ ____
ROOT
ATOM      1  C   UNL     1      49.157   7.812  11.343  0.00  0.00    +0.000 C 
ATOM      2  C   UNL     1      48.102   7.568  12.435  0.00  0.00    +0.000 C 
ENDROOT
BRANCH   2   3
ATOM      3  C   UNL     1      48.791   7.393  13.784  0.00  0.00    +0.000 A 
ATOM      4  C   UNL     1      50.095   7.867  13.986  0.00  0.00    +0.000 A 
ATOM      5  C   UNL     1      50.772   7.615  15.187  0.00  0.00    +0.000 A 
ATOM      6  C   UNL     1      50.162   6.875  16.210  0.00  0.00    +0.000 A 
ATOM      7  C   UNL     1      48.835   6.463  16.037  0.00  0.00    +0.000 A 
ATOM      8  C   UNL     1      48.159   6.718  14.841  0.00  0.00    +0.000 A 
BRANCH   6   9
ATOM      9  C   UNL     1      50.914   6.517  17.466  0.00  0.00    +0.000 C 
BRANCH   9  10
ATOM     10  N   UNL     1      51.478   5.192  17.398  0.00  0.00    +0.000 N 
ATOM     11  C   UNL     1      50.849   4.123  17.991  0.00  0.00    +0.000 C 
ATOM     12  O   UNL     1      49.812   4.241  18.637  0.00  0.00    +0.000 OA
ATOM     13  H   UNL     1      52.281   5.048  16.804  0.00  0.00    +0.000 HD
BRANCH  11  14
ATOM     14  C   UNL     1      51.490   2.849  17.798  0.00  0.00    +0.000 A 
ATOM     15  C   UNL     1      51.062   1.649  17.263  0.00  0.00    +0.000 A 
ATOM     16  N   UNL     1      52.049   0.698  17.308  0.00  0.00    +0.000 NA
ATOM     17  C   UNL     1      53.079   1.297  17.857  0.00  0.00    +0.000 A 
ATOM     18  N   UNL     1      52.795   2.597  18.161  0.00  0.00    +0.000 N 
ATOM     19  H   UNL     1      53.422   3.270  18.584  0.00  0.00    +0.000 HD
ENDBRANCH  11  14
ENDBRANCH   9  10
ENDBRANCH   6   9
ENDBRANCH   2   3
BRANCH   2  20
ATOM     20  N   UNL     1      47.255   6.419  12.148  0.00  0.00    +0.000 N 
ATOM     21  C   UNL     1      45.883   6.493  12.190  0.00  0.00    +0.000 C 
ATOM     22  O   UNL     1      45.282   7.541  12.412  0.00  0.00    +0.000 OA
ATOM     23  H   UNL     1      47.683   5.505  12.270  0.00  0.00    +0.000 HD
BRANCH  21  24
ATOM     24  C   UNL     1      45.145   5.262  11.894  0.00  0.00    +0.000 A 
ATOM     25  C   UNL     1      44.461   4.613  12.913  0.00  0.00    +0.000 A 
ATOM     26  S   UNL     1      43.676   3.185  12.409  0.00  0.00    +0.000 S 
ATOM     27  C   UNL     1      44.260   3.363  10.820  0.00  0.00    +0.000 A 
ATOM     28  N   UNL     1      43.994   2.429   9.869  0.00  0.00    +0.000 NA
ATOM     29  C   UNL     1      44.531   2.671   8.721  0.00  0.00    +0.000 A 
ATOM     30  N   UNL     1      45.292   3.776   8.431  0.00  0.00    +0.000 N 
ATOM     31  C   UNL     1      45.545   4.770   9.346  0.00  0.00    +0.000 A 
ATOM     32  O   UNL     1      46.156   5.788   9.039  0.00  0.00    +0.000 OA
ATOM     33  C   UNL     1      45.004   4.519  10.668  0.00  0.00    +0.000 A 
ATOM     34  H   UNL     1      45.660   3.917   7.503  0.00  0.00    +0.000 HD
ENDBRANCH  21  24
ENDBRANCH   2  20
TORSDOF 6
ENDMDL
MODEL 6
REMARK VINA RESULT:    -7.107      4.414      9.249
REMARK INTER + INTRA:         -10.589
REMARK INTER:                  -9.403
REMARK INTRA:                  -1.187
REMARK UNBOUND:                -0.990
REMARK  Name = 
REMARK  7 active torsions:
REMARK  status: ('A' for Active; 'I' for Inactive)
REMARK    1  A    between atoms: C_1  and  C_2
REMARK    2  A    between atoms: C_2  and  N_3
REMARK    3  A    between atoms: C_2  and  C_16
REMARK    4  A    between atoms: C_4  and  C_6
REMARK    5  A    between atoms: C_19  and  C_20
REMARK    6  A    between atoms: C_20  and  N_21
REMARK    7  A    between atoms: C_22  and  C_24
REMARK                            x       y       z     vdW  Elec       q    Type
REMARK                         _______ _______ _______ _____ _____    ______ ____
ROOT
ATOM      1  C   UNL     1      47.062   5.159  18.526  0.00  0.00    +0.000 C 
ATOM      2  C   UNL     1      47.525   4.367  17.292  0.00  0.00    +0.000 C 
ENDROOT
BRANCH   2   3
ATOM      3  C   UNL     1      48.936   3.839  17.521  0.00  0.00    +0.000 A 
ATOM      4  C   UNL     1      49.937   4.675  18.036  0.00  0.00    +0.000 A 
ATOM      5  C   UNL     1      51.260   4.226  18.148  0.00  0.00    +0.000 A 
ATOM      6  C   UNL     1      51.613   2.932  17.737  0.00  0.00    +0.000 A 
ATOM      7  C   UNL     1      50.603   2.074  17.288  0.00  0.00    +0.000 A 
ATOM      8  C   UNL     1      49.283   2.521  17.181  0.00  0.00    +0.000 A 
BRANCH   6   9
ATOM      9  C   UNL     1      53.048   2.473  17.764  0.00  0.00    +0.000 C 
BRANCH   9  10
ATOM     10  N   UNL     1      53.200   1.216  18.453  0.00  0.00    +0.000 N 
ATOM     11  C   UNL     1      53.757   0.127  17.826  0.00  0.00    +0.000 C 
ATOM     12  O   UNL     1      54.113   0.150  16.652  0.00  0.00    +0.000 OA
ATOM     13  H   UNL     1      52.997   1.189  19.441  0.00  0.00    +0.000 HD
BRANCH  11  14
ATOM     14  C   UNL     1      53.901  -1.047  18.647  0.00  0.00    +0.000 A 
ATOM     15  C   UNL     1      54.999  -1.706  19.166  0.00  0.00    +0.000 A 
ATOM     16  N   UNL     1      54.626  -2.809  19.891  0.00  0.00    +0.000 NA
ATOM     17  C   UNL     1      53.316  -2.834  19.831  0.00  0.00    +0.000 A 
ATOM     18  N   UNL     1      52.832  -1.787  19.101  0.00  0.00    +0.000 N 
ATOM     19  H   UNL     1      51.859  -1.580  18.913  0.00  0.00    +0.000 HD
ENDBRANCH  11  14
ENDBRANCH   9  10
ENDBRANCH   6   9
ENDBRANCH   2   3
BRANCH   2  20
ATOM     20  N   UNL     1      47.473   5.156  16.070  0.00  0.00    +0.000 N 
ATOM     21  C   UNL     1      47.217   4.590  14.843  0.00  0.00    +0.000 C 
ATOM     22  O   UNL     1      46.957   3.398  14.705  0.00  0.00    +0.000 OA
ATOM     23  H   UNL     1      47.972   6.042  16.085  0.00  0.00    +0.000 HD
BRANCH  21  24
ATOM     24  C   UNL     1      47.206   5.491  13.687  0.00  0.00    +0.000 A 
ATOM     25  C   UNL     1      46.195   5.380  12.742  0.00  0.00    +0.000 A 
ATOM     26  S   UNL     1      46.341   6.483  11.451  0.00  0.00    +0.000 S 
ATOM     27  C   UNL     1      47.785   7.121  12.090  0.00  0.00    +0.000 A 
ATOM     28  N   UNL     1      48.475   8.087  11.429  0.00  0.00    +0.000 NA
ATOM     29  C   UNL     1      49.570   8.449  12.007  0.00  0.00    +0.000 A 
ATOM     30  N   UNL     1      50.027   7.946  13.200  0.00  0.00    +0.000 N 
ATOM     31  C   UNL     1      49.338   7.005  13.928  0.00  0.00    +0.000 A 
ATOM     32  O   UNL     1      49.724   6.634  15.031  0.00  0.00    +0.000 OA
ATOM     33  C   UNL     1      48.124   6.530  13.293  0.00  0.00    +0.000 A 
ATOM     34  H   UNL     1      50.880   8.294  13.612  0.00  0.00    +0.000 HD
ENDBRANCH  21  24
ENDBRANCH   2  20
TORSDOF 6
ENDMDL
MODEL 7
REMARK VINA RESULT:    -6.978      4.409      9.408
REMARK INTER + INTRA:         -10.415
REMARK INTER:                  -9.955
REMARK INTRA:                  -0.461
REMARK UNBOUND:                -0.990
REMARK  Name = 
REMARK  7 active torsions:
REMARK  status: ('A' for Active; 'I' for Inactive)
REMARK    1  A    between atoms: C_1  and  C_2
REMARK    2  A    between atoms: C_2  and  N_3
REMARK    3  A    between atoms: C_2  and  C_16
REMARK    4  A    between atoms: C_4  and  C_6
REMARK    5  A    between atoms: C_19  and  C_20
REMARK    6  A    between atoms: C_20  and  N_21
REMARK    7  A    between atoms: C_22  and  C_24
REMARK                            x       y       z     vdW  Elec       q    Type
REMARK                         _______ _______ _______ _____ _____    ______ ____
ROOT
ATOM      1  C   UNL     1      47.143   5.335  18.653  0.00  0.00    +0.000 C 
ATOM      2  C   UNL     1      47.523   4.431  17.468  0.00  0.00    +0.000 C 
ENDROOT
BRANCH   2   3
ATOM      3  C   UNL     1      48.945   3.912  17.654  0.00  0.00    +0.000 A 
ATOM      4  C   UNL     1      49.967   4.770  18.086  0.00  0.00    +0.000 A 
ATOM      5  C   UNL     1      51.294   4.325  18.156  0.00  0.00    +0.000 A 
ATOM      6  C   UNL     1      51.629   3.015  17.787  0.00  0.00    +0.000 A 
ATOM      7  C   UNL     1      50.601   2.138  17.423  0.00  0.00    +0.000 A 
ATOM      8  C   UNL     1      49.277   2.581  17.358  0.00  0.00    +0.000 A 
BRANCH   6   9
ATOM      9  C   UNL     1      53.065   2.556  17.767  0.00  0.00    +0.000 C 
BRANCH   9  10
ATOM     10  N   UNL     1      53.233   1.283  18.420  0.00  0.00    +0.000 N 
ATOM     11  C   UNL     1      53.814   0.221  17.767  0.00  0.00    +0.000 C 
ATOM     12  O   UNL     1      54.177   0.284  16.596  0.00  0.00    +0.000 OA
ATOM     13  H   UNL     1      53.025   1.224  19.406  0.00  0.00    +0.000 HD
BRANCH  11  14
ATOM     14  C   UNL     1      53.972  -0.973  18.554  0.00  0.00    +0.000 A 
ATOM     15  C   UNL     1      55.078  -1.627  19.063  0.00  0.00    +0.000 A 
ATOM     16  N   UNL     1      54.719  -2.757  19.753  0.00  0.00    +0.000 NA
ATOM     17  C   UNL     1      53.410  -2.804  19.681  0.00  0.00    +0.000 A 
ATOM     18  N   UNL     1      52.913  -1.745  18.977  0.00  0.00    +0.000 N 
ATOM     19  H   UNL     1      51.938  -1.550  18.787  0.00  0.00    +0.000 HD
ENDBRANCH  11  14
ENDBRANCH   9  10
ENDBRANCH   6   9
ENDBRANCH   2   3
BRANCH   2  20
ATOM     20  N   UNL     1      47.397   5.108  16.185  0.00  0.00    +0.000 N 
ATOM     21  C   UNL     1      47.288   4.418  15.001  0.00  0.00    +0.000 C 
ATOM     22  O   UNL     1      47.230   3.192  14.952  0.00  0.00    +0.000 OA
ATOM     23  H   UNL     1      47.745   6.063  16.145  0.00  0.00    +0.000 HD
BRANCH  21  24
ATOM     24  C   UNL     1      47.181   5.217  13.777  0.00  0.00    +0.000 A 
ATOM     25  C   UNL     1      48.022   6.307  13.596  0.00  0.00    +0.000 A 
ATOM     26  S   UNL     1      47.753   7.142  12.134  0.00  0.00    +0.000 S 
ATOM     27  C   UNL     1      46.474   6.101  11.713  0.00  0.00    +0.000 A 
ATOM     28  N   UNL     1      45.757   6.299  10.575  0.00  0.00    +0.000 NA
ATOM     29  C   UNL     1      44.793   5.459  10.401  0.00  0.00    +0.000 A 
ATOM     30  N   UNL     1      44.494   4.424  11.252  0.00  0.00    +0.000 N 
ATOM     31  C   UNL     1      45.222   4.156  12.388  0.00  0.00    +0.000 A 
ATOM     32  O   UNL     1      44.988   3.176  13.087  0.00  0.00    +0.000 OA
ATOM     33  C   UNL     1      46.287   5.104  12.653  0.00  0.00    +0.000 A 
ATOM     34  H   UNL     1      43.742   3.786  11.042  0.00  0.00    +0.000 HD
ENDBRANCH  21  24
ENDBRANCH   2  20
TORSDOF 6
ENDMDL
MODEL 8
REMARK VINA RESULT:    -6.688      4.711      7.795
REMARK INTER + INTRA:         -10.024
REMARK INTER:                  -8.962
REMARK INTRA:                  -1.062
REMARK UNBOUND:                -0.990
REMARK  Name = 
REMARK  7 active torsions:
REMARK  status: ('A' for Active; 'I' for Inactive)
REMARK    1  A    between atoms: C_1  and  C_2
REMARK    2  A    between atoms: C_2  and  N_3
REMARK    3  A    between atoms: C_2  and  C_16
REMARK    4  A    between atoms: C_4  and  C_6
REMARK    5  A    between atoms: C_19  and  C_20
REMARK    6  A    between atoms: C_20  and  N_21
REMARK    7  A    between atoms: C_22  and  C_24
REMARK                            x       y       z     vdW  Elec       q    Type
REMARK                         _______ _______ _______ _____ _____    ______ ____
ROOT
ATOM      1  C   UNL     1      45.276   9.431  12.515  0.00  0.00    +0.000 C 
ATOM      2  C   UNL     1      46.109   8.155  12.720  0.00  0.00    +0.000 C 
ENDROOT
BRANCH   2   3
ATOM      3  C   UNL     1      47.514   8.365  12.166  0.00  0.00    +0.000 A 
ATOM      4  C   UNL     1      48.409   7.291  12.065  0.00  0.00    +0.000 A 
ATOM      5  C   UNL     1      49.735   7.498  11.657  0.00  0.00    +0.000 A 
ATOM      6  C   UNL     1      50.195   8.786  11.350  0.00  0.00    +0.000 A 
ATOM      7  C   UNL     1      49.284   9.848  11.383  0.00  0.00    +0.000 A 
ATOM      8  C   UNL     1      47.961   9.641  11.785  0.00  0.00    +0.000 A 
BRANCH   6   9
ATOM      9  C   UNL     1      51.641   9.033  11.004  0.00  0.00    +0.000 C 
BRANCH   9  10
ATOM     10  N   UNL     1      52.032   8.346   9.799  0.00  0.00    +0.000 N 
ATOM     11  C   UNL     1      52.900   7.281   9.840  0.00  0.00    +0.000 C 
ATOM     12  O   UNL     1      53.416   6.887  10.883  0.00  0.00    +0.000 OA
ATOM     13  H   UNL     1      51.561   8.589   8.940  0.00  0.00    +0.000 HD
BRANCH  11  14
ATOM     14  C   UNL     1      53.162   6.651   8.573  0.00  0.00    +0.000 A 
ATOM     15  C   UNL     1      52.739   6.914   7.284  0.00  0.00    +0.000 A 
ATOM     16  N   UNL     1      53.257   6.011   6.391  0.00  0.00    +0.000 NA
ATOM     17  C   UNL     1      53.996   5.201   7.111  0.00  0.00    +0.000 A 
ATOM     18  N   UNL     1      53.979   5.551   8.430  0.00  0.00    +0.000 N 
ATOM     19  H   UNL     1      54.472   5.091   9.184  0.00  0.00    +0.000 HD
ENDBRANCH  11  14
ENDBRANCH   9  10
ENDBRANCH   6   9
ENDBRANCH   2   3
BRANCH   2  20
ATOM     20  N   UNL     1      45.496   6.983  12.113  0.00  0.00    +0.000 N 
ATOM     21  C   UNL     1      45.520   5.748  12.718  0.00  0.00    +0.000 C 
ATOM     22  O   UNL     1      46.003   5.566  13.832  0.00  0.00    +0.000 OA
ATOM     23  H   UNL     1      45.375   7.011  11.104  0.00  0.00    +0.000 HD
BRANCH  21  24
ATOM     24  C   UNL     1      44.879   4.645  11.996  0.00  0.00    +0.000 A 
ATOM     25  C   UNL     1      44.083   3.744  12.691  0.00  0.00    +0.000 A 
ATOM     26  S   UNL     1      43.433   2.509  11.711  0.00  0.00    +0.000 S 
ATOM     27  C   UNL     1      44.228   3.113  10.331  0.00  0.00    +0.000 A 
ATOM     28  N   UNL     1      44.136   2.474   9.135  0.00  0.00    +0.000 NA
ATOM     29  C   UNL     1      44.819   3.020   8.187  0.00  0.00    +0.000 A 
ATOM     30  N   UNL     1      45.571   4.160   8.321  0.00  0.00    +0.000 N 
ATOM     31  C   UNL     1      45.653   4.867   9.497  0.00  0.00    +0.000 A 
ATOM     32  O   UNL     1      46.262   5.930   9.570  0.00  0.00    +0.000 OA
ATOM     33  C   UNL     1      44.941   4.266  10.608  0.00  0.00    +0.000 A 
ATOM     34  H   UNL     1      46.060   4.550   7.529  0.00  0.00    +0.000 HD
ENDBRANCH  21  24
ENDBRANCH   2  20
TORSDOF 6
ENDMDL
MODEL 9
REMARK VINA RESULT:    -6.515      5.540      8.286
REMARK INTER + INTRA:          -9.790
REMARK INTER:                  -8.903
REMARK INTRA:                  -0.887
REMARK UNBOUND:                -0.990
REMARK  Name = 
REMARK  7 active torsions:
REMARK  status: ('A' for Active; 'I' for Inactive)
REMARK    1  A    between atoms: C_1  and  C_2
REMARK    2  A    between atoms: C_2  and  N_3
REMARK    3  A    between atoms: C_2  and  C_16
REMARK    4  A    between atoms: C_4  and  C_6
REMARK    5  A    between atoms: C_19  and  C_20
REMARK    6  A    between atoms: C_20  and  N_21
REMARK    7  A    between atoms: C_22  and  C_24
REMARK                            x       y       z     vdW  Elec       q    Type
REMARK                         _______ _______ _______ _____ _____    ______ ____
ROOT
ATOM      1  C   UNL     1      52.924   9.128  12.831  0.00  0.00    +0.000 C 
ATOM      2  C   UNL     1      51.701   9.103  11.899  0.00  0.00    +0.000 C 
ENDROOT
BRANCH   2   3
ATOM      3  C   UNL     1      50.567   8.331  12.563  0.00  0.00    +0.000 A 
ATOM      4  C   UNL     1      50.545   8.147  13.953  0.00  0.00    +0.000 A 
ATOM      5  C   UNL     1      49.564   7.348  14.556  0.00  0.00    +0.000 A 
ATOM      6  C   UNL     1      48.588   6.708  13.780  0.00  0.00    +0.000 A 
ATOM      7  C   UNL     1      48.566   6.947  12.401  0.00  0.00    +0.000 A 
ATOM      8  C   UNL     1      49.542   7.747  11.801  0.00  0.00    +0.000 A 
BRANCH   6   9
ATOM      9  C   UNL     1      47.587   5.771  14.407  0.00  0.00    +0.000 C 
BRANCH   9  10
ATOM     10  N   UNL     1      46.568   5.366  13.473  0.00  0.00    +0.000 N 
ATOM     11  C   UNL     1      46.305   4.036  13.242  0.00  0.00    +0.000 C 
ATOM     12  O   UNL     1      46.942   3.134  13.779  0.00  0.00    +0.000 OA
ATOM     13  H   UNL     1      45.971   6.080  13.082  0.00  0.00    +0.000 HD
BRANCH  11  14
ATOM     14  C   UNL     1      45.225   3.772  12.329  0.00  0.00    +0.000 A 
ATOM     15  C   UNL     1      44.853   4.330  11.121  0.00  0.00    +0.000 A 
ATOM     16  N   UNL     1      43.720   3.739  10.622  0.00  0.00    +0.000 NA
ATOM     17  C   UNL     1      43.395   2.821  11.501  0.00  0.00    +0.000 A 
ATOM     18  N   UNL     1      44.277   2.795  12.542  0.00  0.00    +0.000 N 
ATOM     19  H   UNL     1      44.249   2.176  13.342  0.00  0.00    +0.000 HD
ENDBRANCH  11  14
ENDBRANCH   9  10
ENDBRANCH   6   9
ENDBRANCH   2   3
BRANCH   2  20
ATOM     20  N   UNL     1      52.004   8.534  10.594  0.00  0.00    +0.000 N 
ATOM     21  C   UNL     1      52.804   9.181   9.682  0.00  0.00    +0.000 C 
ATOM     22  O   UNL     1      53.363  10.247   9.929  0.00  0.00    +0.000 OA
ATOM     23  H   UNL     1      51.343   7.848  10.239  0.00  0.00    +0.000 HD
BRANCH  21  24
ATOM     24  C   UNL     1      53.020   8.509   8.397  0.00  0.00    +0.000 A 
ATOM     25  C   UNL     1      52.884   9.228   7.217  0.00  0.00    +0.000 A 
ATOM     26  S   UNL     1      53.144   8.295   5.814  0.00  0.00    +0.000 S 
ATOM     27  C   UNL     1      53.406   6.887   6.735  0.00  0.00    +0.000 A 
ATOM     28  N   UNL     1      53.634   5.690   6.133  0.00  0.00    +0.000 NA
ATOM     29  C   UNL     1      53.777   4.702   6.950  0.00  0.00    +0.000 A 
ATOM     30  N   UNL     1      53.733   4.806   8.318  0.00  0.00    +0.000 N 
ATOM     31  C   UNL     1      53.556   6.003   8.971  0.00  0.00    +0.000 A 
ATOM     32  O   UNL     1      53.606   6.084  10.194  0.00  0.00    +0.000 OA
ATOM     33  C   UNL     1      53.341   7.137   8.094  0.00  0.00    +0.000 A 
ATOM     34  H   UNL     1      53.880   3.996   8.901  0.00  0.00    +0.000 HD
ENDBRANCH  21  24
ENDBRANCH   2  20
TORSDOF 6
ENDMDL
