MODEL 1
REMARK VINA RESULT:    -8.806      0.000      0.000
REMARK INTER + INTRA:         -13.464
REMARK INTER:                 -12.409
REMARK INTRA:                  -1.055
REMARK UNBOUND:                -1.055
REMARK  Name = 
REMARK  7 active torsions:
REMARK  status: ('A' for Active; 'I' for Inactive)
REMARK    1  A    between atoms: C_2  and  C_19
REMARK    2  A    between atoms: N_3  and  C_4
REMARK    3  A    between atoms: C_4  and  C_5
REMARK    4  A    between atoms: C_8  and  C_9
REMARK    5  A    between atoms: C_9  and  N_10
REMARK    6  A    between atoms: N_10  and  C_11
REMARK    7  A    between atoms: C_11  and  C_12
REMARK                            x       y       z     vdW  Elec       q    Type
REMARK                         _______ _______ _______ _____ _____    ______ ____
ROOT
ATOM      1  C   UNL     1      45.752   4.868  13.154  0.00  0.00    +0.000 C 
ENDROOT
BRANCH   1   2
ATOM      2  C   UNL     1      44.520   5.741  12.910  0.00  0.00    +0.000 C 
ATOM      3  C   UNL     1      44.445   6.337  11.503  0.00  0.00    +0.000 C 
ATOM      4  C   UNL     1      43.792   5.270  10.630  0.00  0.00    +0.000 C 
ATOM      5  C   UNL     1      43.042   4.324  11.580  0.00  0.00    +0.000 C 
ATOM      6  C   UNL     1      43.229   4.926  12.982  0.00  0.00    +0.000 C 
BRANCH   5   7
ATOM      7  C   UNL     1      43.517   2.861  11.427  0.00  0.00    +0.000 C 
BRANCH   7   8
ATOM      8  N   UNL     1      44.740   2.689  10.648  0.00  0.00    +0.000 NA
ATOM      9  H   UNL     1      45.434   2.159  11.175  0.00  0.00    +0.000 HD
BRANCH   8  10
ATOM     10  C   UNL     1      44.485   2.021   9.378  0.00  0.00    +0.000 C 
BRANCH  10  11
ATOM     11  C   UNL     1      45.604   2.250   8.402  0.00  0.00    +0.000 A 
ATOM     12  C   UNL     1      46.438   1.193   8.021  0.00  0.00    +0.000 A 
ATOM     13  C   UNL     1      47.434   1.440   7.094  0.00  0.00    +0.000 A 
ATOM     14  N   UNL     1      47.659   2.647   6.533  0.00  0.00    +0.000 NA
ATOM     15  C   UNL     1      46.849   3.656   6.926  0.00  0.00    +0.000 A 
ATOM     16  C   UNL     1      45.823   3.510   7.843  0.00  0.00    +0.000 A 
ENDBRANCH  10  11
ENDBRANCH   8  10
ENDBRANCH   7   8
ENDBRANCH   5   7
ENDBRANCH   1   2
BRANCH   1  19
ATOM     17  O   UNL     1      47.461   3.123  14.583  0.00  0.00    +0.000 OA
ATOM     18  C   UNL     1      47.213   4.236  15.039  0.00  0.00    +0.000 C 
ATOM     19  N   UNL     1      46.348   5.107  14.440  0.00  0.00    +0.000 N 
ATOM     20  H   UNL     1      46.260   6.049  14.805  0.00  0.00    +0.000 HD
BRANCH  18  21
ATOM     21  C   UNL     1      47.799   4.705  16.294  0.00  0.00    +0.000 A 
ATOM     22  C   UNL     1      47.439   4.111  17.493  0.00  0.00    +0.000 A 
ATOM     23  S   UNL     1      48.217   4.795  18.848  0.00  0.00    +0.000 S 
ATOM     24  C   UNL     1      49.095   5.878  17.872  0.00  0.00    +0.000 A 
ATOM     25  N   UNL     1      49.998   6.744  18.413  0.00  0.00    +0.000 NA
ATOM     26  C   UNL     1      50.623   7.476  17.553  0.00  0.00    +0.000 A 
ATOM     27  N   UNL     1      50.422   7.433  16.198  0.00  0.00    +0.000 N 
ATOM     28  C   UNL     1      49.469   6.634  15.615  0.00  0.00    +0.000 A 
ATOM     29  O   UNL     1      49.214   6.727  14.417  0.00  0.00    +0.000 OA
ATOM     30  C   UNL     1      48.775   5.746  16.534  0.00  0.00    +0.000 A 
ATOM     31  H   UNL     1      50.912   8.059  15.581  0.00  0.00    +0.000 HD
ENDBRANCH  18  21
ENDBRANCH   1  19
TORSDOF 7
ENDMDL
MODEL 2
REMARK VINA RESULT:    -8.742      1.351      2.269
REMARK INTER + INTRA:         -13.375
REMARK INTER:                 -12.619
REMARK INTRA:                  -0.756
REMARK UNBOUND:                -1.055
REMARK  Name = 
REMARK  7 active torsions:
REMARK  status: ('A' for Active; 'I' for Inactive)
REMARK    1  A    between atoms: C_2  and  C_19
REMARK    2  A    between atoms: N_3  and  C_4
REMARK    3  A    between atoms: C_4  and  C_5
REMARK    4  A    between atoms: C_8  and  C_9
REMARK    5  A    between atoms: C_9  and  N_10
REMARK    6  A    between atoms: N_10  and  C_11
REMARK    7  A    between atoms: C_11  and  C_12
REMARK                            x       y       z     vdW  Elec       q    Type
REMARK                         _______ _______ _______ _____ _____    ______ ____
ROOT
ATOM      1  C   UNL     1      45.657   4.776  13.261  0.00  0.00    +0.000 C 
ENDROOT
BRANCH   1   2
ATOM      2  C   UNL     1      44.464   5.686  12.965  0.00  0.00    +0.000 C 
ATOM      3  C   UNL     1      44.473   6.291  11.559  0.00  0.00    +0.000 C 
ATOM      4  C   UNL     1      43.830   5.247  10.651  0.00  0.00    +0.000 C 
ATOM      5  C   UNL     1      43.009   4.320  11.560  0.00  0.00    +0.000 C 
ATOM      6  C   UNL     1      43.148   4.911  12.972  0.00  0.00    +0.000 C 
BRANCH   5   7
ATOM      7  C   UNL     1      43.445   2.845  11.420  0.00  0.00    +0.000 C 
BRANCH   7   8
ATOM      8  N   UNL     1      44.687   2.637  10.679  0.00  0.00    +0.000 NA
ATOM      9  H   UNL     1      45.359   2.112  11.238  0.00  0.00    +0.000 HD
BRANCH   8  10
ATOM     10  C   UNL     1      44.455   1.940   9.420  0.00  0.00    +0.000 C 
BRANCH  10  11
ATOM     11  C   UNL     1      45.568   2.191   8.442  0.00  0.00    +0.000 A 
ATOM     12  C   UNL     1      45.785   3.475   7.930  0.00  0.00    +0.000 A 
ATOM     13  C   UNL     1      46.841   3.670   7.060  0.00  0.00    +0.000 A 
ATOM     14  N   UNL     1      47.682   2.689   6.664  0.00  0.00    +0.000 NA
ATOM     15  C   UNL     1      47.445   1.455   7.161  0.00  0.00    +0.000 A 
ATOM     16  C   UNL     1      46.418   1.159   8.040  0.00  0.00    +0.000 A 
ENDBRANCH  10  11
ENDBRANCH   8  10
ENDBRANCH   7   8
ENDBRANCH   5   7
ENDBRANCH   1   2
BRANCH   1  19
ATOM     17  O   UNL     1      47.532   3.268  14.750  0.00  0.00    +0.000 OA
ATOM     18  C   UNL     1      47.359   4.453  15.018  0.00  0.00    +0.000 C 
ATOM     19  N   UNL     1      46.427   5.228  14.387  0.00  0.00    +0.000 N 
ATOM     20  H   UNL     1      46.398   6.224  14.577  0.00  0.00    +0.000 HD
BRANCH  18  21
ATOM     21  C   UNL     1      48.116   5.127  16.072  0.00  0.00    +0.000 A 
ATOM     22  C   UNL     1      48.717   6.351  15.822  0.00  0.00    +0.000 A 
ATOM     23  S   UNL     1      49.560   6.979  17.165  0.00  0.00    +0.000 S 
ATOM     24  C   UNL     1      49.113   5.656  18.139  0.00  0.00    +0.000 A 
ATOM     25  N   UNL     1      49.483   5.586  19.449  0.00  0.00    +0.000 NA
ATOM     26  C   UNL     1      49.038   4.552  20.079  0.00  0.00    +0.000 A 
ATOM     27  N   UNL     1      48.263   3.569  19.519  0.00  0.00    +0.000 N 
ATOM     28  C   UNL     1      47.931   3.557  18.186  0.00  0.00    +0.000 A 
ATOM     29  O   UNL     1      47.362   2.590  17.687  0.00  0.00    +0.000 OA
ATOM     30  C   UNL     1      48.359   4.730  17.443  0.00  0.00    +0.000 A 
ATOM     31  H   UNL     1      47.980   2.765  20.054  0.00  0.00    +0.000 HD
ENDBRANCH  18  21
ENDBRANCH   1  19
TORSDOF 7
ENDMDL
MODEL 3
REMARK VINA RESULT:    -8.312      3.250      4.148
REMARK INTER + INTRA:         -12.769
REMARK INTER:                 -11.620
REMARK INTRA:                  -1.149
REMARK UNBOUND:                -1.055
REMARK  Name = 
REMARK  7 active torsions:
REMARK  status: ('A' for Active; 'I' for Inactive)
REMARK    1  A    between atoms: C_2  and  C_19
REMARK    2  A    between atoms: N_3  and  C_4
REMARK    3  A    between atoms: C_4  and  C_5
REMARK    4  A    between atoms: C_8  and  C_9
REMARK    5  A    between atoms: C_9  and  N_10
REMARK    6  A    between atoms: N_10  and  C_11
REMARK    7  A    between atoms: C_11  and  C_12
REMARK                            x       y       z     vdW  Elec       q    Type
REMARK                         _______ _______ _______ _____ _____    ______ ____
ROOT
ATOM      1  C   UNL     1      45.843   4.409  12.961  0.00  0.00    +0.000 C 
ENDROOT
BRANCH   1   2
ATOM      2  C   UNL     1      44.359   4.653  13.239  0.00  0.00    +0.000 C 
ATOM      3  C   UNL     1      43.762   5.827  12.459  0.00  0.00    +0.000 C 
ATOM      4  C   UNL     1      43.356   5.264  11.100  0.00  0.00    +0.000 C 
ATOM      5  C   UNL     1      43.229   3.743  11.276  0.00  0.00    +0.000 C 
ATOM      6  C   UNL     1      43.497   3.483  12.767  0.00  0.00    +0.000 C 
BRANCH   5   7
ATOM      7  C   UNL     1      44.147   2.974  10.301  0.00  0.00    +0.000 C 
BRANCH   7   8
ATOM      8  N   UNL     1      45.101   3.802   9.569  0.00  0.00    +0.000 NA
ATOM      9  H   UNL     1      46.060   3.526   9.781  0.00  0.00    +0.000 HD
BRANCH   8  10
ATOM     10  C   UNL     1      44.886   3.734   8.129  0.00  0.00    +0.000 C 
BRANCH  10  11
ATOM     11  C   UNL     1      45.940   2.902   7.455  0.00  0.00    +0.000 A 
ATOM     12  C   UNL     1      46.548   3.349   6.276  0.00  0.00    +0.000 A 
ATOM     13  C   UNL     1      47.538   2.570   5.708  0.00  0.00    +0.000 A 
ATOM     14  N   UNL     1      47.956   1.392   6.219  0.00  0.00    +0.000 NA
ATOM     15  C   UNL     1      47.347   0.975   7.351  0.00  0.00    +0.000 A 
ATOM     16  C   UNL     1      46.349   1.683   7.998  0.00  0.00    +0.000 A 
ENDBRANCH  10  11
ENDBRANCH   8  10
ENDBRANCH   7   8
ENDBRANCH   5   7
ENDBRANCH   1   2
BRANCH   1  19
ATOM     17  O   UNL     1      47.995   5.627  14.336  0.00  0.00    +0.000 OA
ATOM     18  C   UNL     1      47.609   6.103  13.272  0.00  0.00    +0.000 C 
ATOM     19  N   UNL     1      46.537   5.609  12.584  0.00  0.00    +0.000 N 
ATOM     20  H   UNL     1      46.325   5.977  11.663  0.00  0.00    +0.000 HD
BRANCH  18  21
ATOM     21  C   UNL     1      48.247   7.274  12.671  0.00  0.00    +0.000 A 
ATOM     22  C   UNL     1      49.566   7.206  12.249  0.00  0.00    +0.000 A 
ATOM     23  S   UNL     1      50.140   8.667  11.582  0.00  0.00    +0.000 S 
ATOM     24  C   UNL     1      48.630   9.425  11.794  0.00  0.00    +0.000 A 
ATOM     25  N   UNL     1      48.421  10.709  11.386  0.00  0.00    +0.000 NA
ATOM     26  C   UNL     1      47.220  11.142  11.568  0.00  0.00    +0.000 A 
ATOM     27  N   UNL     1      46.204  10.415  12.132  0.00  0.00    +0.000 N 
ATOM     28  C   UNL     1      46.387   9.147  12.628  0.00  0.00    +0.000 A 
ATOM     29  O   UNL     1      45.498   8.580  13.257  0.00  0.00    +0.000 OA
ATOM     30  C   UNL     1      47.710   8.589  12.397  0.00  0.00    +0.000 A 
ATOM     31  H   UNL     1      45.296  10.822  12.284  0.00  0.00    +0.000 HD
ENDBRANCH  18  21
ENDBRANCH   1  19
TORSDOF 7
ENDMDL
MODEL 4
REMARK VINA RESULT:    -7.608      2.467      3.158
REMARK INTER + INTRA:         -11.777
REMARK INTER:                 -10.762
REMARK INTRA:                  -1.015
REMARK UNBOUND:                -1.055
REMARK  Name = 
REMARK  7 active torsions:
REMARK  status: ('A' for Active; 'I' for Inactive)
REMARK    1  A    between atoms: C_2  and  C_19
REMARK    2  A    between atoms: N_3  and  C_4
REMARK    3  A    between atoms: C_4  and  C_5
REMARK    4  A    between atoms: C_8  and  C_9
REMARK    5  A    between atoms: C_9  and  N_10
REMARK    6  A    between atoms: N_10  and  C_11
REMARK    7  A    between atoms: C_11  and  C_12
REMARK                            x       y       z     vdW  Elec       q    Type
REMARK                         _______ _______ _______ _____ _____    ______ ____
ROOT
ATOM      1  C   UNL     1      45.734   4.454  13.050  0.00  0.00    +0.000 C 
ENDROOT
BRANCH   1   2
ATOM      2  C   UNL     1      44.246   4.540  13.397  0.00  0.00    +0.000 C 
ATOM      3  C   UNL     1      43.514   5.704  12.725  0.00  0.00    +0.000 C 
ATOM      4  C   UNL     1      43.105   5.200  11.345  0.00  0.00    +0.000 C 
ATOM      5  C   UNL     1      43.122   3.665  11.415  0.00  0.00    +0.000 C 
ATOM      6  C   UNL     1      43.475   3.331  12.873  0.00  0.00    +0.000 C 
BRANCH   5   7
ATOM      7  C   UNL     1      44.065   3.053  10.355  0.00  0.00    +0.000 C 
BRANCH   7   8
ATOM      8  N   UNL     1      44.875   4.020   9.618  0.00  0.00    +0.000 NA
ATOM      9  H   UNL     1      45.850   3.977   9.914  0.00  0.00    +0.000 HD
BRANCH   8  10
ATOM     10  C   UNL     1      44.797   3.807   8.178  0.00  0.00    +0.000 C 
BRANCH  10  11
ATOM     11  C   UNL     1      45.922   2.939   7.690  0.00  0.00    +0.000 A 
ATOM     12  C   UNL     1      46.014   1.604   8.096  0.00  0.00    +0.000 A 
ATOM     13  C   UNL     1      47.045   0.831   7.596  0.00  0.00    +0.000 A 
ATOM     14  N   UNL     1      47.982   1.289   6.737  0.00  0.00    +0.000 NA
ATOM     15  C   UNL     1      47.880   2.586   6.368  0.00  0.00    +0.000 A 
ATOM     16  C   UNL     1      46.884   3.438   6.810  0.00  0.00    +0.000 A 
ENDBRANCH  10  11
ENDBRANCH   8  10
ENDBRANCH   7   8
ENDBRANCH   5   7
ENDBRANCH   1   2
BRANCH   1  19
ATOM     17  O   UNL     1      46.702   6.274  11.111  0.00  0.00    +0.000 OA
ATOM     18  C   UNL     1      46.812   6.544  12.303  0.00  0.00    +0.000 C 
ATOM     19  N   UNL     1      46.428   5.688  13.296  0.00  0.00    +0.000 N 
ATOM     20  H   UNL     1      46.448   6.004  14.260  0.00  0.00    +0.000 HD
BRANCH  18  21
ATOM     21  C   UNL     1      47.408   7.799  12.761  0.00  0.00    +0.000 A 
ATOM     22  C   UNL     1      47.130   8.982  12.095  0.00  0.00    +0.000 A 
ATOM     23  S   UNL     1      47.919  10.338  12.765  0.00  0.00    +0.000 S 
ATOM     24  C   UNL     1      48.622   9.394  13.996  0.00  0.00    +0.000 A 
ATOM     25  N   UNL     1      49.406   9.958  14.958  0.00  0.00    +0.000 NA
ATOM     26  C   UNL     1      49.836   9.134  15.852  0.00  0.00    +0.000 A 
ATOM     27  N   UNL     1      49.566   7.790  15.871  0.00  0.00    +0.000 N 
ATOM     28  C   UNL     1      48.847   7.165  14.881  0.00  0.00    +0.000 A 
ATOM     29  O   UNL     1      48.748   5.941  14.850  0.00  0.00    +0.000 OA
ATOM     30  C   UNL     1      48.290   8.058  13.879  0.00  0.00    +0.000 A 
ATOM     31  H   UNL     1      49.964   7.191  16.574  0.00  0.00    +0.000 HD
ENDBRANCH  18  21
ENDBRANCH   1  19
TORSDOF 7
ENDMDL
MODEL 5
REMARK VINA RESULT:    -7.369      3.250      8.188
REMARK INTER + INTRA:         -11.440
REMARK INTER:                 -10.061
REMARK INTRA:                  -1.379
REMARK UNBOUND:                -1.055
REMARK  Name = 
REMARK  7 active torsions:
REMARK  status: ('A' for Active; 'I' for Inactive)
REMARK    1  A    between atoms: C_2  and  C_19
REMARK    2  A    between atoms: N_3  and  C_4
REMARK    3  A    between atoms: C_4  and  C_5
REMARK    4  A    between atoms: C_8  and  C_9
REMARK    5  A    between atoms: C_9  and  N_10
REMARK    6  A    between atoms: N_10  and  C_11
REMARK    7  A    between atoms: C_11  and  C_12
REMARK                            x       y       z     vdW  Elec       q    Type
REMARK                         _______ _______ _______ _____ _____    ______ ____
ROOT
ATOM      1  C   UNL     1      48.987   6.512  15.677  0.00  0.00    +0.000 C 
ENDROOT
BRANCH   1   2
ATOM      2  C   UNL     1      49.500   7.938  15.882  0.00  0.00    +0.000 C 
ATOM      3  C   UNL     1      48.394   8.979  16.074  0.00  0.00    +0.000 C 
ATOM      4  C   UNL     1      48.046   8.951  17.559  0.00  0.00    +0.000 C 
ATOM      5  C   UNL     1      49.249   8.322  18.279  0.00  0.00    +0.000 C 
ATOM      6  C   UNL     1      50.293   8.071  17.180  0.00  0.00    +0.000 C 
BRANCH   5   7
ATOM      7  C   UNL     1      48.841   7.074  19.094  0.00  0.00    +0.000 C 
BRANCH   7   8
ATOM      8  N   UNL     1      49.828   5.997  19.106  0.00  0.00    +0.000 NA
ATOM      9  H   UNL     1      50.581   6.202  19.763  0.00  0.00    +0.000 HD
BRANCH   8  10
ATOM     10  C   UNL     1      49.225   4.714  19.447  0.00  0.00    +0.000 C 
BRANCH  10  11
ATOM     11  C   UNL     1      49.325   3.740  18.307  0.00  0.00    +0.000 A 
ATOM     12  C   UNL     1      50.554   3.158  17.979  0.00  0.00    +0.000 A 
ATOM     13  C   UNL     1      50.595   2.242  16.944  0.00  0.00    +0.000 A 
ATOM     14  N   UNL     1      49.516   1.873  16.221  0.00  0.00    +0.000 NA
ATOM     15  C   UNL     1      48.342   2.458  16.548  0.00  0.00    +0.000 A 
ATOM     16  C   UNL     1      48.197   3.382  17.567  0.00  0.00    +0.000 A 
ENDBRANCH  10  11
ENDBRANCH   8  10
ENDBRANCH   7   8
ENDBRANCH   5   7
ENDBRANCH   1   2
BRANCH   1  19
ATOM     17  O   UNL     1      48.960   6.207  12.864  0.00  0.00    +0.000 OA
ATOM     18  C   UNL     1      47.898   6.251  13.479  0.00  0.00    +0.000 C 
ATOM     19  N   UNL     1      47.830   6.460  14.827  0.00  0.00    +0.000 N 
ATOM     20  H   UNL     1      46.933   6.386  15.296  0.00  0.00    +0.000 HD
BRANCH  18  21
ATOM     21  C   UNL     1      46.608   6.122  12.803  0.00  0.00    +0.000 A 
ATOM     22  C   UNL     1      45.994   7.240  12.260  0.00  0.00    +0.000 A 
ATOM     23  S   UNL     1      44.495   6.898  11.520  0.00  0.00    +0.000 S 
ATOM     24  C   UNL     1      44.639   5.236  11.863  0.00  0.00    +0.000 A 
ATOM     25  N   UNL     1      43.689   4.347  11.458  0.00  0.00    +0.000 NA
ATOM     26  C   UNL     1      43.947   3.116  11.746  0.00  0.00    +0.000 A 
ATOM     27  N   UNL     1      45.065   2.687  12.414  0.00  0.00    +0.000 N 
ATOM     28  C   UNL     1      46.010   3.553  12.908  0.00  0.00    +0.000 A 
ATOM     29  O   UNL     1      46.920   3.150  13.627  0.00  0.00    +0.000 OA
ATOM     30  C   UNL     1      45.796   4.948  12.561  0.00  0.00    +0.000 A 
ATOM     31  H   UNL     1      45.190   1.716  12.645  0.00  0.00    +0.000 HD
ENDBRANCH  18  21
ENDBRANCH   1  19
TORSDOF 7
ENDMDL
MODEL 6
REMARK VINA RESULT:    -7.144      2.982      8.605
REMARK INTER + INTRA:         -11.123
REMARK INTER:                  -9.286
REMARK INTRA:                  -1.837
REMARK UNBOUND:                -1.055
REMARK  Name = 
REMARK  7 active torsions:
REMARK  status: ('A' for Active; 'I' for Inactive)
REMARK    1  A    between atoms: C_2  and  C_19
REMARK    2  A    between atoms: N_3  and  C_4
REMARK    3  A    between atoms: C_4  and  C_5
REMARK    4  A    between atoms: C_8  and  C_9
REMARK    5  A    between atoms: C_9  and  N_10
REMARK    6  A    between atoms: N_10  and  C_11
REMARK    7  A    between atoms: C_11  and  C_12
REMARK                            x       y       z     vdW  Elec       q    Type
REMARK                         _______ _______ _______ _____ _____    ______ ____
ROOT
ATOM      1  C   UNL     1      47.857   4.714  16.146  0.00  0.00    +0.000 C 
ENDROOT
BRANCH   1   2
ATOM      2  C   UNL     1      47.832   3.203  16.384  0.00  0.00    +0.000 C 
ATOM      3  C   UNL     1      49.216   2.550  16.399  0.00  0.00    +0.000 C 
ATOM      4  C   UNL     1      49.739   2.709  17.823  0.00  0.00    +0.000 C 
ATOM      5  C   UNL     1      48.512   2.958  18.715  0.00  0.00    +0.000 C 
ATOM      6  C   UNL     1      47.301   2.860  17.774  0.00  0.00    +0.000 C 
BRANCH   5   7
ATOM      7  C   UNL     1      48.631   4.286  19.496  0.00  0.00    +0.000 C 
BRANCH   7   8
ATOM      8  N   UNL     1      49.993   4.671  19.855  0.00  0.00    +0.000 NA
ATOM      9  H   UNL     1      50.670   4.231  19.232  0.00  0.00    +0.000 HD
BRANCH   8  10
ATOM     10  C   UNL     1      50.174   6.117  19.822  0.00  0.00    +0.000 C 
BRANCH  10  11
ATOM     11  C   UNL     1      50.242   6.630  18.411  0.00  0.00    +0.000 A 
ATOM     12  C   UNL     1      49.379   7.645  17.984  0.00  0.00    +0.000 A 
ATOM     13  C   UNL     1      49.498   8.111  16.689  0.00  0.00    +0.000 A 
ATOM     14  N   UNL     1      50.399   7.642  15.798  0.00  0.00    +0.000 NA
ATOM     15  C   UNL     1      51.213   6.653  16.229  0.00  0.00    +0.000 A 
ATOM     16  C   UNL     1      51.175   6.121  17.506  0.00  0.00    +0.000 A 
ENDBRANCH  10  11
ENDBRANCH   8  10
ENDBRANCH   7   8
ENDBRANCH   5   7
ENDBRANCH   1   2
BRANCH   1  19
ATOM     17  O   UNL     1      48.533   5.992  13.713  0.00  0.00    +0.000 OA
ATOM     18  C   UNL     1      47.365   5.682  13.930  0.00  0.00    +0.000 C 
ATOM     19  N   UNL     1      46.952   5.122  15.106  0.00  0.00    +0.000 N 
ATOM     20  H   UNL     1      45.996   4.793  15.191  0.00  0.00    +0.000 HD
BRANCH  18  21
ATOM     21  C   UNL     1      46.305   5.927  12.953  0.00  0.00    +0.000 A 
ATOM     22  C   UNL     1      46.002   7.224  12.568  0.00  0.00    +0.000 A 
ATOM     23  S   UNL     1      44.736   7.314  11.429  0.00  0.00    +0.000 S 
ATOM     24  C   UNL     1      44.581   5.619  11.378  0.00  0.00    +0.000 A 
ATOM     25  N   UNL     1      43.681   5.016  10.552  0.00  0.00    +0.000 NA
ATOM     26  C   UNL     1      43.702   3.726  10.583  0.00  0.00    +0.000 A 
ATOM     27  N   UNL     1      44.533   2.977  11.375  0.00  0.00    +0.000 N 
ATOM     28  C   UNL     1      45.400   3.540  12.279  0.00  0.00    +0.000 A 
ATOM     29  O   UNL     1      46.023   2.842  13.075  0.00  0.00    +0.000 OA
ATOM     30  C   UNL     1      45.458   4.992  12.243  0.00  0.00    +0.000 A 
ATOM     31  H   UNL     1      44.474   1.973  11.384  0.00  0.00    +0.000 HD
ENDBRANCH  18  21
ENDBRANCH   1  19
TORSDOF 7
ENDMDL
MODEL 7
REMARK VINA RESULT:    -7.058      3.143      8.000
REMARK INTER + INTRA:         -11.001
REMARK INTER:                  -9.651
REMARK INTRA:                  -1.350
REMARK UNBOUND:                -1.055
REMARK  Name = 
REMARK  7 active torsions:
REMARK  status: ('A' for Active; 'I' for Inactive)
REMARK    1  A    between atoms: C_2  and  C_19
REMARK    2  A    between atoms: N_3  and  C_4
REMARK    3  A    between atoms: C_4  and  C_5
REMARK    4  A    between atoms: C_8  and  C_9
REMARK    5  A    between atoms: C_9  and  N_10
REMARK    6  A    between atoms: N_10  and  C_11
REMARK    7  A    between atoms: C_11  and  C_12
REMARK                            x       y       z     vdW  Elec       q    Type
REMARK                         _______ _______ _______ _____ _____    ______ ____
ROOT
ATOM      1  C   UNL     1      46.175   8.276  12.656  0.00  0.00    +0.000 C 
ENDROOT
BRANCH   1   2
ATOM      2  C   UNL     1      47.562   8.537  12.064  0.00  0.00    +0.000 C 
ATOM      3  C   UNL     1      48.400   9.543  12.855  0.00  0.00    +0.000 C 
ATOM      4  C   UNL     1      49.085   8.742  13.958  0.00  0.00    +0.000 C 
ATOM      5  C   UNL     1      49.072   7.273  13.506  0.00  0.00    +0.000 C 
ATOM      6  C   UNL     1      48.437   7.286  12.106  0.00  0.00    +0.000 C 
BRANCH   5   7
ATOM      7  C   UNL     1      48.369   6.362  14.536  0.00  0.00    +0.000 C 
BRANCH   7   8
ATOM      8  N   UNL     1      47.760   5.157  13.979  0.00  0.00    +0.000 NA
ATOM      9  H   UNL     1      48.474   4.480  13.710  0.00  0.00    +0.000 HD
BRANCH   8  10
ATOM     10  C   UNL     1      46.832   4.535  14.916  0.00  0.00    +0.000 C 
BRANCH  10  11
ATOM     11  C   UNL     1      47.531   4.104  16.175  0.00  0.00    +0.000 A 
ATOM     12  C   UNL     1      47.357   4.823  17.362  0.00  0.00    +0.000 A 
ATOM     13  C   UNL     1      47.991   4.373  18.505  0.00  0.00    +0.000 A 
ATOM     14  N   UNL     1      48.778   3.276  18.548  0.00  0.00    +0.000 NA
ATOM     15  C   UNL     1      48.941   2.604  17.387  0.00  0.00    +0.000 A 
ATOM     16  C   UNL     1      48.348   2.972  16.192  0.00  0.00    +0.000 A 
ENDBRANCH  10  11
ENDBRANCH   8  10
ENDBRANCH   7   8
ENDBRANCH   5   7
ENDBRANCH   1   2
BRANCH   1  19
ATOM     17  O   UNL     1      43.858   7.539  11.211  0.00  0.00    +0.000 OA
ATOM     18  C   UNL     1      44.608   6.666  11.637  0.00  0.00    +0.000 C 
ATOM     19  N   UNL     1      45.710   6.942  12.397  0.00  0.00    +0.000 N 
ATOM     20  H   UNL     1      46.349   6.191  12.637  0.00  0.00    +0.000 HD
BRANCH  18  21
ATOM     21  C   UNL     1      44.358   5.245  11.398  0.00  0.00    +0.000 A 
ATOM     22  C   UNL     1      43.589   4.516  12.292  0.00  0.00    +0.000 A 
ATOM     23  S   UNL     1      43.413   2.877  11.853  0.00  0.00    +0.000 S 
ATOM     24  C   UNL     1      44.321   3.099  10.430  0.00  0.00    +0.000 A 
ATOM     25  N   UNL     1      44.524   2.074   9.554  0.00  0.00    +0.000 NA
ATOM     26  C   UNL     1      45.192   2.395   8.497  0.00  0.00    +0.000 A 
ATOM     27  N   UNL     1      45.689   3.645   8.236  0.00  0.00    +0.000 N 
ATOM     28  C   UNL     1      45.577   4.687   9.124  0.00  0.00    +0.000 A 
ATOM     29  O   UNL     1      46.158   5.750   8.926  0.00  0.00    +0.000 OA
ATOM     30  C   UNL     1      44.783   4.395  10.306  0.00  0.00    +0.000 A 
ATOM     31  H   UNL     1      46.237   3.823   7.411  0.00  0.00    +0.000 HD
ENDBRANCH  18  21
ENDBRANCH   1  19
TORSDOF 7
ENDMDL
MODEL 8
REMARK VINA RESULT:    -6.418      2.167      2.948
REMARK INTER + INTRA:         -10.099
REMARK INTER:                  -9.410
REMARK INTRA:                  -0.689
REMARK UNBOUND:                -1.055
REMARK  Name = 
REMARK  7 active torsions:
REMARK  status: ('A' for Active; 'I' for Inactive)
REMARK    1  A    between atoms: C_2  and  C_19
REMARK    2  A    between atoms: N_3  and  C_4
REMARK    3  A    between atoms: C_4  and  C_5
REMARK    4  A    between atoms: C_8  and  C_9
REMARK    5  A    between atoms: C_9  and  N_10
REMARK    6  A    between atoms: N_10  and  C_11
REMARK    7  A    between atoms: C_11  and  C_12
REMARK                            x       y       z     vdW  Elec       q    Type
REMARK                         _______ _______ _______ _____ _____    ______ ____
ROOT
ATOM      1  C   UNL     1      47.355   5.819  13.897  0.00  0.00    +0.000 C 
ENDROOT
BRANCH   1   2
ATOM      2  C   UNL     1      46.691   7.154  13.555  0.00  0.00    +0.000 C 
ATOM      3  C   UNL     1      47.456   7.987  12.525  0.00  0.00    +0.000 C 
ATOM      4  C   UNL     1      47.008   7.479  11.158  0.00  0.00    +0.000 C 
ATOM      5  C   UNL     1      45.664   6.766  11.375  0.00  0.00    +0.000 C 
ATOM      6  C   UNL     1      45.342   6.953  12.866  0.00  0.00    +0.000 C 
BRANCH   5   7
ATOM      7  C   UNL     1      45.709   5.299  10.893  0.00  0.00    +0.000 C 
BRANCH   7   8
ATOM      8  N   UNL     1      45.636   5.123   9.444  0.00  0.00    +0.000 NA
ATOM      9  H   UNL     1      46.566   5.157   9.027  0.00  0.00    +0.000 HD
BRANCH   8  10
ATOM     10  C   UNL     1      44.990   3.867   9.083  0.00  0.00    +0.000 C 
BRANCH  10  11
ATOM     11  C   UNL     1      45.910   2.986   8.286  0.00  0.00    +0.000 A 
ATOM     12  C   UNL     1      46.819   3.546   7.382  0.00  0.00    +0.000 A 
ATOM     13  C   UNL     1      47.672   2.702   6.695  0.00  0.00    +0.000 A 
ATOM     14  N   UNL     1      47.680   1.359   6.839  0.00  0.00    +0.000 NA
ATOM     15  C   UNL     1      46.785   0.840   7.709  0.00  0.00    +0.000 A 
ATOM     16  C   UNL     1      45.893   1.599   8.445  0.00  0.00    +0.000 A 
ENDBRANCH  10  11
ENDBRANCH   8  10
ENDBRANCH   7   8
ENDBRANCH   5   7
ENDBRANCH   1   2
BRANCH   1  19
ATOM     17  O   UNL     1      47.670   3.666  15.705  0.00  0.00    +0.000 OA
ATOM     18  C   UNL     1      48.191   4.748  15.956  0.00  0.00    +0.000 C 
ATOM     19  N   UNL     1      48.030   5.850  15.165  0.00  0.00    +0.000 N 
ATOM     20  H   UNL     1      48.564   6.689  15.366  0.00  0.00    +0.000 HD
BRANCH  18  21
ATOM     21  C   UNL     1      49.000   4.958  17.157  0.00  0.00    +0.000 A 
ATOM     22  C   UNL     1      50.382   4.870  17.086  0.00  0.00    +0.000 A 
ATOM     23  S   UNL     1      51.154   5.136  18.584  0.00  0.00    +0.000 S 
ATOM     24  C   UNL     1      49.669   5.423  19.366  0.00  0.00    +0.000 A 
ATOM     25  N   UNL     1      49.619   5.754  20.687  0.00  0.00    +0.000 NA
ATOM     26  C   UNL     1      48.432   5.986  21.139  0.00  0.00    +0.000 A 
ATOM     27  N   UNL     1      47.284   5.907  20.395  0.00  0.00    +0.000 N 
ATOM     28  C   UNL     1      47.278   5.502  19.082  0.00  0.00    +0.000 A 
ATOM     29  O   UNL     1      46.222   5.301  18.489  0.00  0.00    +0.000 OA
ATOM     30  C   UNL     1      48.595   5.283  18.508  0.00  0.00    +0.000 A 
ATOM     31  H   UNL     1      46.382   6.061  20.815  0.00  0.00    +0.000 HD
ENDBRANCH  18  21
ENDBRANCH   1  19
TORSDOF 7
ENDMDL
MODEL 9
REMARK VINA RESULT:    -6.080      1.928      3.011
REMARK INTER + INTRA:          -9.623
REMARK INTER:                  -8.462
REMARK INTRA:                  -1.161
REMARK UNBOUND:                -1.055
REMARK  Name = 
REMARK  7 active torsions:
REMARK  status: ('A' for Active; 'I' for Inactive)
REMARK    1  A    between atoms: C_2  and  C_19
REMARK    2  A    between atoms: N_3  and  C_4
REMARK    3  A    between atoms: C_4  and  C_5
REMARK    4  A    between atoms: C_8  and  C_9
REMARK    5  A    between atoms: C_9  and  N_10
REMARK    6  A    between atoms: N_10  and  C_11
REMARK    7  A    between atoms: C_11  and  C_12
REMARK                            x       y       z     vdW  Elec       q    Type
REMARK                         _______ _______ _______ _____ _____    ______ ____
ROOT
ATOM      1  C   UNL     1      47.470   5.832  14.018  0.00  0.00    +0.000 C 
ENDROOT
BRANCH   1   2
ATOM      2  C   UNL     1      47.724   7.134  13.256  0.00  0.00    +0.000 C 
ATOM      3  C   UNL     1      48.014   6.940  11.766  0.00  0.00    +0.000 C 
ATOM      4  C   UNL     1      46.654   6.870  11.080  0.00  0.00    +0.000 C 
ATOM      5  C   UNL     1      45.645   7.525  12.037  0.00  0.00    +0.000 C 
ATOM      6  C   UNL     1      46.481   8.022  13.227  0.00  0.00    +0.000 C 
BRANCH   5   7
ATOM      7  C   UNL     1      44.493   6.563  12.402  0.00  0.00    +0.000 C 
BRANCH   7   8
ATOM      8  N   UNL     1      43.429   6.469  11.405  0.00  0.00    +0.000 NA
ATOM      9  H   UNL     1      43.769   6.749  10.485  0.00  0.00    +0.000 HD
BRANCH   8  10
ATOM     10  C   UNL     1      42.877   5.122  11.327  0.00  0.00    +0.000 C 
BRANCH  10  11
ATOM     11  C   UNL     1      43.672   4.256  10.392  0.00  0.00    +0.000 A 
ATOM     12  C   UNL     1      44.204   4.789   9.213  0.00  0.00    +0.000 A 
ATOM     13  C   UNL     1      44.959   3.967   8.398  0.00  0.00    +0.000 A 
ATOM     14  N   UNL     1      45.213   2.668   8.667  0.00  0.00    +0.000 NA
ATOM     15  C   UNL     1      44.679   2.171   9.805  0.00  0.00    +0.000 A 
ATOM     16  C   UNL     1      43.913   2.913  10.687  0.00  0.00    +0.000 A 
ENDBRANCH  10  11
ENDBRANCH   8  10
ENDBRANCH   7   8
ENDBRANCH   5   7
ENDBRANCH   1   2
BRANCH   1  19
ATOM     17  O   UNL     1      47.326   3.771  15.951  0.00  0.00    +0.000 OA
ATOM     18  C   UNL     1      47.845   4.844  16.247  0.00  0.00    +0.000 C 
ATOM     19  N   UNL     1      47.893   5.906  15.389  0.00  0.00    +0.000 N 
ATOM     20  H   UNL     1      48.422   6.731  15.649  0.00  0.00    +0.000 HD
BRANCH  18  21
ATOM     21  C   UNL     1      48.422   5.086  17.569  0.00  0.00    +0.000 A 
ATOM     22  C   UNL     1      47.714   4.741  18.709  0.00  0.00    +0.000 A 
ATOM     23  S   UNL     1      48.541   5.105  20.156  0.00  0.00    +0.000 S 
ATOM     24  C   UNL     1      49.893   5.694  19.304  0.00  0.00    +0.000 A 
ATOM     25  N   UNL     1      51.002   6.138  19.960  0.00  0.00    +0.000 NA
ATOM     26  C   UNL     1      51.967   6.514  19.191  0.00  0.00    +0.000 A 
ATOM     27  N   UNL     1      51.924   6.500  17.821  0.00  0.00    +0.000 N 
ATOM     28  C   UNL     1      50.802   6.135  17.118  0.00  0.00    +0.000 A 
ATOM     29  O   UNL     1      50.748   6.274  15.899  0.00  0.00    +0.000 OA
ATOM     30  C   UNL     1      49.705   5.647  17.936  0.00  0.00    +0.000 A 
ATOM     31  H   UNL     1      52.696   6.844  17.275  0.00  0.00    +0.000 HD
ENDBRANCH  18  21
ENDBRANCH   1  19
TORSDOF 7
ENDMDL
