MODEL 1
REMARK VINA RESULT:    -7.758      0.000      0.000
REMARK INTER + INTRA:         -10.000
REMARK INTER:                  -9.573
REMARK INTRA:                  -0.427
REMARK UNBOUND:                -0.427
REMARK  Name = 
REMARK  4 active torsions:
REMARK  status: ('A' for Active; 'I' for Inactive)
REMARK    1  A    between atoms: C_2  and  C_4
REMARK    2  A    between atoms: C_7  and  N_8
REMARK    3  A    between atoms: N_8  and  C_9
REMARK    4  A    between atoms: C_9  and  C_10
REMARK                            x       y       z     vdW  Elec       q    Type
REMARK                         _______ _______ _______ _____ _____    ______ ____
ROOT
ATOM      1  C   UNL     1      46.295   2.258   7.839  0.00  0.00    +0.000 A 
ATOM      2  C   UNL     1      45.380   1.707   8.742  0.00  0.00    +0.000 A 
ATOM      3  C   UNL     1      44.504   2.541   9.449  0.00  0.00    +0.000 A 
ATOM      4  C   UNL     1      44.540   3.931   9.286  0.00  0.00    +0.000 A 
ATOM      5  C   UNL     1      45.411   4.459   8.326  0.00  0.00    +0.000 A 
ATOM      6  C   UNL     1      46.300   3.637   7.625  0.00  0.00    +0.000 A 
ENDROOT
BRANCH   1   8
ATOM      7  N   UNL     1      48.404   2.067   6.630  0.00  0.00    +0.000 N 
ATOM      8  C   UNL     1      47.303   1.426   7.134  0.00  0.00    +0.000 C 
ATOM      9  O   UNL     1      47.178   0.215   7.021  0.00  0.00    +0.000 OA
ATOM     10  H   UNL     1      49.120   1.475   6.229  0.00  0.00    +0.000 HD
ATOM     11  H   UNL     1      48.667   2.999   6.912  0.00  0.00    +0.000 HD
ENDBRANCH   1   8
BRANCH   4  12
ATOM     12  N   UNL     1      43.722   4.818   9.986  0.00  0.00    +0.000 N 
ATOM     13  H   UNL     1      42.845   5.009   9.501  0.00  0.00    +0.000 HD
BRANCH  12  14
ATOM     14  C   UNL     1      43.481   4.569  11.414  0.00  0.00    +0.000 C 
BRANCH  14  15
ATOM     15  C   UNL     1      44.697   4.880  12.275  0.00  0.00    +0.000 A 
ATOM     16  N   UNL     1      45.301   3.855  12.922  0.00  0.00    +0.000 NA
ATOM     17  C   UNL     1      46.407   4.162  13.626  0.00  0.00    +0.000 A 
ATOM     18  C   UNL     1      46.942   5.428  13.689  0.00  0.00    +0.000 A 
ATOM     19  C   UNL     1      46.272   6.392  12.976  0.00  0.00    +0.000 A 
ATOM     20  N   UNL     1      45.160   6.149  12.259  0.00  0.00    +0.000 NA
ENDBRANCH  14  15
ENDBRANCH  12  14
ENDBRANCH   4  12
TORSDOF 4
ENDMDL
MODEL 2
REMARK VINA RESULT:    -6.970      2.799      6.131
REMARK INTER + INTRA:          -9.028
REMARK INTER:                  -8.688
REMARK INTRA:                  -0.340
REMARK UNBOUND:                -0.427
REMARK  Name = 
REMARK  4 active torsions:
REMARK  status: ('A' for Active; 'I' for Inactive)
REMARK    1  A    between atoms: C_2  and  C_4
REMARK    2  A    between atoms: C_7  and  N_8
REMARK    3  A    between atoms: N_8  and  C_9
REMARK    4  A    between atoms: C_9  and  C_10
REMARK                            x       y       z     vdW  Elec       q    Type
REMARK                         _______ _______ _______ _____ _____    ______ ____
ROOT
ATOM      1  C   UNL     1      46.446   4.862  13.452  0.00  0.00    +0.000 A 
ATOM      2  C   UNL     1      46.658   6.027  12.708  0.00  0.00    +0.000 A 
ATOM      3  C   UNL     1      46.136   6.138  11.413  0.00  0.00    +0.000 A 
ATOM      4  C   UNL     1      45.417   5.087  10.832  0.00  0.00    +0.000 A 
ATOM      5  C   UNL     1      45.152   3.958  11.616  0.00  0.00    +0.000 A 
ATOM      6  C   UNL     1      45.680   3.831  12.904  0.00  0.00    +0.000 A 
ENDROOT
BRANCH   1   8
ATOM      7  N   UNL     1      47.752   5.711  15.328  0.00  0.00    +0.000 N 
ATOM      8  C   UNL     1      47.054   4.661  14.791  0.00  0.00    +0.000 C 
ATOM      9  O   UNL     1      46.927   3.614  15.410  0.00  0.00    +0.000 OA
ATOM     10  H   UNL     1      48.086   5.587  16.275  0.00  0.00    +0.000 HD
ATOM     11  H   UNL     1      47.672   6.653  14.975  0.00  0.00    +0.000 HD
ENDBRANCH   1   8
BRANCH   4  12
ATOM     12  N   UNL     1      44.902   5.119   9.535  0.00  0.00    +0.000 N 
ATOM     13  H   UNL     1      45.520   5.598   8.879  0.00  0.00    +0.000 HD
BRANCH  12  14
ATOM     14  C   UNL     1      44.399   3.867   8.952  0.00  0.00    +0.000 C 
BRANCH  14  15
ATOM     15  C   UNL     1      45.462   3.125   8.154  0.00  0.00    +0.000 A 
ATOM     16  N   UNL     1      46.161   3.816   7.223  0.00  0.00    +0.000 NA
ATOM     17  C   UNL     1      47.131   3.139   6.580  0.00  0.00    +0.000 A 
ATOM     18  C   UNL     1      47.445   1.825   6.843  0.00  0.00    +0.000 A 
ATOM     19  C   UNL     1      46.697   1.222   7.825  0.00  0.00    +0.000 A 
ATOM     20  N   UNL     1      45.712   1.842   8.498  0.00  0.00    +0.000 NA
ENDBRANCH  14  15
ENDBRANCH  12  14
ENDBRANCH   4  12
TORSDOF 4
ENDMDL
MODEL 3
REMARK VINA RESULT:    -6.957      2.799      6.081
REMARK INTER + INTRA:          -9.012
REMARK INTER:                  -8.644
REMARK INTRA:                  -0.368
REMARK UNBOUND:                -0.427
REMARK  Name = 
REMARK  4 active torsions:
REMARK  status: ('A' for Active; 'I' for Inactive)
REMARK    1  A    between atoms: C_2  and  C_4
REMARK    2  A    between atoms: C_7  and  N_8
REMARK    3  A    between atoms: N_8  and  C_9
REMARK    4  A    between atoms: C_9  and  C_10
REMARK                            x       y       z     vdW  Elec       q    Type
REMARK                         _______ _______ _______ _____ _____    ______ ____
ROOT
ATOM      1  C   UNL     1      46.444   5.047  13.140  0.00  0.00    +0.000 A 
ATOM      2  C   UNL     1      46.518   6.073  12.194  0.00  0.00    +0.000 A 
ATOM      3  C   UNL     1      45.866   5.939  10.961  0.00  0.00    +0.000 A 
ATOM      4  C   UNL     1      45.151   4.779  10.644  0.00  0.00    +0.000 A 
ATOM      5  C   UNL     1      45.025   3.793  11.630  0.00  0.00    +0.000 A 
ATOM      6  C   UNL     1      45.684   3.910  12.859  0.00  0.00    +0.000 A 
ENDROOT
BRANCH   1   8
ATOM      7  N   UNL     1      46.714   4.345  15.460  0.00  0.00    +0.000 N 
ATOM      8  C   UNL     1      47.190   5.103  14.423  0.00  0.00    +0.000 C 
ATOM      9  O   UNL     1      48.202   5.777  14.554  0.00  0.00    +0.000 OA
ATOM     10  H   UNL     1      47.281   4.329  16.298  0.00  0.00    +0.000 HD
ATOM     11  H   UNL     1      46.048   3.599  15.327  0.00  0.00    +0.000 HD
ENDBRANCH   1   8
BRANCH   4  12
ATOM     12  N   UNL     1      44.511   4.567   9.423  0.00  0.00    +0.000 N 
ATOM     13  H   UNL     1      44.849   5.191   8.689  0.00  0.00    +0.000 HD
BRANCH  12  14
ATOM     14  C   UNL     1      44.398   3.190   8.922  0.00  0.00    +0.000 C 
BRANCH  14  15
ATOM     15  C   UNL     1      45.591   2.780   8.069  0.00  0.00    +0.000 A 
ATOM     16  N   UNL     1      46.117   1.546   8.257  0.00  0.00    +0.000 NA
ATOM     17  C   UNL     1      47.132   1.200   7.444  0.00  0.00    +0.000 A 
ATOM     18  C   UNL     1      47.621   2.013   6.447  0.00  0.00    +0.000 A 
ATOM     19  C   UNL     1      47.002   3.232   6.319  0.00  0.00    +0.000 A 
ATOM     20  N   UNL     1      45.987   3.638   7.104  0.00  0.00    +0.000 NA
ENDBRANCH  14  15
ENDBRANCH  12  14
ENDBRANCH   4  12
TORSDOF 4
ENDMDL
MODEL 4
REMARK VINA RESULT:    -5.799      3.721      5.769
REMARK INTER + INTRA:          -7.582
REMARK INTER:                  -7.293
REMARK INTRA:                  -0.290
REMARK UNBOUND:                -0.427
REMARK  Name = 
REMARK  4 active torsions:
REMARK  status: ('A' for Active; 'I' for Inactive)
REMARK    1  A    between atoms: C_2  and  C_4
REMARK    2  A    between atoms: C_7  and  N_8
REMARK    3  A    between atoms: N_8  and  C_9
REMARK    4  A    between atoms: C_9  and  C_10
REMARK                            x       y       z     vdW  Elec       q    Type
REMARK                         _______ _______ _______ _____ _____    ______ ____
ROOT
ATOM      1  C   UNL     1      45.036   4.326  11.664  0.00  0.00    +0.000 A 
ATOM      2  C   UNL     1      45.287   5.666  11.978  0.00  0.00    +0.000 A 
ATOM      3  C   UNL     1      46.066   5.991  13.095  0.00  0.00    +0.000 A 
ATOM      4  C   UNL     1      46.589   4.993  13.926  0.00  0.00    +0.000 A 
ATOM      5  C   UNL     1      46.390   3.657  13.557  0.00  0.00    +0.000 A 
ATOM      6  C   UNL     1      45.601   3.322  12.452  0.00  0.00    +0.000 A 
ENDROOT
BRANCH   1   8
ATOM      7  N   UNL     1      44.056   4.792   9.480  0.00  0.00    +0.000 N 
ATOM      8  C   UNL     1      44.142   3.934  10.545  0.00  0.00    +0.000 C 
ATOM      9  O   UNL     1      43.520   2.881  10.552  0.00  0.00    +0.000 OA
ATOM     10  H   UNL     1      43.510   4.470   8.691  0.00  0.00    +0.000 HD
ATOM     11  H   UNL     1      44.725   5.529   9.321  0.00  0.00    +0.000 HD
ENDBRANCH   1   8
BRANCH   4  12
ATOM     12  N   UNL     1      47.341   5.249  15.073  0.00  0.00    +0.000 N 
ATOM     13  H   UNL     1      47.212   6.199  15.423  0.00  0.00    +0.000 HD
BRANCH  12  14
ATOM     14  C   UNL     1      47.288   4.279  16.175  0.00  0.00    +0.000 C 
BRANCH  14  15
ATOM     15  C   UNL     1      48.672   3.825  16.622  0.00  0.00    +0.000 A 
ATOM     16  N   UNL     1      49.534   4.763  17.082  0.00  0.00    +0.000 NA
ATOM     17  C   UNL     1      50.724   4.315  17.521  0.00  0.00    +0.000 A 
ATOM     18  C   UNL     1      51.076   2.984  17.543  0.00  0.00    +0.000 A 
ATOM     19  C   UNL     1      50.122   2.111  17.082  0.00  0.00    +0.000 A 
ATOM     20  N   UNL     1      48.918   2.497  16.625  0.00  0.00    +0.000 NA
ENDBRANCH  14  15
ENDBRANCH  12  14
ENDBRANCH   4  12
TORSDOF 4
ENDMDL
MODEL 5
REMARK VINA RESULT:    -5.765      2.988      5.880
REMARK INTER + INTRA:          -7.540
REMARK INTER:                  -7.107
REMARK INTRA:                  -0.433
REMARK UNBOUND:                -0.427
REMARK  Name = 
REMARK  4 active torsions:
REMARK  status: ('A' for Active; 'I' for Inactive)
REMARK    1  A    between atoms: C_2  and  C_4
REMARK    2  A    between atoms: C_7  and  N_8
REMARK    3  A    between atoms: N_8  and  C_9
REMARK    4  A    between atoms: C_9  and  C_10
REMARK                            x       y       z     vdW  Elec       q    Type
REMARK                         _______ _______ _______ _____ _____    ______ ____
ROOT
ATOM      1  C   UNL     1      47.531   6.359  13.254  0.00  0.00    +0.000 A 
ATOM      2  C   UNL     1      47.197   5.025  13.507  0.00  0.00    +0.000 A 
ATOM      3  C   UNL     1      45.958   4.520  13.090  0.00  0.00    +0.000 A 
ATOM      4  C   UNL     1      45.029   5.337  12.436  0.00  0.00    +0.000 A 
ATOM      5  C   UNL     1      45.408   6.648  12.125  0.00  0.00    +0.000 A 
ATOM      6  C   UNL     1      46.636   7.166  12.549  0.00  0.00    +0.000 A 
ENDROOT
BRANCH   1   8
ATOM      7  N   UNL     1      49.346   7.969  13.007  0.00  0.00    +0.000 N 
ATOM      8  C   UNL     1      48.792   6.963  13.754  0.00  0.00    +0.000 C 
ATOM      9  O   UNL     1      49.312   6.602  14.800  0.00  0.00    +0.000 OA
ATOM     10  H   UNL     1      50.156   8.427  13.405  0.00  0.00    +0.000 HD
ATOM     11  H   UNL     1      48.832   8.459  12.290  0.00  0.00    +0.000 HD
ENDBRANCH   1   8
BRANCH   4  12
ATOM     12  N   UNL     1      43.766   4.908  12.028  0.00  0.00    +0.000 N 
ATOM     13  H   UNL     1      43.019   5.252  12.633  0.00  0.00    +0.000 HD
BRANCH  12  14
ATOM     14  C   UNL     1      43.398   5.062  10.613  0.00  0.00    +0.000 C 
BRANCH  14  15
ATOM     15  C   UNL     1      44.184   4.132   9.700  0.00  0.00    +0.000 A 
ATOM     16  N   UNL     1      45.039   4.686   8.807  0.00  0.00    +0.000 NA
ATOM     17  C   UNL     1      45.758   3.829   8.059  0.00  0.00    +0.000 A 
ATOM     18  C   UNL     1      45.679   2.460   8.180  0.00  0.00    +0.000 A 
ATOM     19  C   UNL     1      44.804   1.999   9.133  0.00  0.00    +0.000 A 
ATOM     20  N   UNL     1      44.054   2.804   9.907  0.00  0.00    +0.000 NA
ENDBRANCH  14  15
ENDBRANCH  12  14
ENDBRANCH   4  12
TORSDOF 4
ENDMDL
MODEL 6
REMARK VINA RESULT:    -5.731      3.193      4.862
REMARK INTER + INTRA:          -7.499
REMARK INTER:                  -7.236
REMARK INTRA:                  -0.263
REMARK UNBOUND:                -0.427
REMARK  Name = 
REMARK  4 active torsions:
REMARK  status: ('A' for Active; 'I' for Inactive)
REMARK    1  A    between atoms: C_2  and  C_4
REMARK    2  A    between atoms: C_7  and  N_8
REMARK    3  A    between atoms: N_8  and  C_9
REMARK    4  A    between atoms: C_9  and  C_10
REMARK                            x       y       z     vdW  Elec       q    Type
REMARK                         _______ _______ _______ _____ _____    ______ ____
ROOT
ATOM      1  C   UNL     1      45.468   4.691  10.337  0.00  0.00    +0.000 A 
ATOM      2  C   UNL     1      46.009   5.880  10.836  0.00  0.00    +0.000 A 
ATOM      3  C   UNL     1      46.260   6.015  12.208  0.00  0.00    +0.000 A 
ATOM      4  C   UNL     1      45.958   4.981  13.103  0.00  0.00    +0.000 A 
ATOM      5  C   UNL     1      45.486   3.773  12.578  0.00  0.00    +0.000 A 
ATOM      6  C   UNL     1      45.218   3.632  11.212  0.00  0.00    +0.000 A 
ENDROOT
BRANCH   1   8
ATOM      7  N   UNL     1      43.801   4.200   8.626  0.00  0.00    +0.000 N 
ATOM      8  C   UNL     1      45.100   4.532   8.907  0.00  0.00    +0.000 C 
ATOM      9  O   UNL     1      45.909   4.710   8.007  0.00  0.00    +0.000 OA
ATOM     10  H   UNL     1      43.548   4.179   7.646  0.00  0.00    +0.000 HD
ATOM     11  H   UNL     1      43.059   4.289   9.303  0.00  0.00    +0.000 HD
ENDBRANCH   1   8
BRANCH   4  12
ATOM     12  N   UNL     1      46.149   5.065  14.482  0.00  0.00    +0.000 N 
ATOM     13  H   UNL     1      45.761   4.264  14.981  0.00  0.00    +0.000 HD
BRANCH  12  14
ATOM     14  C   UNL     1      47.492   5.387  14.984  0.00  0.00    +0.000 C 
BRANCH  14  15
ATOM     15  C   UNL     1      47.863   4.580  16.220  0.00  0.00    +0.000 A 
ATOM     16  N   UNL     1      46.992   3.638  16.654  0.00  0.00    +0.000 NA
ATOM     17  C   UNL     1      47.382   2.907  17.714  0.00  0.00    +0.000 A 
ATOM     18  C   UNL     1      48.601   3.056  18.335  0.00  0.00    +0.000 A 
ATOM     19  C   UNL     1      49.424   4.018  17.803  0.00  0.00    +0.000 A 
ATOM     20  N   UNL     1      49.089   4.785  16.749  0.00  0.00    +0.000 NA
ENDBRANCH  14  15
ENDBRANCH  12  14
ENDBRANCH   4  12
TORSDOF 4
ENDMDL
MODEL 7
REMARK VINA RESULT:    -5.310      5.082      8.584
REMARK INTER + INTRA:          -6.979
REMARK INTER:                  -6.742
REMARK INTRA:                  -0.237
REMARK UNBOUND:                -0.427
REMARK  Name = 
REMARK  4 active torsions:
REMARK  status: ('A' for Active; 'I' for Inactive)
REMARK    1  A    between atoms: C_2  and  C_4
REMARK    2  A    between atoms: C_7  and  N_8
REMARK    3  A    between atoms: N_8  and  C_9
REMARK    4  A    between atoms: C_9  and  C_10
REMARK                            x       y       z     vdW  Elec       q    Type
REMARK                         _______ _______ _______ _____ _____    ______ ____
ROOT
ATOM      1  C   UNL     1      48.894   4.501  18.508  0.00  0.00    +0.000 A 
ATOM      2  C   UNL     1      48.782   5.505  17.541  0.00  0.00    +0.000 A 
ATOM      3  C   UNL     1      48.091   5.256  16.347  0.00  0.00    +0.000 A 
ATOM      4  C   UNL     1      47.522   4.004  16.089  0.00  0.00    +0.000 A 
ATOM      5  C   UNL     1      47.580   3.034  17.098  0.00  0.00    +0.000 A 
ATOM      6  C   UNL     1      48.279   3.267  18.286  0.00  0.00    +0.000 A 
ENDROOT
BRANCH   1   8
ATOM      7  N   UNL     1      49.099   4.335  20.932  0.00  0.00    +0.000 N 
ATOM      8  C   UNL     1      49.691   4.686  19.747  0.00  0.00    +0.000 C 
ATOM      9  O   UNL     1      50.836   5.113  19.722  0.00  0.00    +0.000 OA
ATOM     10  H   UNL     1      49.685   4.388  21.755  0.00  0.00    +0.000 HD
ATOM     11  H   UNL     1      48.273   3.758  20.977  0.00  0.00    +0.000 HD
ENDBRANCH   1   8
BRANCH   4  12
ATOM     12  N   UNL     1      46.855   3.680  14.908  0.00  0.00    +0.000 N 
ATOM     13  H   UNL     1      46.002   3.143  15.073  0.00  0.00    +0.000 HD
BRANCH  12  14
ATOM     14  C   UNL     1      46.613   4.746  13.927  0.00  0.00    +0.000 C 
BRANCH  14  15
ATOM     15  C   UNL     1      45.273   4.598  13.220  0.00  0.00    +0.000 A 
ATOM     16  N   UNL     1      44.560   5.720  12.960  0.00  0.00    +0.000 NA
ATOM     17  C   UNL     1      43.409   5.551  12.283  0.00  0.00    +0.000 A 
ATOM     18  C   UNL     1      42.958   4.330  11.838  0.00  0.00    +0.000 A 
ATOM     19  C   UNL     1      43.767   3.258  12.128  0.00  0.00    +0.000 A 
ATOM     20  N   UNL     1      44.924   3.360  12.805  0.00  0.00    +0.000 NA
ENDBRANCH  14  15
ENDBRANCH  12  14
ENDBRANCH   4  12
TORSDOF 4
ENDMDL
MODEL 8
REMARK VINA RESULT:    -5.235      5.356      8.198
REMARK INTER + INTRA:          -6.886
REMARK INTER:                  -6.604
REMARK INTRA:                  -0.282
REMARK UNBOUND:                -0.427
REMARK  Name = 
REMARK  4 active torsions:
REMARK  status: ('A' for Active; 'I' for Inactive)
REMARK    1  A    between atoms: C_2  and  C_4
REMARK    2  A    between atoms: C_7  and  N_8
REMARK    3  A    between atoms: N_8  and  C_9
REMARK    4  A    between atoms: C_9  and  C_10
REMARK                            x       y       z     vdW  Elec       q    Type
REMARK                         _______ _______ _______ _____ _____    ______ ____
ROOT
ATOM      1  C   UNL     1      50.934   2.522  17.478  0.00  0.00    +0.000 A 
ATOM      2  C   UNL     1      50.961   3.903  17.694  0.00  0.00    +0.000 A 
ATOM      3  C   UNL     1      49.852   4.689  17.355  0.00  0.00    +0.000 A 
ATOM      4  C   UNL     1      48.711   4.117  16.778  0.00  0.00    +0.000 A 
ATOM      5  C   UNL     1      48.672   2.725  16.637  0.00  0.00    +0.000 A 
ATOM      6  C   UNL     1      49.779   1.933  16.958  0.00  0.00    +0.000 A 
ENDROOT
BRANCH   1   8
ATOM      7  N   UNL     1      51.877   0.367  18.118  0.00  0.00    +0.000 N 
ATOM      8  C   UNL     1      52.115   1.660  17.736  0.00  0.00    +0.000 C 
ATOM      9  O   UNL     1      53.259   2.071  17.596  0.00  0.00    +0.000 OA
ATOM     10  H   UNL     1      52.691  -0.229  18.207  0.00  0.00    +0.000 HD
ATOM     11  H   UNL     1      50.978  -0.077  18.005  0.00  0.00    +0.000 HD
ENDBRANCH   1   8
BRANCH   4  12
ATOM     12  N   UNL     1      47.589   4.847  16.384  0.00  0.00    +0.000 N 
ATOM     13  H   UNL     1      47.775   5.848  16.320  0.00  0.00    +0.000 HD
BRANCH  12  14
ATOM     14  C   UNL     1      46.830   4.384  15.214  0.00  0.00    +0.000 C 
BRANCH  14  15
ATOM     15  C   UNL     1      47.084   5.237  13.979  0.00  0.00    +0.000 A 
ATOM     16  N   UNL     1      46.077   5.380  13.083  0.00  0.00    +0.000 NA
ATOM     17  C   UNL     1      46.322   6.188  12.035  0.00  0.00    +0.000 A 
ATOM     18  C   UNL     1      47.505   6.869  11.858  0.00  0.00    +0.000 A 
ATOM     19  C   UNL     1      48.451   6.678  12.835  0.00  0.00    +0.000 A 
ATOM     20  N   UNL     1      48.269   5.881  13.902  0.00  0.00    +0.000 NA
ENDBRANCH  14  15
ENDBRANCH  12  14
ENDBRANCH   4  12
TORSDOF 4
ENDMDL
MODEL 9
REMARK VINA RESULT:    -4.775      4.001      6.325
REMARK INTER + INTRA:          -6.319
REMARK INTER:                  -6.000
REMARK INTRA:                  -0.319
REMARK UNBOUND:                -0.427
REMARK  Name = 
REMARK  4 active torsions:
REMARK  status: ('A' for Active; 'I' for Inactive)
REMARK    1  A    between atoms: C_2  and  C_4
REMARK    2  A    between atoms: C_7  and  N_8
REMARK    3  A    between atoms: N_8  and  C_9
REMARK    4  A    between atoms: C_9  and  C_10
REMARK                            x       y       z     vdW  Elec       q    Type
REMARK                         _______ _______ _______ _____ _____    ______ ____
ROOT
ATOM      1  C   UNL     1      49.839   7.864  12.493  0.00  0.00    +0.000 A 
ATOM      2  C   UNL     1      48.776   7.749  11.591  0.00  0.00    +0.000 A 
ATOM      3  C   UNL     1      47.573   7.155  11.996  0.00  0.00    +0.000 A 
ATOM      4  C   UNL     1      47.418   6.650  13.292  0.00  0.00    +0.000 A 
ATOM      5  C   UNL     1      48.464   6.839  14.203  0.00  0.00    +0.000 A 
ATOM      6  C   UNL     1      49.674   7.417  13.805  0.00  0.00    +0.000 A 
ENDROOT
BRANCH   1   8
ATOM      7  N   UNL     1      51.556   8.187  10.792  0.00  0.00    +0.000 N 
ATOM      8  C   UNL     1      51.162   8.402  12.087  0.00  0.00    +0.000 C 
ATOM      9  O   UNL     1      51.870   9.032  12.860  0.00  0.00    +0.000 OA
ATOM     10  H   UNL     1      52.419   8.633  10.509  0.00  0.00    +0.000 HD
ATOM     11  H   UNL     1      50.914   7.901  10.069  0.00  0.00    +0.000 HD
ENDBRANCH   1   8
BRANCH   4  12
ATOM     12  N   UNL     1      46.261   6.015  13.747  0.00  0.00    +0.000 N 
ATOM     13  H   UNL     1      46.101   6.160  14.744  0.00  0.00    +0.000 HD
BRANCH  12  14
ATOM     14  C   UNL     1      45.017   6.203  12.989  0.00  0.00    +0.000 C 
BRANCH  14  15
ATOM     15  C   UNL     1      44.573   4.936  12.271  0.00  0.00    +0.000 A 
ATOM     16  N   UNL     1      44.044   3.933  13.012  0.00  0.00    +0.000 NA
ATOM     17  C   UNL     1      43.610   2.854  12.334  0.00  0.00    +0.000 A 
ATOM     18  C   UNL     1      43.660   2.746  10.963  0.00  0.00    +0.000 A 
ATOM     19  C   UNL     1      44.188   3.827  10.301  0.00  0.00    +0.000 A 
ATOM     20  N   UNL     1      44.643   4.930  10.922  0.00  0.00    +0.000 NA
ENDBRANCH  14  15
ENDBRANCH  12  14
ENDBRANCH   4  12
TORSDOF 4
ENDMDL
