MODEL 1
REMARK VINA RESULT:    -8.203      0.000      0.000
REMARK INTER + INTRA:         -11.940
REMARK INTER:                 -11.080
REMARK INTRA:                  -0.860
REMARK UNBOUND:                -0.860
REMARK  Name = 
REMARK  7 active torsions:
REMARK  status: ('A' for Active; 'I' for Inactive)
REMARK    1  A    between atoms: C_1  and  O_2
REMARK    2  A    between atoms: O_2  and  C_3
REMARK    3  A    between atoms: C_6  and  C_7
REMARK    4  A    between atoms: C_11  and  C_12
REMARK    5  A    between atoms: C_12  and  O_13
REMARK    6  A    between atoms: O_13  and  C_14
REMARK    7  A    between atoms: C_17  and  C_18
REMARK                            x       y       z     vdW  Elec       q    Type
REMARK                         _______ _______ _______ _____ _____    ______ ____
ROOT
ATOM      1  C   UNL     1      46.636   6.465  12.400  0.00  0.00    +0.000 A 
ATOM      2  C   UNL     1      47.170   5.569  13.342  0.00  0.00    +0.000 A 
ATOM      3  C   UNL     1      46.578   4.329  13.590  0.00  0.00    +0.000 A 
ATOM      4  C   UNL     1      45.426   3.959  12.905  0.00  0.00    +0.000 A 
ATOM      5  C   UNL     1      44.854   4.828  11.970  0.00  0.00    +0.000 A 
ATOM      6  C   UNL     1      45.481   6.055  11.707  0.00  0.00    +0.000 A 
ENDROOT
BRANCH   1  10
ATOM      7  C   UNL     1      48.422  10.340  11.747  0.00  0.00    +0.000 A 
ATOM      8  C   UNL     1      47.080  10.237  12.102  0.00  0.00    +0.000 A 
ATOM      9  C   UNL     1      46.499   8.980  12.306  0.00  0.00    +0.000 A 
ATOM     10  C   UNL     1      47.242   7.795  12.173  0.00  0.00    +0.000 A 
ATOM     11  C   UNL     1      48.597   7.927  11.824  0.00  0.00    +0.000 A 
ATOM     12  C   UNL     1      49.179   9.180  11.613  0.00  0.00    +0.000 A 
BRANCH   7  14
ATOM     13  C   UNL     1      50.033  11.472  10.433  0.00  0.00    +0.000 C 
ATOM     14  O   UNL     1      49.100  11.503  11.504  0.00  0.00    +0.000 OA
ENDBRANCH   7  14
ENDBRANCH   1  10
BRANCH   5  15
ATOM     15  C   UNL     1      43.559   4.480  11.282  0.00  0.00    +0.000 C 
BRANCH  15  16
ATOM     16  O   UNL     1      43.668   4.721   9.879  0.00  0.00    +0.000 OA
BRANCH  16  17
ATOM     17  C   UNL     1      44.534   3.908   9.198  0.00  0.00    +0.000 A 
ATOM     18  C   UNL     1      45.472   4.316   8.254  0.00  0.00    +0.000 A 
ATOM     19  C   UNL     1      46.301   3.370   7.648  0.00  0.00    +0.000 A 
ATOM     20  C   UNL     1      46.159   2.037   8.008  0.00  0.00    +0.000 A 
ATOM     21  N   UNL     1      45.250   1.594   8.921  0.00  0.00    +0.000 NA
ATOM     22  C   UNL     1      44.465   2.547   9.488  0.00  0.00    +0.000 A 
BRANCH  20  23
ATOM     23  C   UNL     1      47.054   1.010   7.384  0.00  0.00    +0.000 C 
ATOM     24  N   UNL     1      46.743  -0.290   7.664  0.00  0.00    +0.000 N 
ATOM     25  O   UNL     1      48.006   1.309   6.674  0.00  0.00    +0.000 OA
ATOM     26  H   UNL     1      45.959  -0.499   8.269  0.00  0.00    +0.000 HD
ATOM     27  H   UNL     1      47.319  -1.034   7.291  0.00  0.00    +0.000 HD
ENDBRANCH  20  23
ENDBRANCH  16  17
ENDBRANCH  15  16
ENDBRANCH   5  15
TORSDOF 6
ENDMDL
MODEL 2
REMARK VINA RESULT:    -8.123      2.911      4.483
REMARK INTER + INTRA:         -11.832
REMARK INTER:                 -11.002
REMARK INTRA:                  -0.830
REMARK UNBOUND:                -0.860
REMARK  Name = 
REMARK  7 active torsions:
REMARK  status: ('A' for Active; 'I' for Inactive)
REMARK    1  A    between atoms: C_1  and  O_2
REMARK    2  A    between atoms: O_2  and  C_3
REMARK    3  A    between atoms: C_6  and  C_7
REMARK    4  A    between atoms: C_11  and  C_12
REMARK    5  A    between atoms: C_12  and  O_13
REMARK    6  A    between atoms: O_13  and  C_14
REMARK    7  A    between atoms: C_17  and  C_18
REMARK                            x       y       z     vdW  Elec       q    Type
REMARK                         _______ _______ _______ _____ _____    ______ ____
ROOT
ATOM      1  C   UNL     1      46.786   5.543  13.700  0.00  0.00    +0.000 A 
ATOM      2  C   UNL     1      47.324   6.606  12.956  0.00  0.00    +0.000 A 
ATOM      3  C   UNL     1      46.748   7.024  11.755  0.00  0.00    +0.000 A 
ATOM      4  C   UNL     1      45.620   6.377  11.262  0.00  0.00    +0.000 A 
ATOM      5  C   UNL     1      45.062   5.304  11.964  0.00  0.00    +0.000 A 
ATOM      6  C   UNL     1      45.633   4.919  13.187  0.00  0.00    +0.000 A 
ENDROOT
BRANCH   1  10
ATOM      7  C   UNL     1      48.671   4.190  17.340  0.00  0.00    +0.000 A 
ATOM      8  C   UNL     1      47.823   3.343  16.633  0.00  0.00    +0.000 A 
ATOM      9  C   UNL     1      47.205   3.784  15.457  0.00  0.00    +0.000 A 
ATOM     10  C   UNL     1      47.426   5.076  14.949  0.00  0.00    +0.000 A 
ATOM     11  C   UNL     1      48.295   5.907  15.676  0.00  0.00    +0.000 A 
ATOM     12  C   UNL     1      48.907   5.472  16.855  0.00  0.00    +0.000 A 
BRANCH   7  14
ATOM     13  C   UNL     1      50.615   4.444  18.666  0.00  0.00    +0.000 C 
ATOM     14  O   UNL     1      49.318   3.886  18.506  0.00  0.00    +0.000 OA
ENDBRANCH   7  14
ENDBRANCH   1  10
BRANCH   5  15
ATOM     15  C   UNL     1      43.893   4.536  11.403  0.00  0.00    +0.000 C 
BRANCH  15  16
ATOM     16  O   UNL     1      43.841   4.687   9.985  0.00  0.00    +0.000 OA
BRANCH  16  17
ATOM     17  C   UNL     1      44.674   3.873   9.265  0.00  0.00    +0.000 A 
ATOM     18  C   UNL     1      45.622   4.287   8.332  0.00  0.00    +0.000 A 
ATOM     19  C   UNL     1      46.413   3.338   7.682  0.00  0.00    +0.000 A 
ATOM     20  C   UNL     1      46.224   1.996   7.989  0.00  0.00    +0.000 A 
ATOM     21  N   UNL     1      45.305   1.549   8.887  0.00  0.00    +0.000 NA
ATOM     22  C   UNL     1      44.558   2.505   9.498  0.00  0.00    +0.000 A 
BRANCH  20  23
ATOM     23  C   UNL     1      47.079   0.964   7.317  0.00  0.00    +0.000 C 
ATOM     24  N   UNL     1      46.819  -0.331   7.662  0.00  0.00    +0.000 N 
ATOM     25  O   UNL     1      47.958   1.257   6.515  0.00  0.00    +0.000 OA
ATOM     26  H   UNL     1      46.097  -0.533   8.342  0.00  0.00    +0.000 HD
ATOM     27  H   UNL     1      47.373  -1.077   7.261  0.00  0.00    +0.000 HD
ENDBRANCH  20  23
ENDBRANCH  16  17
ENDBRANCH  15  16
ENDBRANCH   5  15
TORSDOF 6
ENDMDL
MODEL 3
REMARK VINA RESULT:    -8.060      1.069      1.304
REMARK INTER + INTRA:         -11.746
REMARK INTER:                 -10.859
REMARK INTRA:                  -0.887
REMARK UNBOUND:                -0.860
REMARK  Name = 
REMARK  7 active torsions:
REMARK  status: ('A' for Active; 'I' for Inactive)
REMARK    1  A    between atoms: C_1  and  O_2
REMARK    2  A    between atoms: O_2  and  C_3
REMARK    3  A    between atoms: C_6  and  C_7
REMARK    4  A    between atoms: C_11  and  C_12
REMARK    5  A    between atoms: C_12  and  O_13
REMARK    6  A    between atoms: O_13  and  C_14
REMARK    7  A    between atoms: C_17  and  C_18
REMARK                            x       y       z     vdW  Elec       q    Type
REMARK                         _______ _______ _______ _____ _____    ______ ____
ROOT
ATOM      1  C   UNL     1      46.669   6.281  12.421  0.00  0.00    +0.000 A 
ATOM      2  C   UNL     1      47.291   5.395  13.318  0.00  0.00    +0.000 A 
ATOM      3  C   UNL     1      46.781   4.117  13.555  0.00  0.00    +0.000 A 
ATOM      4  C   UNL     1      45.624   3.697  12.905  0.00  0.00    +0.000 A 
ATOM      5  C   UNL     1      44.968   4.554  12.016  0.00  0.00    +0.000 A 
ATOM      6  C   UNL     1      45.513   5.822  11.762  0.00  0.00    +0.000 A 
ENDROOT
BRANCH   1  10
ATOM      7  C   UNL     1      48.204  10.269  11.807  0.00  0.00    +0.000 A 
ATOM      8  C   UNL     1      46.850  10.070  12.064  0.00  0.00    +0.000 A 
ATOM      9  C   UNL     1      46.351   8.776  12.256  0.00  0.00    +0.000 A 
ATOM     10  C   UNL     1      47.189   7.649  12.207  0.00  0.00    +0.000 A 
ATOM     11  C   UNL     1      48.553   7.878  11.956  0.00  0.00    +0.000 A 
ATOM     12  C   UNL     1      49.053   9.168  11.757  0.00  0.00    +0.000 A 
BRANCH   7  14
ATOM     13  C   UNL     1      49.758  11.516  10.530  0.00  0.00    +0.000 C 
ATOM     14  O   UNL     1      48.808  11.475  11.586  0.00  0.00    +0.000 OA
ENDBRANCH   7  14
ENDBRANCH   1  10
BRANCH   5  15
ATOM     15  C   UNL     1      43.668   4.149  11.368  0.00  0.00    +0.000 C 
BRANCH  15  16
ATOM     16  O   UNL     1      43.701   4.446   9.973  0.00  0.00    +0.000 OA
BRANCH  16  17
ATOM     17  C   UNL     1      44.622   3.752   9.235  0.00  0.00    +0.000 A 
ATOM     18  C   UNL     1      44.813   2.373   9.246  0.00  0.00    +0.000 A 
ATOM     19  C   UNL     1      45.787   1.802   8.425  0.00  0.00    +0.000 A 
ATOM     20  C   UNL     1      46.545   2.639   7.616  0.00  0.00    +0.000 A 
ATOM     21  N   UNL     1      46.396   3.991   7.579  0.00  0.00    +0.000 NA
ATOM     22  C   UNL     1      45.437   4.506   8.392  0.00  0.00    +0.000 A 
BRANCH  20  23
ATOM     23  C   UNL     1      47.580   2.042   6.711  0.00  0.00    +0.000 C 
ATOM     24  N   UNL     1      48.027   2.856   5.711  0.00  0.00    +0.000 N 
ATOM     25  O   UNL     1      47.998   0.899   6.851  0.00  0.00    +0.000 OA
ATOM     26  H   UNL     1      47.647   3.790   5.615  0.00  0.00    +0.000 HD
ATOM     27  H   UNL     1      48.712   2.510   5.051  0.00  0.00    +0.000 HD
ENDBRANCH  20  23
ENDBRANCH  16  17
ENDBRANCH  15  16
ENDBRANCH   5  15
TORSDOF 6
ENDMDL
MODEL 4
REMARK VINA RESULT:    -7.968      1.901      2.592
REMARK INTER + INTRA:         -11.622
REMARK INTER:                 -10.613
REMARK INTRA:                  -1.010
REMARK UNBOUND:                -0.860
REMARK  Name = 
REMARK  7 active torsions:
REMARK  status: ('A' for Active; 'I' for Inactive)
REMARK    1  A    between atoms: C_1  and  O_2
REMARK    2  A    between atoms: O_2  and  C_3
REMARK    3  A    between atoms: C_6  and  C_7
REMARK    4  A    between atoms: C_11  and  C_12
REMARK    5  A    between atoms: C_12  and  O_13
REMARK    6  A    between atoms: O_13  and  C_14
REMARK    7  A    between atoms: C_17  and  C_18
REMARK                            x       y       z     vdW  Elec       q    Type
REMARK                         _______ _______ _______ _____ _____    ______ ____
ROOT
ATOM      1  C   UNL     1      46.017   6.569  12.144  0.00  0.00    +0.000 A 
ATOM      2  C   UNL     1      45.034   7.508  11.787  0.00  0.00    +0.000 A 
ATOM      3  C   UNL     1      43.748   7.114  11.411  0.00  0.00    +0.000 A 
ATOM      4  C   UNL     1      43.418   5.763  11.373  0.00  0.00    +0.000 A 
ATOM      5  C   UNL     1      44.372   4.797  11.706  0.00  0.00    +0.000 A 
ATOM      6  C   UNL     1      45.649   5.211  12.116  0.00  0.00    +0.000 A 
ENDROOT
BRANCH   1  10
ATOM      7  C   UNL     1      50.017   7.804  13.199  0.00  0.00    +0.000 A 
ATOM      8  C   UNL     1      49.549   7.976  11.899  0.00  0.00    +0.000 A 
ATOM      9  C   UNL     1      48.255   7.569  11.555  0.00  0.00    +0.000 A 
ATOM     10  C   UNL     1      47.390   6.990  12.499  0.00  0.00    +0.000 A 
ATOM     11  C   UNL     1      47.882   6.838  13.807  0.00  0.00    +0.000 A 
ATOM     12  C   UNL     1      49.177   7.237  14.152  0.00  0.00    +0.000 A 
BRANCH   7  14
ATOM     13  C   UNL     1      51.322   8.672  14.972  0.00  0.00    +0.000 C 
ATOM     14  O   UNL     1      51.260   8.143  13.654  0.00  0.00    +0.000 OA
ENDBRANCH   7  14
ENDBRANCH   1  10
BRANCH   5  15
ATOM     15  C   UNL     1      44.058   3.327  11.588  0.00  0.00    +0.000 C 
BRANCH  15  16
ATOM     16  O   UNL     1      43.576   3.032  10.278  0.00  0.00    +0.000 OA
BRANCH  16  17
ATOM     17  C   UNL     1      44.524   2.959   9.293  0.00  0.00    +0.000 A 
ATOM     18  C   UNL     1      44.927   4.002   8.463  0.00  0.00    +0.000 A 
ATOM     19  C   UNL     1      45.921   3.782   7.507  0.00  0.00    +0.000 A 
ATOM     20  C   UNL     1      46.479   2.514   7.413  0.00  0.00    +0.000 A 
ATOM     21  N   UNL     1      46.110   1.465   8.199  0.00  0.00    +0.000 NA
ATOM     22  C   UNL     1      45.142   1.723   9.116  0.00  0.00    +0.000 A 
BRANCH  20  23
ATOM     23  C   UNL     1      47.562   2.264   6.407  0.00  0.00    +0.000 C 
ATOM     24  N   UNL     1      47.546   3.076   5.310  0.00  0.00    +0.000 N 
ATOM     25  O   UNL     1      48.405   1.387   6.551  0.00  0.00    +0.000 OA
ATOM     26  H   UNL     1      46.823   3.779   5.217  0.00  0.00    +0.000 HD
ATOM     27  H   UNL     1      48.237   2.949   4.582  0.00  0.00    +0.000 HD
ENDBRANCH  20  23
ENDBRANCH  16  17
ENDBRANCH  15  16
ENDBRANCH   5  15
TORSDOF 6
ENDMDL
MODEL 5
REMARK VINA RESULT:    -6.475      5.738      8.423
REMARK INTER + INTRA:          -9.606
REMARK INTER:                  -8.751
REMARK INTRA:                  -0.854
REMARK UNBOUND:                -0.860
REMARK  Name = 
REMARK  7 active torsions:
REMARK  status: ('A' for Active; 'I' for Inactive)
REMARK    1  A    between atoms: C_1  and  O_2
REMARK    2  A    between atoms: O_2  and  C_3
REMARK    3  A    between atoms: C_6  and  C_7
REMARK    4  A    between atoms: C_11  and  C_12
REMARK    5  A    between atoms: C_12  and  O_13
REMARK    6  A    between atoms: O_13  and  C_14
REMARK    7  A    between atoms: C_17  and  C_18
REMARK                            x       y       z     vdW  Elec       q    Type
REMARK                         _______ _______ _______ _____ _____    ______ ____
ROOT
ATOM      1  C   UNL     1      47.404   6.108  13.633  0.00  0.00    +0.000 A 
ATOM      2  C   UNL     1      47.836   7.410  13.327  0.00  0.00    +0.000 A 
ATOM      3  C   UNL     1      48.666   8.127  14.190  0.00  0.00    +0.000 A 
ATOM      4  C   UNL     1      49.077   7.559  15.392  0.00  0.00    +0.000 A 
ATOM      5  C   UNL     1      48.657   6.272  15.741  0.00  0.00    +0.000 A 
ATOM      6  C   UNL     1      47.851   5.551  14.846  0.00  0.00    +0.000 A 
ENDROOT
BRANCH   1  10
ATOM      7  C   UNL     1      44.744   3.934  11.018  0.00  0.00    +0.000 A 
ATOM      8  C   UNL     1      45.185   5.208  10.669  0.00  0.00    +0.000 A 
ATOM      9  C   UNL     1      46.041   5.916  11.521  0.00  0.00    +0.000 A 
ATOM     10  C   UNL     1      46.488   5.369  12.735  0.00  0.00    +0.000 A 
ATOM     11  C   UNL     1      46.037   4.078  13.059  0.00  0.00    +0.000 A 
ATOM     12  C   UNL     1      45.177   3.372  12.214  0.00  0.00    +0.000 A 
BRANCH   7  14
ATOM     13  C   UNL     1      44.494   2.384   9.248  0.00  0.00    +0.000 C 
ATOM     14  O   UNL     1      43.897   3.151  10.284  0.00  0.00    +0.000 OA
ENDBRANCH   7  14
ENDBRANCH   1  10
BRANCH   5  15
ATOM     15  C   UNL     1      49.021   5.675  17.077  0.00  0.00    +0.000 C 
BRANCH  15  16
ATOM     16  O   UNL     1      48.862   4.257  17.040  0.00  0.00    +0.000 OA
BRANCH  16  17
ATOM     17  C   UNL     1      49.995   3.521  17.264  0.00  0.00    +0.000 A 
ATOM     18  C   UNL     1      51.221   4.015  17.702  0.00  0.00    +0.000 A 
ATOM     19  C   UNL     1      52.289   3.138  17.900  0.00  0.00    +0.000 A 
ATOM     20  C   UNL     1      52.091   1.786  17.650  0.00  0.00    +0.000 A 
ATOM     21  N   UNL     1      50.912   1.263  17.215  0.00  0.00    +0.000 NA
ATOM     22  C   UNL     1      49.899   2.150  17.036  0.00  0.00    +0.000 A 
BRANCH  20  23
ATOM     23  C   UNL     1      53.220   0.826  17.878  0.00  0.00    +0.000 C 
ATOM     24  N   UNL     1      53.505  -0.005  16.834  0.00  0.00    +0.000 N 
ATOM     25  O   UNL     1      53.845   0.782  18.931  0.00  0.00    +0.000 OA
ATOM     26  H   UNL     1      52.956   0.048  15.985  0.00  0.00    +0.000 HD
ATOM     27  H   UNL     1      54.243  -0.692  16.928  0.00  0.00    +0.000 HD
ENDBRANCH  20  23
ENDBRANCH  16  17
ENDBRANCH  15  16
ENDBRANCH   5  15
TORSDOF 6
ENDMDL
MODEL 6
REMARK VINA RESULT:    -6.388      4.376      7.133
REMARK INTER + INTRA:          -9.488
REMARK INTER:                  -8.699
REMARK INTRA:                  -0.789
REMARK UNBOUND:                -0.860
REMARK  Name = 
REMARK  7 active torsions:
REMARK  status: ('A' for Active; 'I' for Inactive)
REMARK    1  A    between atoms: C_1  and  O_2
REMARK    2  A    between atoms: O_2  and  C_3
REMARK    3  A    between atoms: C_6  and  C_7
REMARK    4  A    between atoms: C_11  and  C_12
REMARK    5  A    between atoms: C_12  and  O_13
REMARK    6  A    between atoms: O_13  and  C_14
REMARK    7  A    between atoms: C_17  and  C_18
REMARK                            x       y       z     vdW  Elec       q    Type
REMARK                         _______ _______ _______ _____ _____    ______ ____
ROOT
ATOM      1  C   UNL     1      48.461   7.796  11.878  0.00  0.00    +0.000 A 
ATOM      2  C   UNL     1      48.110   9.150  12.021  0.00  0.00    +0.000 A 
ATOM      3  C   UNL     1      49.030  10.173  11.781  0.00  0.00    +0.000 A 
ATOM      4  C   UNL     1      50.332   9.863  11.401  0.00  0.00    +0.000 A 
ATOM      5  C   UNL     1      50.725   8.528  11.263  0.00  0.00    +0.000 A 
ATOM      6  C   UNL     1      49.779   7.513  11.474  0.00  0.00    +0.000 A 
ENDROOT
BRANCH   1  10
ATOM      7  C   UNL     1      45.626   4.655  12.738  0.00  0.00    +0.000 A 
ATOM      8  C   UNL     1      46.639   4.954  13.645  0.00  0.00    +0.000 A 
ATOM      9  C   UNL     1      47.563   5.968  13.363  0.00  0.00    +0.000 A 
ATOM     10  C   UNL     1      47.495   6.716  12.176  0.00  0.00    +0.000 A 
ATOM     11  C   UNL     1      46.457   6.402  11.282  0.00  0.00    +0.000 A 
ATOM     12  C   UNL     1      45.537   5.386  11.557  0.00  0.00    +0.000 A 
BRANCH   7  14
ATOM     13  C   UNL     1      43.342   4.133  13.070  0.00  0.00    +0.000 C 
ATOM     14  O   UNL     1      44.678   3.683  12.888  0.00  0.00    +0.000 OA
ENDBRANCH   7  14
ENDBRANCH   1  10
BRANCH   5  15
ATOM     15  C   UNL     1      52.153   8.171  10.937  0.00  0.00    +0.000 C 
BRANCH  15  16
ATOM     16  O   UNL     1      52.384   8.303   9.535  0.00  0.00    +0.000 OA
BRANCH  16  17
ATOM     17  C   UNL     1      52.810   7.174   8.889  0.00  0.00    +0.000 A 
ATOM     18  C   UNL     1      53.706   6.232   9.387  0.00  0.00    +0.000 A 
ATOM     19  C   UNL     1      54.038   5.117   8.615  0.00  0.00    +0.000 A 
ATOM     20  C   UNL     1      53.459   4.984   7.360  0.00  0.00    +0.000 A 
ATOM     21  N   UNL     1      52.585   5.884   6.832  0.00  0.00    +0.000 NA
ATOM     22  C   UNL     1      52.288   6.953   7.616  0.00  0.00    +0.000 A 
BRANCH  20  23
ATOM     23  C   UNL     1      53.787   3.782   6.526  0.00  0.00    +0.000 C 
ATOM     24  N   UNL     1      53.094   2.647   6.831  0.00  0.00    +0.000 N 
ATOM     25  O   UNL     1      54.625   3.809   5.632  0.00  0.00    +0.000 OA
ATOM     26  H   UNL     1      52.421   2.658   7.588  0.00  0.00    +0.000 HD
ATOM     27  H   UNL     1      53.280   1.793   6.320  0.00  0.00    +0.000 HD
ENDBRANCH  20  23
ENDBRANCH  16  17
ENDBRANCH  15  16
ENDBRANCH   5  15
TORSDOF 6
ENDMDL
MODEL 7
REMARK VINA RESULT:    -6.352      5.067      8.124
REMARK INTER + INTRA:          -9.440
REMARK INTER:                  -8.590
REMARK INTRA:                  -0.849
REMARK UNBOUND:                -0.860
REMARK  Name = 
REMARK  7 active torsions:
REMARK  status: ('A' for Active; 'I' for Inactive)
REMARK    1  A    between atoms: C_1  and  O_2
REMARK    2  A    between atoms: O_2  and  C_3
REMARK    3  A    between atoms: C_6  and  C_7
REMARK    4  A    between atoms: C_11  and  C_12
REMARK    5  A    between atoms: C_12  and  O_13
REMARK    6  A    between atoms: O_13  and  C_14
REMARK    7  A    between atoms: C_17  and  C_18
REMARK                            x       y       z     vdW  Elec       q    Type
REMARK                         _______ _______ _______ _____ _____    ______ ____
ROOT
ATOM      1  C   UNL     1      47.382   6.814  12.875  0.00  0.00    +0.000 A 
ATOM      2  C   UNL     1      47.704   7.987  12.170  0.00  0.00    +0.000 A 
ATOM      3  C   UNL     1      48.502   8.984  12.736  0.00  0.00    +0.000 A 
ATOM      4  C   UNL     1      48.989   8.835  14.031  0.00  0.00    +0.000 A 
ATOM      5  C   UNL     1      48.678   7.689  14.771  0.00  0.00    +0.000 A 
ATOM      6  C   UNL     1      47.905   6.681  14.175  0.00  0.00    +0.000 A 
ENDROOT
BRANCH   1  10
ATOM      7  C   UNL     1      44.799   3.815  11.151  0.00  0.00    +0.000 A 
ATOM      8  C   UNL     1      45.319   3.642  12.431  0.00  0.00    +0.000 A 
ATOM      9  C   UNL     1      46.163   4.610  12.987  0.00  0.00    +0.000 A 
ATOM     10  C   UNL     1      46.501   5.781  12.287  0.00  0.00    +0.000 A 
ATOM     11  C   UNL     1      45.954   5.937  11.002  0.00  0.00    +0.000 A 
ATOM     12  C   UNL     1      45.117   4.968  10.441  0.00  0.00    +0.000 A 
BRANCH   7  14
ATOM     13  C   UNL     1      44.425   2.508   9.214  0.00  0.00    +0.000 C 
ATOM     14  O   UNL     1      43.981   2.939  10.493  0.00  0.00    +0.000 OA
ENDBRANCH   7  14
ENDBRANCH   1  10
BRANCH   5  15
ATOM     15  C   UNL     1      49.125   7.549  16.204  0.00  0.00    +0.000 C 
BRANCH  15  16
ATOM     16  O   UNL     1      48.382   6.517  16.851  0.00  0.00    +0.000 OA
BRANCH  16  17
ATOM     17  C   UNL     1      49.048   5.341  17.061  0.00  0.00    +0.000 A 
ATOM     18  C   UNL     1      48.469   4.082  17.205  0.00  0.00    +0.000 A 
ATOM     19  C   UNL     1      49.281   2.964  17.401  0.00  0.00    +0.000 A 
ATOM     20  C   UNL     1      50.657   3.146  17.450  0.00  0.00    +0.000 A 
ATOM     21  N   UNL     1      51.264   4.357  17.322  0.00  0.00    +0.000 NA
ATOM     22  C   UNL     1      50.438   5.418  17.130  0.00  0.00    +0.000 A 
BRANCH  20  23
ATOM     23  C   UNL     1      51.547   1.954  17.639  0.00  0.00    +0.000 C 
ATOM     24  N   UNL     1      52.571   2.120  18.526  0.00  0.00    +0.000 N 
ATOM     25  O   UNL     1      51.375   0.902  17.037  0.00  0.00    +0.000 OA
ATOM     26  H   UNL     1      52.692   3.010  18.993  0.00  0.00    +0.000 HD
ATOM     27  H   UNL     1      53.222   1.361  18.687  0.00  0.00    +0.000 HD
ENDBRANCH  20  23
ENDBRANCH  16  17
ENDBRANCH  15  16
ENDBRANCH   5  15
TORSDOF 6
ENDMDL
MODEL 8
REMARK VINA RESULT:    -6.069      6.095      8.257
REMARK INTER + INTRA:          -9.058
REMARK INTER:                  -8.383
REMARK INTRA:                  -0.675
REMARK UNBOUND:                -0.860
REMARK  Name = 
REMARK  7 active torsions:
REMARK  status: ('A' for Active; 'I' for Inactive)
REMARK    1  A    between atoms: C_1  and  O_2
REMARK    2  A    between atoms: O_2  and  C_3
REMARK    3  A    between atoms: C_6  and  C_7
REMARK    4  A    between atoms: C_11  and  C_12
REMARK    5  A    between atoms: C_12  and  O_13
REMARK    6  A    between atoms: O_13  and  C_14
REMARK    7  A    between atoms: C_17  and  C_18
REMARK                            x       y       z     vdW  Elec       q    Type
REMARK                         _______ _______ _______ _____ _____    ______ ____
ROOT
ATOM      1  C   UNL     1      50.630   3.797  17.947  0.00  0.00    +0.000 A 
ATOM      2  C   UNL     1      50.664   4.951  18.749  0.00  0.00    +0.000 A 
ATOM      3  C   UNL     1      49.626   5.885  18.732  0.00  0.00    +0.000 A 
ATOM      4  C   UNL     1      48.529   5.691  17.899  0.00  0.00    +0.000 A 
ATOM      5  C   UNL     1      48.464   4.563  17.074  0.00  0.00    +0.000 A 
ATOM      6  C   UNL     1      49.499   3.616  17.129  0.00  0.00    +0.000 A 
ENDROOT
BRANCH   1  10
ATOM      7  C   UNL     1      53.891   0.969  17.923  0.00  0.00    +0.000 A 
ATOM      8  C   UNL     1      54.084   2.258  18.411  0.00  0.00    +0.000 A 
ATOM      9  C   UNL     1      53.029   3.178  18.412  0.00  0.00    +0.000 A 
ATOM     10  C   UNL     1      51.752   2.833  17.937  0.00  0.00    +0.000 A 
ATOM     11  C   UNL     1      51.581   1.522  17.460  0.00  0.00    +0.000 A 
ATOM     12  C   UNL     1      52.634   0.604  17.451  0.00  0.00    +0.000 A 
BRANCH   7  14
ATOM     13  C   UNL     1      55.253  -0.393  16.547  0.00  0.00    +0.000 C 
ATOM     14  O   UNL     1      54.841  -0.012  17.853  0.00  0.00    +0.000 OA
ENDBRANCH   7  14
ENDBRANCH   1  10
BRANCH   5  15
ATOM     15  C   UNL     1      47.325   4.380  16.102  0.00  0.00    +0.000 C 
BRANCH  15  16
ATOM     16  O   UNL     1      47.627   5.024  14.865  0.00  0.00    +0.000 OA
BRANCH  16  17
ATOM     17  C   UNL     1      46.696   4.880  13.872  0.00  0.00    +0.000 A 
ATOM     18  C   UNL     1      46.050   5.912  13.196  0.00  0.00    +0.000 A 
ATOM     19  C   UNL     1      45.129   5.611  12.191  0.00  0.00    +0.000 A 
ATOM     20  C   UNL     1      44.882   4.277  11.897  0.00  0.00    +0.000 A 
ATOM     21  N   UNL     1      45.485   3.238  12.538  0.00  0.00    +0.000 NA
ATOM     22  C   UNL     1      46.375   3.574  13.507  0.00  0.00    +0.000 A 
BRANCH  20  23
ATOM     23  C   UNL     1      43.912   3.935  10.807  0.00  0.00    +0.000 C 
ATOM     24  N   UNL     1      44.115   4.573   9.617  0.00  0.00    +0.000 N 
ATOM     25  O   UNL     1      42.993   3.141  10.967  0.00  0.00    +0.000 OA
ATOM     26  H   UNL     1      44.874   5.236   9.526  0.00  0.00    +0.000 HD
ATOM     27  H   UNL     1      43.484   4.404   8.844  0.00  0.00    +0.000 HD
ENDBRANCH  20  23
ENDBRANCH  16  17
ENDBRANCH  15  16
ENDBRANCH   5  15
TORSDOF 6
ENDMDL
MODEL 9
REMARK VINA RESULT:    -6.004      4.644      8.256
REMARK INTER + INTRA:          -8.969
REMARK INTER:                  -7.994
REMARK INTRA:                  -0.976
REMARK UNBOUND:                -0.860
REMARK  Name = 
REMARK  7 active torsions:
REMARK  status: ('A' for Active; 'I' for Inactive)
REMARK    1  A    between atoms: C_1  and  O_2
REMARK    2  A    between atoms: O_2  and  C_3
REMARK    3  A    between atoms: C_6  and  C_7
REMARK    4  A    between atoms: C_11  and  C_12
REMARK    5  A    between atoms: C_12  and  O_13
REMARK    6  A    between atoms: O_13  and  C_14
REMARK    7  A    between atoms: C_17  and  C_18
REMARK                            x       y       z     vdW  Elec       q    Type
REMARK                         _______ _______ _______ _____ _____    ______ ____
ROOT
ATOM      1  C   UNL     1      47.748   7.236  12.548  0.00  0.00    +0.000 A 
ATOM      2  C   UNL     1      48.681   7.798  11.660  0.00  0.00    +0.000 A 
ATOM      3  C   UNL     1      49.577   8.788  12.070  0.00  0.00    +0.000 A 
ATOM      4  C   UNL     1      49.551   9.249  13.383  0.00  0.00    +0.000 A 
ATOM      5  C   UNL     1      48.627   8.726  14.293  0.00  0.00    +0.000 A 
ATOM      6  C   UNL     1      47.758   7.707  13.874  0.00  0.00    +0.000 A 
ENDROOT
BRANCH   1  10
ATOM      7  C   UNL     1      44.913   4.254  11.241  0.00  0.00    +0.000 A 
ATOM      8  C   UNL     1      45.286   5.289  10.387  0.00  0.00    +0.000 A 
ATOM      9  C   UNL     1      46.200   6.260  10.814  0.00  0.00    +0.000 A 
ATOM     10  C   UNL     1      46.772   6.219  12.096  0.00  0.00    +0.000 A 
ATOM     11  C   UNL     1      46.387   5.159  12.934  0.00  0.00    +0.000 A 
ATOM     12  C   UNL     1      45.470   4.191  12.514  0.00  0.00    +0.000 A 
BRANCH   7  14
ATOM     13  C   UNL     1      43.363   2.664  12.061  0.00  0.00    +0.000 C 
ATOM     14  O   UNL     1      44.022   3.258  10.951  0.00  0.00    +0.000 OA
ENDBRANCH   7  14
ENDBRANCH   1  10
BRANCH   5  15
ATOM     15  C   UNL     1      48.528   9.273  15.695  0.00  0.00    +0.000 C 
BRANCH  15  16
ATOM     16  O   UNL     1      49.562   8.723  16.511  0.00  0.00    +0.000 OA
BRANCH  16  17
ATOM     17  C   UNL     1      49.328   7.470  17.011  0.00  0.00    +0.000 A 
ATOM     18  C   UNL     1      48.347   7.125  17.937  0.00  0.00    +0.000 A 
ATOM     19  C   UNL     1      48.218   5.797  18.346  0.00  0.00    +0.000 A 
ATOM     20  C   UNL     1      49.084   4.852  17.811  0.00  0.00    +0.000 A 
ATOM     21  N   UNL     1      50.060   5.147  16.910  0.00  0.00    +0.000 NA
ATOM     22  C   UNL     1      50.151   6.450  16.537  0.00  0.00    +0.000 A 
BRANCH  20  23
ATOM     23  C   UNL     1      48.946   3.417  18.222  0.00  0.00    +0.000 C 
ATOM     24  N   UNL     1      48.543   3.210  19.510  0.00  0.00    +0.000 N 
ATOM     25  O   UNL     1      49.184   2.487  17.461  0.00  0.00    +0.000 OA
ATOM     26  H   UNL     1      48.371   4.002  20.116  0.00  0.00    +0.000 HD
ATOM     27  H   UNL     1      48.448   2.265  19.859  0.00  0.00    +0.000 HD
ENDBRANCH  20  23
ENDBRANCH  16  17
ENDBRANCH  15  16
ENDBRANCH   5  15
TORSDOF 6
ENDMDL
