MODEL 1
REMARK VINA RESULT:    -7.985      0.000      0.000
REMARK INTER + INTRA:         -11.754
REMARK INTER:                 -10.786
REMARK INTRA:                  -0.968
REMARK UNBOUND:                -0.968
REMARK  Name = 
REMARK  7 active torsions:
REMARK  status: ('A' for Active; 'I' for Inactive)
REMARK    1  A    between atoms: C_1  and  C_2
REMARK    2  A    between atoms: C_6  and  C_7
REMARK    3  A    between atoms: N_9  and  C_10
REMARK    4  A    between atoms: C_10  and  C_11
REMARK    5  A    between atoms: C_14  and  C_15
REMARK    6  A    between atoms: C_15  and  N_16
REMARK    7  A    between atoms: C_17  and  C_19
REMARK                            x       y       z     vdW  Elec       q    Type
REMARK                         _______ _______ _______ _____ _____    ______ ____
ROOT
ATOM      1  C   UNL     1      44.846   5.334  10.754  0.00  0.00    +0.000 A 
ATOM      2  C   UNL     1      44.298   5.592  12.008  0.00  0.00    +0.000 A 
ATOM      3  C   UNL     1      44.957   6.467  12.869  0.00  0.00    +0.000 A 
ATOM      4  C   UNL     1      46.149   7.072  12.465  0.00  0.00    +0.000 A 
ATOM      5  C   UNL     1      46.644   6.722  11.213  0.00  0.00    +0.000 A 
ATOM      6  N   UNL     1      46.025   5.873  10.355  0.00  0.00    +0.000 NA
ENDROOT
BRANCH   1   7
ATOM      7  C   UNL     1      44.127   4.421   9.786  0.00  0.00    +0.000 C 
BRANCH   7  10
ATOM      8  C   UNL     1      45.513   2.691   8.663  0.00  0.00    +0.000 C 
ATOM      9  O   UNL     1      45.249   1.853   9.525  0.00  0.00    +0.000 OA
ATOM     10  N   UNL     1      44.983   3.961   8.714  0.00  0.00    +0.000 N 
ATOM     11  H   UNL     1      45.319   4.653   8.057  0.00  0.00    +0.000 HD
BRANCH   8  17
ATOM     12  C   UNL     1      46.726  -0.133   7.734  0.00  0.00    +0.000 C 
ATOM     13  C   UNL     1      46.920   1.205   7.111  0.00  0.00    +0.000 A 
ATOM     14  N   UNL     1      47.718   1.275   5.974  0.00  0.00    +0.000 NA
ATOM     15  C   UNL     1      47.778   2.513   5.547  0.00  0.00    +0.000 A 
ATOM     16  S   UNL     1      46.915   3.667   6.464  0.00  0.00    +0.000 S 
ATOM     17  C   UNL     1      46.389   2.418   7.532  0.00  0.00    +0.000 A 
ENDBRANCH   8  17
ENDBRANCH   7  10
ENDBRANCH   1   7
BRANCH   4  18
ATOM     18  C   UNL     1      46.885   8.032  13.353  0.00  0.00    +0.000 C 
BRANCH  18  19
ATOM     19  N   UNL     1      47.372   7.384  14.545  0.00  0.00    +0.000 N 
ATOM     20  C   UNL     1      48.632   6.843  14.597  0.00  0.00    +0.000 C 
ATOM     21  O   UNL     1      49.421   6.944  13.661  0.00  0.00    +0.000 OA
ATOM     22  H   UNL     1      46.683   7.109  15.239  0.00  0.00    +0.000 HD
BRANCH  20  23
ATOM     23  C   UNL     1      49.011   6.184  15.853  0.00  0.00    +0.000 A 
ATOM     24  C   UNL     1      50.092   6.660  16.583  0.00  0.00    +0.000 A 
ATOM     25  S   UNL     1      50.369   5.808  18.033  0.00  0.00    +0.000 S 
ATOM     26  C   UNL     1      49.083   4.741  17.716  0.00  0.00    +0.000 A 
ATOM     27  N   UNL     1      48.786   3.728  18.575  0.00  0.00    +0.000 NA
ATOM     28  C   UNL     1      47.805   2.979  18.197  0.00  0.00    +0.000 A 
ATOM     29  N   UNL     1      47.089   3.151  17.040  0.00  0.00    +0.000 N 
ATOM     30  C   UNL     1      47.336   4.177  16.157  0.00  0.00    +0.000 A 
ATOM     31  O   UNL     1      46.649   4.330  15.152  0.00  0.00    +0.000 OA
ATOM     32  C   UNL     1      48.438   5.042  16.529  0.00  0.00    +0.000 A 
ATOM     33  H   UNL     1      46.326   2.535  16.808  0.00  0.00    +0.000 HD
ENDBRANCH  20  23
ENDBRANCH  18  19
ENDBRANCH   4  18
TORSDOF 6
ENDMDL
MODEL 2
REMARK VINA RESULT:    -7.343      2.876      8.640
REMARK INTER + INTRA:         -10.886
REMARK INTER:                  -9.903
REMARK INTRA:                  -0.983
REMARK UNBOUND:                -0.968
REMARK  Name = 
REMARK  7 active torsions:
REMARK  status: ('A' for Active; 'I' for Inactive)
REMARK    1  A    between atoms: C_1  and  C_2
REMARK    2  A    between atoms: C_6  and  C_7
REMARK    3  A    between atoms: N_9  and  C_10
REMARK    4  A    between atoms: C_10  and  C_11
REMARK    5  A    between atoms: C_14  and  C_15
REMARK    6  A    between atoms: C_15  and  N_16
REMARK    7  A    between atoms: C_17  and  C_19
REMARK                            x       y       z     vdW  Elec       q    Type
REMARK                         _______ _______ _______ _____ _____    ______ ____
ROOT
ATOM      1  C   UNL     1      50.115   7.213  15.306  0.00  0.00    +0.000 A 
ATOM      2  C   UNL     1      50.385   8.217  14.380  0.00  0.00    +0.000 A 
ATOM      3  C   UNL     1      49.510   8.408  13.312  0.00  0.00    +0.000 A 
ATOM      4  C   UNL     1      48.380   7.598  13.188  0.00  0.00    +0.000 A 
ATOM      5  C   UNL     1      48.214   6.593  14.135  0.00  0.00    +0.000 A 
ATOM      6  N   UNL     1      49.049   6.383  15.183  0.00  0.00    +0.000 NA
ENDROOT
BRANCH   1   7
ATOM      7  C   UNL     1      51.027   7.015  16.496  0.00  0.00    +0.000 C 
BRANCH   7  10
ATOM      8  C   UNL     1      50.840   4.809  17.625  0.00  0.00    +0.000 C 
ATOM      9  O   UNL     1      49.930   5.205  18.351  0.00  0.00    +0.000 OA
ATOM     10  N   UNL     1      51.411   5.631  16.679  0.00  0.00    +0.000 N 
ATOM     11  H   UNL     1      52.233   5.308  16.188  0.00  0.00    +0.000 HD
BRANCH   8  17
ATOM     12  C   UNL     1      49.439   2.061  16.732  0.00  0.00    +0.000 C 
ATOM     13  C   UNL     1      50.795   2.260  17.311  0.00  0.00    +0.000 A 
ATOM     14  N   UNL     1      51.587   1.131  17.494  0.00  0.00    +0.000 NA
ATOM     15  C   UNL     1      52.746   1.478  17.999  0.00  0.00    +0.000 A 
ATOM     16  S   UNL     1      52.967   3.144  18.301  0.00  0.00    +0.000 S 
ATOM     17  C   UNL     1      51.383   3.459  17.695  0.00  0.00    +0.000 A 
ENDBRANCH   8  17
ENDBRANCH   7  10
ENDBRANCH   1   7
BRANCH   4  18
ATOM     18  C   UNL     1      47.402   7.777  12.064  0.00  0.00    +0.000 C 
BRANCH  18  19
ATOM     19  N   UNL     1      46.739   6.540  11.736  0.00  0.00    +0.000 N 
ATOM     20  C   UNL     1      45.370   6.450  11.713  0.00  0.00    +0.000 C 
ATOM     21  O   UNL     1      44.652   7.428  11.904  0.00  0.00    +0.000 OA
ATOM     22  H   UNL     1      47.293   5.690  11.780  0.00  0.00    +0.000 HD
BRANCH  20  23
ATOM     23  C   UNL     1      44.804   5.134  11.393  0.00  0.00    +0.000 A 
ATOM     24  C   UNL     1      44.035   4.466  12.336  0.00  0.00    +0.000 A 
ATOM     25  S   UNL     1      43.422   2.972  11.788  0.00  0.00    +0.000 S 
ATOM     26  C   UNL     1      44.202   3.141  10.286  0.00  0.00    +0.000 A 
ATOM     27  N   UNL     1      44.104   2.173   9.334  0.00  0.00    +0.000 NA
ATOM     28  C   UNL     1      44.768   2.419   8.254  0.00  0.00    +0.000 A 
ATOM     29  N   UNL     1      45.518   3.546   8.036  0.00  0.00    +0.000 N 
ATOM     30  C   UNL     1      45.623   4.561   8.958  0.00  0.00    +0.000 A 
ATOM     31  O   UNL     1      46.267   5.577   8.715  0.00  0.00    +0.000 OA
ATOM     32  C   UNL     1      44.905   4.330  10.196  0.00  0.00    +0.000 A 
ATOM     33  H   UNL     1      46.006   3.681   7.164  0.00  0.00    +0.000 HD
ENDBRANCH  20  23
ENDBRANCH  18  19
ENDBRANCH   4  18
TORSDOF 6
ENDMDL
MODEL 3
REMARK VINA RESULT:    -7.167      2.014      3.492
REMARK INTER + INTRA:         -10.650
REMARK INTER:                  -9.941
REMARK INTRA:                  -0.709
REMARK UNBOUND:                -0.968
REMARK  Name = 
REMARK  7 active torsions:
REMARK  status: ('A' for Active; 'I' for Inactive)
REMARK    1  A    between atoms: C_1  and  C_2
REMARK    2  A    between atoms: C_6  and  C_7
REMARK    3  A    between atoms: N_9  and  C_10
REMARK    4  A    between atoms: C_10  and  C_11
REMARK    5  A    between atoms: C_14  and  C_15
REMARK    6  A    between atoms: C_15  and  N_16
REMARK    7  A    between atoms: C_17  and  C_19
REMARK                            x       y       z     vdW  Elec       q    Type
REMARK                         _______ _______ _______ _____ _____    ______ ____
ROOT
ATOM      1  C   UNL     1      44.858   4.396  11.321  0.00  0.00    +0.000 A 
ATOM      2  C   UNL     1      45.041   5.630  11.939  0.00  0.00    +0.000 A 
ATOM      3  C   UNL     1      45.686   5.681  13.173  0.00  0.00    +0.000 A 
ATOM      4  C   UNL     1      46.140   4.503  13.768  0.00  0.00    +0.000 A 
ATOM      5  C   UNL     1      45.874   3.313  13.100  0.00  0.00    +0.000 A 
ATOM      6  N   UNL     1      45.248   3.232  11.899  0.00  0.00    +0.000 NA
ENDROOT
BRANCH   1   7
ATOM      7  C   UNL     1      44.198   4.319   9.962  0.00  0.00    +0.000 C 
BRANCH   7  10
ATOM      8  C   UNL     1      45.310   2.613   8.537  0.00  0.00    +0.000 C 
ATOM      9  O   UNL     1      44.667   1.698   9.050  0.00  0.00    +0.000 OA
ATOM     10  N   UNL     1      45.119   3.923   8.918  0.00  0.00    +0.000 N 
ATOM     11  H   UNL     1      45.749   4.628   8.562  0.00  0.00    +0.000 HD
BRANCH   8  17
ATOM     12  C   UNL     1      46.750  -0.137   7.714  0.00  0.00    +0.000 C 
ATOM     13  C   UNL     1      46.940   1.218   7.126  0.00  0.00    +0.000 A 
ATOM     14  N   UNL     1      47.845   1.341   6.076  0.00  0.00    +0.000 NA
ATOM     15  C   UNL     1      47.886   2.586   5.668  0.00  0.00    +0.000 A 
ATOM     16  S   UNL     1      46.878   3.684   6.501  0.00  0.00    +0.000 S 
ATOM     17  C   UNL     1      46.309   2.398   7.499  0.00  0.00    +0.000 A 
ENDBRANCH   8  17
ENDBRANCH   7  10
ENDBRANCH   1   7
BRANCH   4  18
ATOM     18  C   UNL     1      46.852   4.512  15.089  0.00  0.00    +0.000 C 
BRANCH  18  19
ATOM     19  N   UNL     1      47.618   5.720  15.270  0.00  0.00    +0.000 N 
ATOM     20  C   UNL     1      48.707   5.754  16.104  0.00  0.00    +0.000 C 
ATOM     21  O   UNL     1      49.116   4.749  16.679  0.00  0.00    +0.000 OA
ATOM     22  H   UNL     1      47.187   6.592  14.979  0.00  0.00    +0.000 HD
BRANCH  20  23
ATOM     23  C   UNL     1      49.394   7.046  16.232  0.00  0.00    +0.000 A 
ATOM     24  C   UNL     1      49.603   7.594  17.491  0.00  0.00    +0.000 A 
ATOM     25  S   UNL     1      50.451   9.072  17.463  0.00  0.00    +0.000 S 
ATOM     26  C   UNL     1      50.529   9.058  15.763  0.00  0.00    +0.000 A 
ATOM     27  N   UNL     1      51.120  10.077  15.082  0.00  0.00    +0.000 NA
ATOM     28  C   UNL     1      51.084   9.950  13.797  0.00  0.00    +0.000 A 
ATOM     29  N   UNL     1      50.513   8.896  13.131  0.00  0.00    +0.000 N 
ATOM     30  C   UNL     1      49.930   7.833  13.779  0.00  0.00    +0.000 A 
ATOM     31  O   UNL     1      49.467   6.884  13.154  0.00  0.00    +0.000 OA
ATOM     32  C   UNL     1      49.933   7.931  15.225  0.00  0.00    +0.000 A 
ATOM     33  H   UNL     1      50.528   8.853  12.124  0.00  0.00    +0.000 HD
ENDBRANCH  20  23
ENDBRANCH  18  19
ENDBRANCH   4  18
TORSDOF 6
ENDMDL
MODEL 4
REMARK VINA RESULT:    -6.928      3.234      8.345
REMARK INTER + INTRA:         -10.326
REMARK INTER:                  -9.362
REMARK INTRA:                  -0.964
REMARK UNBOUND:                -0.968
REMARK  Name = 
REMARK  7 active torsions:
REMARK  status: ('A' for Active; 'I' for Inactive)
REMARK    1  A    between atoms: C_1  and  C_2
REMARK    2  A    between atoms: C_6  and  C_7
REMARK    3  A    between atoms: N_9  and  C_10
REMARK    4  A    between atoms: C_10  and  C_11
REMARK    5  A    between atoms: C_14  and  C_15
REMARK    6  A    between atoms: C_15  and  N_16
REMARK    7  A    between atoms: C_17  and  C_19
REMARK                            x       y       z     vdW  Elec       q    Type
REMARK                         _______ _______ _______ _____ _____    ______ ____
ROOT
ATOM      1  C   UNL     1      50.440   7.249  15.474  0.00  0.00    +0.000 A 
ATOM      2  C   UNL     1      49.078   6.972  15.552  0.00  0.00    +0.000 A 
ATOM      3  C   UNL     1      48.255   7.301  14.477  0.00  0.00    +0.000 A 
ATOM      4  C   UNL     1      48.804   7.899  13.341  0.00  0.00    +0.000 A 
ATOM      5  C   UNL     1      50.166   8.179  13.369  0.00  0.00    +0.000 A 
ATOM      6  N   UNL     1      50.991   7.871  14.401  0.00  0.00    +0.000 NA
ENDROOT
BRANCH   1   7
ATOM      7  C   UNL     1      51.359   6.862  16.610  0.00  0.00    +0.000 C 
BRANCH   7  10
ATOM      8  C   UNL     1      51.214   4.713  17.849  0.00  0.00    +0.000 C 
ATOM      9  O   UNL     1      50.711   5.258  18.830  0.00  0.00    +0.000 OA
ATOM     10  N   UNL     1      51.538   5.430  16.719  0.00  0.00    +0.000 N 
ATOM     11  H   UNL     1      52.058   4.969  15.985  0.00  0.00    +0.000 HD
BRANCH   8  17
ATOM     12  C   UNL     1      49.306   2.342  16.824  0.00  0.00    +0.000 C 
ATOM     13  C   UNL     1      50.695   2.247  17.351  0.00  0.00    +0.000 A 
ATOM     14  N   UNL     1      51.273   0.984  17.413  0.00  0.00    +0.000 NA
ATOM     15  C   UNL     1      52.492   1.075  17.887  0.00  0.00    +0.000 A 
ATOM     16  S   UNL     1      53.023   2.644  18.300  0.00  0.00    +0.000 S 
ATOM     17  C   UNL     1      51.504   3.286  17.795  0.00  0.00    +0.000 A 
ENDBRANCH   8  17
ENDBRANCH   7  10
ENDBRANCH   1   7
BRANCH   4  18
ATOM     18  C   UNL     1      47.959   8.258  12.154  0.00  0.00    +0.000 C 
BRANCH  18  19
ATOM     19  N   UNL     1      47.367   7.090  11.553  0.00  0.00    +0.000 N 
ATOM     20  C   UNL     1      46.012   7.002  11.353  0.00  0.00    +0.000 C 
ATOM     21  O   UNL     1      45.255   7.934  11.613  0.00  0.00    +0.000 OA
ATOM     22  H   UNL     1      47.929   6.244  11.525  0.00  0.00    +0.000 HD
BRANCH  20  23
ATOM     23  C   UNL     1      45.516   5.754  10.758  0.00  0.00    +0.000 A 
ATOM     24  C   UNL     1      45.736   5.497   9.411  0.00  0.00    +0.000 A 
ATOM     25  S   UNL     1      45.133   3.989   8.894  0.00  0.00    +0.000 S 
ATOM     26  C   UNL     1      44.514   3.644  10.441  0.00  0.00    +0.000 A 
ATOM     27  N   UNL     1      43.840   2.487  10.682  0.00  0.00    +0.000 NA
ATOM     28  C   UNL     1      43.402   2.368  11.891  0.00  0.00    +0.000 A 
ATOM     29  N   UNL     1      43.578   3.299  12.883  0.00  0.00    +0.000 N 
ATOM     30  C   UNL     1      44.275   4.468  12.691  0.00  0.00    +0.000 A 
ATOM     31  O   UNL     1      44.454   5.261  13.610  0.00  0.00    +0.000 OA
ATOM     32  C   UNL     1      44.780   4.658  11.345  0.00  0.00    +0.000 A 
ATOM     33  H   UNL     1      43.218   3.140  13.811  0.00  0.00    +0.000 HD
ENDBRANCH  20  23
ENDBRANCH  18  19
ENDBRANCH   4  18
TORSDOF 6
ENDMDL
MODEL 5
REMARK VINA RESULT:    -6.832      3.303      4.865
REMARK INTER + INTRA:         -10.196
REMARK INTER:                  -9.286
REMARK INTRA:                  -0.910
REMARK UNBOUND:                -0.968
REMARK  Name = 
REMARK  7 active torsions:
REMARK  status: ('A' for Active; 'I' for Inactive)
REMARK    1  A    between atoms: C_1  and  C_2
REMARK    2  A    between atoms: C_6  and  C_7
REMARK    3  A    between atoms: N_9  and  C_10
REMARK    4  A    between atoms: C_10  and  C_11
REMARK    5  A    between atoms: C_14  and  C_15
REMARK    6  A    between atoms: C_15  and  N_16
REMARK    7  A    between atoms: C_17  and  C_19
REMARK                            x       y       z     vdW  Elec       q    Type
REMARK                         _______ _______ _______ _____ _____    ______ ____
ROOT
ATOM      1  C   UNL     1      47.830   7.561  13.464  0.00  0.00    +0.000 A 
ATOM      2  C   UNL     1      47.767   8.788  14.117  0.00  0.00    +0.000 A 
ATOM      3  C   UNL     1      48.283   8.897  15.407  0.00  0.00    +0.000 A 
ATOM      4  C   UNL     1      48.855   7.781  16.022  0.00  0.00    +0.000 A 
ATOM      5  C   UNL     1      48.834   6.587  15.311  0.00  0.00    +0.000 A 
ATOM      6  N   UNL     1      48.339   6.451  14.055  0.00  0.00    +0.000 NA
ENDROOT
BRANCH   1   7
ATOM      7  C   UNL     1      47.315   7.429  12.047  0.00  0.00    +0.000 C 
BRANCH   7  10
ATOM      8  C   UNL     1      45.179   6.276  11.516  0.00  0.00    +0.000 C 
ATOM      9  O   UNL     1      44.598   7.343  11.319  0.00  0.00    +0.000 OA
ATOM     10  N   UNL     1      46.513   6.240  11.855  0.00  0.00    +0.000 N 
ATOM     11  H   UNL     1      46.921   5.355  12.125  0.00  0.00    +0.000 HD
BRANCH   8  17
ATOM     12  C   UNL     1      45.053   4.327   8.967  0.00  0.00    +0.000 C 
ATOM     13  C   UNL     1      44.459   4.122  10.317  0.00  0.00    +0.000 A 
ATOM     14  N   UNL     1      43.759   2.941  10.538  0.00  0.00    +0.000 NA
ATOM     15  C   UNL     1      43.312   2.912  11.770  0.00  0.00    +0.000 A 
ATOM     16  S   UNL     1      43.674   4.275  12.733  0.00  0.00    +0.000 S 
ATOM     17  C   UNL     1      44.521   4.982  11.407  0.00  0.00    +0.000 A 
ENDBRANCH   8  17
ENDBRANCH   7  10
ENDBRANCH   1   7
BRANCH   4  18
ATOM     18  C   UNL     1      49.436   7.855  17.404  0.00  0.00    +0.000 C 
BRANCH  18  19
ATOM     19  N   UNL     1      50.408   6.815  17.626  0.00  0.00    +0.000 N 
ATOM     20  C   UNL     1      50.173   5.801  18.521  0.00  0.00    +0.000 C 
ATOM     21  O   UNL     1      49.105   5.697  19.119  0.00  0.00    +0.000 OA
ATOM     22  H   UNL     1      51.357   6.990  17.311  0.00  0.00    +0.000 HD
BRANCH  20  23
ATOM     23  C   UNL     1      51.245   4.811  18.686  0.00  0.00    +0.000 A 
ATOM     24  C   UNL     1      52.371   5.133  19.432  0.00  0.00    +0.000 A 
ATOM     25  S   UNL     1      53.496   3.859  19.559  0.00  0.00    +0.000 S 
ATOM     26  C   UNL     1      52.541   2.845  18.582  0.00  0.00    +0.000 A 
ATOM     27  N   UNL     1      52.951   1.586  18.270  0.00  0.00    +0.000 NA
ATOM     28  C   UNL     1      52.143   0.938  17.499  0.00  0.00    +0.000 A 
ATOM     29  N   UNL     1      50.959   1.432  17.014  0.00  0.00    +0.000 N 
ATOM     30  C   UNL     1      50.493   2.688  17.325  0.00  0.00    +0.000 A 
ATOM     31  O   UNL     1      49.409   3.085  16.911  0.00  0.00    +0.000 OA
ATOM     32  C   UNL     1      51.370   3.463  18.180  0.00  0.00    +0.000 A 
ATOM     33  H   UNL     1      50.368   0.869  16.422  0.00  0.00    +0.000 HD
ENDBRANCH  20  23
ENDBRANCH  18  19
ENDBRANCH   4  18
TORSDOF 6
ENDMDL
MODEL 6
REMARK VINA RESULT:    -6.493      2.651      9.105
REMARK INTER + INTRA:          -9.739
REMARK INTER:                  -8.746
REMARK INTRA:                  -0.993
REMARK UNBOUND:                -0.968
REMARK  Name = 
REMARK  7 active torsions:
REMARK  status: ('A' for Active; 'I' for Inactive)
REMARK    1  A    between atoms: C_1  and  C_2
REMARK    2  A    between atoms: C_6  and  C_7
REMARK    3  A    between atoms: N_9  and  C_10
REMARK    4  A    between atoms: C_10  and  C_11
REMARK    5  A    between atoms: C_14  and  C_15
REMARK    6  A    between atoms: C_15  and  N_16
REMARK    7  A    between atoms: C_17  and  C_19
REMARK                            x       y       z     vdW  Elec       q    Type
REMARK                         _______ _______ _______ _____ _____    ______ ____
ROOT
ATOM      1  C   UNL     1      50.147   7.792  14.887  0.00  0.00    +0.000 A 
ATOM      2  C   UNL     1      50.588   8.004  13.584  0.00  0.00    +0.000 A 
ATOM      3  C   UNL     1      49.654   8.058  12.551  0.00  0.00    +0.000 A 
ATOM      4  C   UNL     1      48.296   7.903  12.836  0.00  0.00    +0.000 A 
ATOM      5  C   UNL     1      47.952   7.651  14.159  0.00  0.00    +0.000 A 
ATOM      6  N   UNL     1      48.838   7.593  15.184  0.00  0.00    +0.000 NA
ENDROOT
BRANCH   1   7
ATOM      7  C   UNL     1      51.138   7.772  16.029  0.00  0.00    +0.000 C 
BRANCH   7  10
ATOM      8  C   UNL     1      50.761   5.847  17.555  0.00  0.00    +0.000 C 
ATOM      9  O   UNL     1      51.429   5.095  16.846  0.00  0.00    +0.000 OA
ATOM     10  N   UNL     1      50.593   7.174  17.229  0.00  0.00    +0.000 N 
ATOM     11  H   UNL     1      49.940   7.727  17.769  0.00  0.00    +0.000 HD
BRANCH   8  17
ATOM     12  C   UNL     1      48.465   3.626  17.886  0.00  0.00    +0.000 C 
ATOM     13  C   UNL     1      49.113   4.449  18.944  0.00  0.00    +0.000 A 
ATOM     14  N   UNL     1      48.700   4.250  20.257  0.00  0.00    +0.000 NA
ATOM     15  C   UNL     1      49.371   5.040  21.060  0.00  0.00    +0.000 A 
ATOM     16  S   UNL     1      50.513   6.071  20.319  0.00  0.00    +0.000 S 
ATOM     17  C   UNL     1      50.104   5.410  18.779  0.00  0.00    +0.000 A 
ENDBRANCH   8  17
ENDBRANCH   7  10
ENDBRANCH   1   7
BRANCH   4  18
ATOM     18  C   UNL     1      47.254   7.968  11.758  0.00  0.00    +0.000 C 
BRANCH  18  19
ATOM     19  N   UNL     1      46.632   6.686  11.545  0.00  0.00    +0.000 N 
ATOM     20  C   UNL     1      45.266   6.553  11.518  0.00  0.00    +0.000 C 
ATOM     21  O   UNL     1      44.517   7.523  11.607  0.00  0.00    +0.000 OA
ATOM     22  H   UNL     1      47.209   5.861  11.676  0.00  0.00    +0.000 HD
BRANCH  20  23
ATOM     23  C   UNL     1      44.743   5.195  11.321  0.00  0.00    +0.000 A 
ATOM     24  C   UNL     1      43.999   4.590  12.326  0.00  0.00    +0.000 A 
ATOM     25  S   UNL     1      43.434   3.034  11.918  0.00  0.00    +0.000 S 
ATOM     26  C   UNL     1      44.202   3.093  10.401  0.00  0.00    +0.000 A 
ATOM     27  N   UNL     1      44.133   2.041   9.541  0.00  0.00    +0.000 NA
ATOM     28  C   UNL     1      44.784   2.209   8.439  0.00  0.00    +0.000 A 
ATOM     29  N   UNL     1      45.496   3.336   8.116  0.00  0.00    +0.000 N 
ATOM     30  C   UNL     1      45.571   4.433   8.942  0.00  0.00    +0.000 A 
ATOM     31  O   UNL     1      46.180   5.443   8.605  0.00  0.00    +0.000 OA
ATOM     32  C   UNL     1      44.865   4.291  10.200  0.00  0.00    +0.000 A 
ATOM     33  H   UNL     1      45.976   3.408   7.232  0.00  0.00    +0.000 HD
ENDBRANCH  20  23
ENDBRANCH  18  19
ENDBRANCH   4  18
TORSDOF 6
ENDMDL
MODEL 7
REMARK VINA RESULT:    -6.164      5.350      8.050
REMARK INTER + INTRA:          -9.295
REMARK INTER:                  -8.317
REMARK INTRA:                  -0.977
REMARK UNBOUND:                -0.968
REMARK  Name = 
REMARK  7 active torsions:
REMARK  status: ('A' for Active; 'I' for Inactive)
REMARK    1  A    between atoms: C_1  and  C_2
REMARK    2  A    between atoms: C_6  and  C_7
REMARK    3  A    between atoms: N_9  and  C_10
REMARK    4  A    between atoms: C_10  and  C_11
REMARK    5  A    between atoms: C_14  and  C_15
REMARK    6  A    between atoms: C_15  and  N_16
REMARK    7  A    between atoms: C_17  and  C_19
REMARK                            x       y       z     vdW  Elec       q    Type
REMARK                         _______ _______ _______ _____ _____    ______ ____
ROOT
ATOM      1  C   UNL     1      47.682   8.394  12.539  0.00  0.00    +0.000 A 
ATOM      2  C   UNL     1      48.487   7.290  12.273  0.00  0.00    +0.000 A 
ATOM      3  C   UNL     1      49.814   7.493  11.898  0.00  0.00    +0.000 A 
ATOM      4  C   UNL     1      50.315   8.791  11.796  0.00  0.00    +0.000 A 
ATOM      5  C   UNL     1      49.427   9.834  12.037  0.00  0.00    +0.000 A 
ATOM      6  N   UNL     1      48.132   9.667  12.403  0.00  0.00    +0.000 NA
ENDROOT
BRANCH   1   7
ATOM      7  C   UNL     1      46.252   8.198  12.990  0.00  0.00    +0.000 C 
BRANCH   7  10
ATOM      8  C   UNL     1      44.728   6.644  11.789  0.00  0.00    +0.000 C 
ATOM      9  O   UNL     1      44.209   7.565  11.160  0.00  0.00    +0.000 OA
ATOM     10  N   UNL     1      45.748   6.876  12.686  0.00  0.00    +0.000 N 
ATOM     11  H   UNL     1      46.063   6.113  13.269  0.00  0.00    +0.000 HD
BRANCH   8  17
ATOM     12  C   UNL     1      45.271   4.673   9.313  0.00  0.00    +0.000 C 
ATOM     13  C   UNL     1      44.550   4.384  10.583  0.00  0.00    +0.000 A 
ATOM     14  N   UNL     1      44.041   3.101  10.755  0.00  0.00    +0.000 NA
ATOM     15  C   UNL     1      43.449   3.009  11.921  0.00  0.00    +0.000 A 
ATOM     16  S   UNL     1      43.444   4.426  12.875  0.00  0.00    +0.000 S 
ATOM     17  C   UNL     1      44.322   5.254  11.643  0.00  0.00    +0.000 A 
ENDBRANCH   8  17
ENDBRANCH   7  10
ENDBRANCH   1   7
BRANCH   4  18
ATOM     18  C   UNL     1      51.741   9.057  11.409  0.00  0.00    +0.000 C 
BRANCH  18  19
ATOM     19  N   UNL     1      52.058   8.480  10.127  0.00  0.00    +0.000 N 
ATOM     20  C   UNL     1      53.179   8.861   9.433  0.00  0.00    +0.000 C 
ATOM     21  O   UNL     1      53.992   9.656   9.897  0.00  0.00    +0.000 OA
ATOM     22  H   UNL     1      51.313   7.991   9.640  0.00  0.00    +0.000 HD
BRANCH  20  23
ATOM     23  C   UNL     1      53.387   8.227   8.125  0.00  0.00    +0.000 A 
ATOM     24  C   UNL     1      53.432   9.009   6.978  0.00  0.00    +0.000 A 
ATOM     25  S   UNL     1      53.722   8.120   5.553  0.00  0.00    +0.000 S 
ATOM     26  C   UNL     1      53.752   6.651   6.410  0.00  0.00    +0.000 A 
ATOM     27  N   UNL     1      53.939   5.468   5.764  0.00  0.00    +0.000 NA
ATOM     28  C   UNL     1      53.911   4.431   6.532  0.00  0.00    +0.000 A 
ATOM     29  N   UNL     1      53.716   4.467   7.889  0.00  0.00    +0.000 N 
ATOM     30  C   UNL     1      53.551   5.641   8.586  0.00  0.00    +0.000 A 
ATOM     31  O   UNL     1      53.422   5.643   9.807  0.00  0.00    +0.000 OA
ATOM     32  C   UNL     1      53.562   6.837   7.768  0.00  0.00    +0.000 A 
ATOM     33  H   UNL     1      53.716   3.619   8.434  0.00  0.00    +0.000 HD
ENDBRANCH  20  23
ENDBRANCH  18  19
ENDBRANCH   4  18
TORSDOF 6
ENDMDL
MODEL 8
REMARK VINA RESULT:    -5.913      4.414      6.829
REMARK INTER + INTRA:          -8.956
REMARK INTER:                  -7.889
REMARK INTRA:                  -1.066
REMARK UNBOUND:                -0.968
REMARK  Name = 
REMARK  7 active torsions:
REMARK  status: ('A' for Active; 'I' for Inactive)
REMARK    1  A    between atoms: C_1  and  C_2
REMARK    2  A    between atoms: C_6  and  C_7
REMARK    3  A    between atoms: N_9  and  C_10
REMARK    4  A    between atoms: C_10  and  C_11
REMARK    5  A    between atoms: C_14  and  C_15
REMARK    6  A    between atoms: C_15  and  N_16
REMARK    7  A    between atoms: C_17  and  C_19
REMARK                            x       y       z     vdW  Elec       q    Type
REMARK                         _______ _______ _______ _____ _____    ______ ____
ROOT
ATOM      1  C   UNL     1      47.282   4.505  15.587  0.00  0.00    +0.000 A 
ATOM      2  C   UNL     1      48.052   5.633  15.857  0.00  0.00    +0.000 A 
ATOM      3  C   UNL     1      48.687   5.741  17.093  0.00  0.00    +0.000 A 
ATOM      4  C   UNL     1      48.545   4.722  18.037  0.00  0.00    +0.000 A 
ATOM      5  C   UNL     1      47.721   3.654  17.697  0.00  0.00    +0.000 A 
ATOM      6  N   UNL     1      47.091   3.523  16.503  0.00  0.00    +0.000 NA
ENDROOT
BRANCH   1   7
ATOM      7  C   UNL     1      46.619   4.345  14.237  0.00  0.00    +0.000 C 
BRANCH   7  10
ATOM      8  C   UNL     1      46.808   6.385  12.830  0.00  0.00    +0.000 C 
ATOM      9  O   UNL     1      47.908   6.043  12.399  0.00  0.00    +0.000 OA
ATOM     10  N   UNL     1      46.109   5.595  13.716  0.00  0.00    +0.000 N 
ATOM     11  H   UNL     1      45.268   5.967  14.137  0.00  0.00    +0.000 HD
BRANCH   8  17
ATOM     12  C   UNL     1      47.764   9.389  13.442  0.00  0.00    +0.000 C 
ATOM     13  C   UNL     1      46.556   8.938  12.698  0.00  0.00    +0.000 A 
ATOM     14  N   UNL     1      45.716   9.919  12.181  0.00  0.00    +0.000 NA
ATOM     15  C   UNL     1      44.713   9.359  11.550  0.00  0.00    +0.000 A 
ATOM     16  S   UNL     1      44.689   7.651  11.542  0.00  0.00    +0.000 S 
ATOM     17  C   UNL     1      46.157   7.630  12.447  0.00  0.00    +0.000 A 
ENDBRANCH   8  17
ENDBRANCH   7  10
ENDBRANCH   1   7
BRANCH   4  18
ATOM     18  C   UNL     1      49.222   4.789  19.375  0.00  0.00    +0.000 C 
BRANCH  18  19
ATOM     19  N   UNL     1      50.418   3.985  19.404  0.00  0.00    +0.000 N 
ATOM     20  C   UNL     1      51.640   4.516  19.075  0.00  0.00    +0.000 C 
ATOM     21  O   UNL     1      51.781   5.706  18.807  0.00  0.00    +0.000 OA
ATOM     22  H   UNL     1      50.301   2.976  19.416  0.00  0.00    +0.000 HD
BRANCH  20  23
ATOM     23  C   UNL     1      52.786   3.598  19.113  0.00  0.00    +0.000 A 
ATOM     24  C   UNL     1      53.910   3.928  19.859  0.00  0.00    +0.000 A 
ATOM     25  S   UNL     1      55.127   2.736  19.828  0.00  0.00    +0.000 S 
ATOM     26  C   UNL     1      54.216   1.754  18.779  0.00  0.00    +0.000 A 
ATOM     27  N   UNL     1      54.705   0.565  18.333  0.00  0.00    +0.000 NA
ATOM     28  C   UNL     1      53.921  -0.063  17.522  0.00  0.00    +0.000 A 
ATOM     29  N   UNL     1      52.690   0.387  17.119  0.00  0.00    +0.000 N 
ATOM     30  C   UNL     1      52.145   1.567  17.566  0.00  0.00    +0.000 A 
ATOM     31  O   UNL     1      51.021   1.921  17.221  0.00  0.00    +0.000 OA
ATOM     32  C   UNL     1      52.991   2.319  18.472  0.00  0.00    +0.000 A 
ATOM     33  H   UNL     1      52.121  -0.158  16.489  0.00  0.00    +0.000 HD
ENDBRANCH  20  23
ENDBRANCH  18  19
ENDBRANCH   4  18
TORSDOF 6
ENDMDL
MODEL 9
REMARK VINA RESULT:    -5.666      4.915      7.163
REMARK INTER + INTRA:          -8.622
REMARK INTER:                  -8.479
REMARK INTRA:                  -0.143
REMARK UNBOUND:                -0.968
REMARK  Name = 
REMARK  7 active torsions:
REMARK  status: ('A' for Active; 'I' for Inactive)
REMARK    1  A    between atoms: C_1  and  C_2
REMARK    2  A    between atoms: C_6  and  C_7
REMARK    3  A    between atoms: N_9  and  C_10
REMARK    4  A    between atoms: C_10  and  C_11
REMARK    5  A    between atoms: C_14  and  C_15
REMARK    6  A    between atoms: C_15  and  N_16
REMARK    7  A    between atoms: C_17  and  C_19
REMARK                            x       y       z     vdW  Elec       q    Type
REMARK                         _______ _______ _______ _____ _____    ______ ____
ROOT
ATOM      1  C   UNL     1      51.733   9.134  11.904  0.00  0.00    +0.000 A 
ATOM      2  C   UNL     1      50.410   9.348  11.530  0.00  0.00    +0.000 A 
ATOM      3  C   UNL     1      49.389   8.959  12.396  0.00  0.00    +0.000 A 
ATOM      4  C   UNL     1      49.706   8.368  13.621  0.00  0.00    +0.000 A 
ATOM      5  C   UNL     1      51.053   8.154  13.891  0.00  0.00    +0.000 A 
ATOM      6  N   UNL     1      52.067   8.521  13.068  0.00  0.00    +0.000 NA
ENDROOT
BRANCH   1   7
ATOM      7  C   UNL     1      52.859   9.586  11.000  0.00  0.00    +0.000 C 
BRANCH   7  10
ATOM      8  C   UNL     1      52.895   8.832   8.633  0.00  0.00    +0.000 C 
ATOM      9  O   UNL     1      52.404   9.890   8.240  0.00  0.00    +0.000 OA
ATOM     10  N   UNL     1      53.165   8.621   9.966  0.00  0.00    +0.000 N 
ATOM     11  H   UNL     1      53.453   7.698  10.263  0.00  0.00    +0.000 HD
BRANCH   8  17
ATOM     12  C   UNL     1      53.250   8.908   5.442  0.00  0.00    +0.000 C 
ATOM     13  C   UNL     1      53.393   7.745   6.360  0.00  0.00    +0.000 A 
ATOM     14  N   UNL     1      53.732   6.519   5.795  0.00  0.00    +0.000 NA
ATOM     15  C   UNL     1      53.828   5.608   6.734  0.00  0.00    +0.000 A 
ATOM     16  S   UNL     1      53.512   6.134   8.327  0.00  0.00    +0.000 S 
ATOM     17  C   UNL     1      53.231   7.731   7.740  0.00  0.00    +0.000 A 
ENDBRANCH   8  17
ENDBRANCH   7  10
ENDBRANCH   1   7
BRANCH   4  18
ATOM     18  C   UNL     1      48.641   7.947  14.591  0.00  0.00    +0.000 C 
BRANCH  18  19
ATOM     19  N   UNL     1      47.419   7.592  13.914  0.00  0.00    +0.000 N 
ATOM     20  C   UNL     1      47.282   6.382  13.280  0.00  0.00    +0.000 C 
ATOM     21  O   UNL     1      48.163   5.527  13.315  0.00  0.00    +0.000 OA
ATOM     22  H   UNL     1      46.772   8.344  13.696  0.00  0.00    +0.000 HD
BRANCH  20  23
ATOM     23  C   UNL     1      46.003   6.139  12.600  0.00  0.00    +0.000 A 
ATOM     24  C   UNL     1      45.311   7.201  12.033  0.00  0.00    +0.000 A 
ATOM     25  S   UNL     1      43.870   6.738  11.249  0.00  0.00    +0.000 S 
ATOM     26  C   UNL     1      44.094   5.108  11.680  0.00  0.00    +0.000 A 
ATOM     27  N   UNL     1      43.182   4.160  11.331  0.00  0.00    +0.000 NA
ATOM     28  C   UNL     1      43.463   2.971  11.747  0.00  0.00    +0.000 A 
ATOM     29  N   UNL     1      44.575   2.640  12.478  0.00  0.00    +0.000 N 
ATOM     30  C   UNL     1      45.536   3.559  12.829  0.00  0.00    +0.000 A 
ATOM     31  O   UNL     1      46.542   3.223  13.446  0.00  0.00    +0.000 OA
ATOM     32  C   UNL     1      45.262   4.915  12.396  0.00  0.00    +0.000 A 
ATOM     33  H   UNL     1      44.741   1.688  12.763  0.00  0.00    +0.000 HD
ENDBRANCH  20  23
ENDBRANCH  18  19
ENDBRANCH   4  18
TORSDOF 6
ENDMDL
