MODEL 1
REMARK VINA RESULT:    -7.975      0.000      0.000
REMARK INTER + INTRA:         -11.963
REMARK INTER:                 -10.773
REMARK INTRA:                  -1.191
REMARK UNBOUND:                -1.191
REMARK  Name = 
REMARK  7 active torsions:
REMARK  status: ('A' for Active; 'I' for Inactive)
REMARK    1  A    between atoms: C_1  and  O_2
REMARK    2  A    between atoms: O_2  and  C_3
REMARK    3  A    between atoms: C_8  and  C_9
REMARK    4  A    between atoms: C_9  and  C_10
REMARK    5  A    between atoms: C_13  and  C_14
REMARK    6  A    between atoms: C_14  and  N_15
REMARK    7  A    between atoms: C_16  and  C_18
REMARK                            x       y       z     vdW  Elec       q    Type
REMARK                         _______ _______ _______ _____ _____    ______ ____
ROOT
ATOM      1  C   UNL     1      47.526   8.463  13.744  0.00  0.00    +0.000 C 
ENDROOT
BRANCH   1   5
ATOM      2  C   UNL     1      44.854   6.292  11.124  0.00  0.00    +0.000 A 
ATOM      3  C   UNL     1      46.043   5.705  11.573  0.00  0.00    +0.000 A 
ATOM      4  C   UNL     1      46.933   6.422  12.379  0.00  0.00    +0.000 A 
ATOM      5  C   UNL     1      46.641   7.736  12.767  0.00  0.00    +0.000 A 
ATOM      6  C   UNL     1      45.493   8.351  12.252  0.00  0.00    +0.000 A 
ATOM      7  C   UNL     1      44.604   7.633  11.444  0.00  0.00    +0.000 A 
BRANCH   2   8
ATOM      8  C   UNL     1      43.856   5.479  10.329  0.00  0.00    +0.000 C 
BRANCH   8  14
ATOM      9  C   UNL     1      44.153   2.952   9.987  0.00  0.00    +0.000 A 
ATOM     10  C   UNL     1      44.765   1.888   9.310  0.00  0.00    +0.000 A 
ATOM     11  C   UNL     1      45.665   2.127   8.270  0.00  0.00    +0.000 A 
ATOM     12  C   UNL     1      45.946   3.430   7.882  0.00  0.00    +0.000 A 
ATOM     13  C   UNL     1      45.333   4.497   8.539  0.00  0.00    +0.000 A 
ATOM     14  C   UNL     1      44.441   4.278   9.605  0.00  0.00    +0.000 A 
BRANCH   9  16
ATOM     15  C   UNL     1      43.812   2.675  12.324  0.00  0.00    +0.000 C 
ATOM     16  O   UNL     1      43.260   2.786  11.015  0.00  0.00    +0.000 OA
ENDBRANCH   9  16
ENDBRANCH   8  14
ENDBRANCH   2   8
ENDBRANCH   1   5
BRANCH   1  17
ATOM     17  N   UNL     1      47.833   7.668  14.902  0.00  0.00    +0.000 N 
ATOM     18  C   UNL     1      49.080   7.112  15.051  0.00  0.00    +0.000 C 
ATOM     19  O   UNL     1      49.985   7.321  14.246  0.00  0.00    +0.000 OA
ATOM     20  H   UNL     1      47.052   7.307  15.440  0.00  0.00    +0.000 HD
BRANCH  18  21
ATOM     21  C   UNL     1      49.305   6.305  16.255  0.00  0.00    +0.000 A 
ATOM     22  C   UNL     1      50.326   6.651  17.129  0.00  0.00    +0.000 A 
ATOM     23  S   UNL     1      50.421   5.646  18.503  0.00  0.00    +0.000 S 
ATOM     24  C   UNL     1      49.135   4.679  17.949  0.00  0.00    +0.000 A 
ATOM     25  N   UNL     1      48.719   3.602  18.666  0.00  0.00    +0.000 NA
ATOM     26  C   UNL     1      47.754   2.939  18.116  0.00  0.00    +0.000 A 
ATOM     27  N   UNL     1      47.171   3.259  16.915  0.00  0.00    +0.000 N 
ATOM     28  C   UNL     1      47.544   4.351  16.170  0.00  0.00    +0.000 A 
ATOM     29  O   UNL     1      46.976   4.629  15.120  0.00  0.00    +0.000 OA
ATOM     30  C   UNL     1      48.629   5.127  16.741  0.00  0.00    +0.000 A 
ATOM     31  H   UNL     1      46.419   2.700  16.544  0.00  0.00    +0.000 HD
ENDBRANCH  18  21
ENDBRANCH   1  17
TORSDOF 6
ENDMDL
MODEL 2
REMARK VINA RESULT:    -7.303      1.896      3.035
REMARK INTER + INTRA:         -11.055
REMARK INTER:                 -10.862
REMARK INTRA:                  -0.193
REMARK UNBOUND:                -1.191
REMARK  Name = 
REMARK  7 active torsions:
REMARK  status: ('A' for Active; 'I' for Inactive)
REMARK    1  A    between atoms: C_1  and  O_2
REMARK    2  A    between atoms: O_2  and  C_3
REMARK    3  A    between atoms: C_8  and  C_9
REMARK    4  A    between atoms: C_9  and  C_10
REMARK    5  A    between atoms: C_13  and  C_14
REMARK    6  A    between atoms: C_14  and  N_15
REMARK    7  A    between atoms: C_16  and  C_18
REMARK                            x       y       z     vdW  Elec       q    Type
REMARK                         _______ _______ _______ _____ _____    ______ ____
ROOT
ATOM      1  C   UNL     1      45.300   6.857  12.472  0.00  0.00    +0.000 C 
ENDROOT
BRANCH   1   5
ATOM      2  C   UNL     1      45.084   3.357   9.937  0.00  0.00    +0.000 A 
ATOM      3  C   UNL     1      45.380   4.613   9.394  0.00  0.00    +0.000 A 
ATOM      4  C   UNL     1      45.400   5.754  10.202  0.00  0.00    +0.000 A 
ATOM      5  C   UNL     1      45.144   5.658  11.575  0.00  0.00    +0.000 A 
ATOM      6  C   UNL     1      44.769   4.416  12.105  0.00  0.00    +0.000 A 
ATOM      7  C   UNL     1      44.746   3.276  11.295  0.00  0.00    +0.000 A 
BRANCH   2   8
ATOM      8  C   UNL     1      45.153   2.117   9.073  0.00  0.00    +0.000 C 
BRANCH   8  14
ATOM      9  C   UNL     1      46.856   1.215   7.378  0.00  0.00    +0.000 A 
ATOM     10  C   UNL     1      47.664   1.420   6.251  0.00  0.00    +0.000 A 
ATOM     11  C   UNL     1      47.651   2.643   5.577  0.00  0.00    +0.000 A 
ATOM     12  C   UNL     1      46.815   3.664   6.009  0.00  0.00    +0.000 A 
ATOM     13  C   UNL     1      45.997   3.467   7.122  0.00  0.00    +0.000 A 
ATOM     14  C   UNL     1      46.013   2.251   7.829  0.00  0.00    +0.000 A 
BRANCH   9  16
ATOM     15  C   UNL     1      46.482  -1.133   7.349  0.00  0.00    +0.000 C 
ATOM     16  O   UNL     1      46.821   0.039   8.084  0.00  0.00    +0.000 OA
ENDBRANCH   9  16
ENDBRANCH   8  14
ENDBRANCH   2   8
ENDBRANCH   1   5
BRANCH   1  17
ATOM     17  N   UNL     1      46.076   6.565  13.646  0.00  0.00    +0.000 N 
ATOM     18  C   UNL     1      47.445   6.670  13.615  0.00  0.00    +0.000 C 
ATOM     19  O   UNL     1      48.044   7.070  12.620  0.00  0.00    +0.000 OA
ATOM     20  H   UNL     1      45.627   6.027  14.380  0.00  0.00    +0.000 HD
BRANCH  18  21
ATOM     21  C   UNL     1      48.161   6.342  14.853  0.00  0.00    +0.000 A 
ATOM     22  C   UNL     1      49.107   7.227  15.350  0.00  0.00    +0.000 A 
ATOM     23  S   UNL     1      49.809   6.724  16.821  0.00  0.00    +0.000 S 
ATOM     24  C   UNL     1      48.915   5.277  16.813  0.00  0.00    +0.000 A 
ATOM     25  N   UNL     1      49.067   4.362  17.807  0.00  0.00    +0.000 NA
ATOM     26  C   UNL     1      48.349   3.296  17.661  0.00  0.00    +0.000 A 
ATOM     27  N   UNL     1      47.493   3.067  16.613  0.00  0.00    +0.000 N 
ATOM     28  C   UNL     1      47.290   3.974  15.601  0.00  0.00    +0.000 A 
ATOM     29  O   UNL     1      46.490   3.753  14.700  0.00  0.00    +0.000 OA
ATOM     30  C   UNL     1      48.078   5.187  15.714  0.00  0.00    +0.000 A 
ATOM     31  H   UNL     1      46.959   2.214  16.563  0.00  0.00    +0.000 HD
ENDBRANCH  18  21
ENDBRANCH   1  17
TORSDOF 6
ENDMDL
MODEL 3
REMARK VINA RESULT:    -7.182      2.364      2.992
REMARK INTER + INTRA:         -10.891
REMARK INTER:                  -9.730
REMARK INTRA:                  -1.162
REMARK UNBOUND:                -1.191
REMARK  Name = 
REMARK  7 active torsions:
REMARK  status: ('A' for Active; 'I' for Inactive)
REMARK    1  A    between atoms: C_1  and  O_2
REMARK    2  A    between atoms: O_2  and  C_3
REMARK    3  A    between atoms: C_8  and  C_9
REMARK    4  A    between atoms: C_9  and  C_10
REMARK    5  A    between atoms: C_13  and  C_14
REMARK    6  A    between atoms: C_14  and  N_15
REMARK    7  A    between atoms: C_16  and  C_18
REMARK                            x       y       z     vdW  Elec       q    Type
REMARK                         _______ _______ _______ _____ _____    ______ ____
ROOT
ATOM      1  C   UNL     1      48.657   7.105  14.303  0.00  0.00    +0.000 C 
ENDROOT
BRANCH   1   5
ATOM      2  C   UNL     1      45.393   6.044  11.670  0.00  0.00    +0.000 A 
ATOM      3  C   UNL     1      45.839   7.369  11.753  0.00  0.00    +0.000 A 
ATOM      4  C   UNL     1      46.860   7.724  12.640  0.00  0.00    +0.000 A 
ATOM      5  C   UNL     1      47.468   6.756  13.449  0.00  0.00    +0.000 A 
ATOM      6  C   UNL     1      46.968   5.447  13.426  0.00  0.00    +0.000 A 
ATOM      7  C   UNL     1      45.945   5.094  12.540  0.00  0.00    +0.000 A 
BRANCH   2   8
ATOM      8  C   UNL     1      44.352   5.654  10.644  0.00  0.00    +0.000 C 
BRANCH   8  14
ATOM      9  C   UNL     1      44.163   3.192   9.941  0.00  0.00    +0.000 A 
ATOM     10  C   UNL     1      44.591   2.130   9.131  0.00  0.00    +0.000 A 
ATOM     11  C   UNL     1      45.579   2.324   8.164  0.00  0.00    +0.000 A 
ATOM     12  C   UNL     1      46.133   3.584   7.981  0.00  0.00    +0.000 A 
ATOM     13  C   UNL     1      45.706   4.652   8.771  0.00  0.00    +0.000 A 
ATOM     14  C   UNL     1      44.729   4.472   9.768  0.00  0.00    +0.000 A 
BRANCH   9  16
ATOM     15  C   UNL     1      43.594   2.444  12.125  0.00  0.00    +0.000 C 
ATOM     16  O   UNL     1      43.198   3.070  10.908  0.00  0.00    +0.000 OA
ENDBRANCH   9  16
ENDBRANCH   8  14
ENDBRANCH   2   8
ENDBRANCH   1   5
BRANCH   1  17
ATOM     17  N   UNL     1      48.347   7.092  15.707  0.00  0.00    +0.000 N 
ATOM     18  C   UNL     1      49.239   6.565  16.609  0.00  0.00    +0.000 C 
ATOM     19  O   UNL     1      50.343   6.150  16.265  0.00  0.00    +0.000 OA
ATOM     20  H   UNL     1      47.374   7.213  15.971  0.00  0.00    +0.000 HD
BRANCH  18  21
ATOM     21  C   UNL     1      48.838   6.578  18.020  0.00  0.00    +0.000 A 
ATOM     22  C   UNL     1      49.014   5.438  18.791  0.00  0.00    +0.000 A 
ATOM     23  S   UNL     1      48.547   5.634  20.420  0.00  0.00    +0.000 S 
ATOM     24  C   UNL     1      48.041   7.234  20.137  0.00  0.00    +0.000 A 
ATOM     25  N   UNL     1      47.504   7.979  21.139  0.00  0.00    +0.000 NA
ATOM     26  C   UNL     1      47.136   9.165  20.778  0.00  0.00    +0.000 A 
ATOM     27  N   UNL     1      47.258   9.670  19.508  0.00  0.00    +0.000 N 
ATOM     28  C   UNL     1      47.817   8.961  18.472  0.00  0.00    +0.000 A 
ATOM     29  O   UNL     1      47.945   9.457  17.358  0.00  0.00    +0.000 OA
ATOM     30  C   UNL     1      48.242   7.619  18.822  0.00  0.00    +0.000 A 
ATOM     31  H   UNL     1      46.953  10.607  19.295  0.00  0.00    +0.000 HD
ENDBRANCH  18  21
ENDBRANCH   1  17
TORSDOF 6
ENDMDL
MODEL 4
REMARK VINA RESULT:    -7.151      1.787      2.200
REMARK INTER + INTRA:         -10.850
REMARK INTER:                  -9.687
REMARK INTRA:                  -1.163
REMARK UNBOUND:                -1.191
REMARK  Name = 
REMARK  7 active torsions:
REMARK  status: ('A' for Active; 'I' for Inactive)
REMARK    1  A    between atoms: C_1  and  O_2
REMARK    2  A    between atoms: O_2  and  C_3
REMARK    3  A    between atoms: C_8  and  C_9
REMARK    4  A    between atoms: C_9  and  C_10
REMARK    5  A    between atoms: C_13  and  C_14
REMARK    6  A    between atoms: C_14  and  N_15
REMARK    7  A    between atoms: C_16  and  C_18
REMARK                            x       y       z     vdW  Elec       q    Type
REMARK                         _______ _______ _______ _____ _____    ______ ____
ROOT
ATOM      1  C   UNL     1      48.768   7.101  14.255  0.00  0.00    +0.000 C 
ENDROOT
BRANCH   1   5
ATOM      2  C   UNL     1      45.460   6.081  11.660  0.00  0.00    +0.000 A 
ATOM      3  C   UNL     1      45.930   7.399  11.731  0.00  0.00    +0.000 A 
ATOM      4  C   UNL     1      46.966   7.741  12.606  0.00  0.00    +0.000 A 
ATOM      5  C   UNL     1      47.565   6.767  13.414  0.00  0.00    +0.000 A 
ATOM      6  C   UNL     1      47.041   5.468  13.404  0.00  0.00    +0.000 A 
ATOM      7  C   UNL     1      46.004   5.127  12.530  0.00  0.00    +0.000 A 
BRANCH   2   8
ATOM      8  C   UNL     1      44.402   5.703  10.647  0.00  0.00    +0.000 C 
BRANCH   8  14
ATOM      9  C   UNL     1      44.166   3.243   9.956  0.00  0.00    +0.000 A 
ATOM     10  C   UNL     1      44.568   2.171   9.146  0.00  0.00    +0.000 A 
ATOM     11  C   UNL     1      45.550   2.344   8.169  0.00  0.00    +0.000 A 
ATOM     12  C   UNL     1      46.122   3.595   7.975  0.00  0.00    +0.000 A 
ATOM     13  C   UNL     1      45.721   4.672   8.765  0.00  0.00    +0.000 A 
ATOM     14  C   UNL     1      44.751   4.513   9.772  0.00  0.00    +0.000 A 
BRANCH   9  16
ATOM     15  C   UNL     1      43.584   2.448  12.120  0.00  0.00    +0.000 C 
ATOM     16  O   UNL     1      43.208   3.140  10.932  0.00  0.00    +0.000 OA
ENDBRANCH   9  16
ENDBRANCH   8  14
ENDBRANCH   2   8
ENDBRANCH   1   5
BRANCH   1  17
ATOM     17  N   UNL     1      48.534   6.888  15.657  0.00  0.00    +0.000 N 
ATOM     18  C   UNL     1      48.876   7.855  16.571  0.00  0.00    +0.000 C 
ATOM     19  O   UNL     1      49.329   8.944  16.227  0.00  0.00    +0.000 OA
ATOM     20  H   UNL     1      48.381   5.933  15.966  0.00  0.00    +0.000 HD
BRANCH  18  21
ATOM     21  C   UNL     1      48.615   7.552  17.983  0.00  0.00    +0.000 A 
ATOM     22  C   UNL     1      48.151   8.555  18.822  0.00  0.00    +0.000 A 
ATOM     23  S   UNL     1      47.848   8.029  20.416  0.00  0.00    +0.000 S 
ATOM     24  C   UNL     1      48.378   6.454  20.052  0.00  0.00    +0.000 A 
ATOM     25  N   UNL     1      48.397   5.490  21.010  0.00  0.00    +0.000 NA
ATOM     26  C   UNL     1      48.851   4.349  20.605  0.00  0.00    +0.000 A 
ATOM     27  N   UNL     1      49.285   4.087  19.330  0.00  0.00    +0.000 N 
ATOM     28  C   UNL     1      49.261   5.024  18.325  0.00  0.00    +0.000 A 
ATOM     29  O   UNL     1      49.622   4.746  17.187  0.00  0.00    +0.000 OA
ATOM     30  C   UNL     1      48.765   6.327  18.729  0.00  0.00    +0.000 A 
ATOM     31  H   UNL     1      49.624   3.172  19.079  0.00  0.00    +0.000 HD
ENDBRANCH  18  21
ENDBRANCH   1  17
TORSDOF 6
ENDMDL
MODEL 5
REMARK VINA RESULT:    -6.884      3.768      8.837
REMARK INTER + INTRA:         -10.489
REMARK INTER:                  -9.297
REMARK INTRA:                  -1.192
REMARK UNBOUND:                -1.191
REMARK  Name = 
REMARK  7 active torsions:
REMARK  status: ('A' for Active; 'I' for Inactive)
REMARK    1  A    between atoms: C_1  and  O_2
REMARK    2  A    between atoms: O_2  and  C_3
REMARK    3  A    between atoms: C_8  and  C_9
REMARK    4  A    between atoms: C_9  and  C_10
REMARK    5  A    between atoms: C_13  and  C_14
REMARK    6  A    between atoms: C_14  and  N_15
REMARK    7  A    between atoms: C_16  and  C_18
REMARK                            x       y       z     vdW  Elec       q    Type
REMARK                         _______ _______ _______ _____ _____    ______ ____
ROOT
ATOM      1  C   UNL     1      47.405   3.478  16.508  0.00  0.00    +0.000 C 
ENDROOT
BRANCH   1   5
ATOM      2  C   UNL     1      51.211   4.913  17.983  0.00  0.00    +0.000 A 
ATOM      3  C   UNL     1      50.979   3.541  17.827  0.00  0.00    +0.000 A 
ATOM      4  C   UNL     1      49.733   3.072  17.399  0.00  0.00    +0.000 A 
ATOM      5  C   UNL     1      48.700   3.968  17.100  0.00  0.00    +0.000 A 
ATOM      6  C   UNL     1      48.904   5.334  17.332  0.00  0.00    +0.000 A 
ATOM      7  C   UNL     1      50.150   5.802  17.763  0.00  0.00    +0.000 A 
BRANCH   2   8
ATOM      8  C   UNL     1      52.587   5.415  18.359  0.00  0.00    +0.000 C 
BRANCH   8  14
ATOM      9  C   UNL     1      54.673   4.497  17.179  0.00  0.00    +0.000 A 
ATOM     10  C   UNL     1      55.605   4.577  16.134  0.00  0.00    +0.000 A 
ATOM     11  C   UNL     1      55.489   5.561  15.151  0.00  0.00    +0.000 A 
ATOM     12  C   UNL     1      54.430   6.459  15.187  0.00  0.00    +0.000 A 
ATOM     13  C   UNL     1      53.489   6.379  16.214  0.00  0.00    +0.000 A 
ATOM     14  C   UNL     1      53.601   5.411  17.229  0.00  0.00    +0.000 A 
BRANCH   9  16
ATOM     15  C   UNL     1      54.512   2.202  17.783  0.00  0.00    +0.000 C 
ATOM     16  O   UNL     1      54.728   3.555  18.175  0.00  0.00    +0.000 OA
ENDBRANCH   9  16
ENDBRANCH   8  14
ENDBRANCH   2   8
ENDBRANCH   1   5
BRANCH   1  17
ATOM     17  N   UNL     1      46.803   4.445  15.630  0.00  0.00    +0.000 N 
ATOM     18  C   UNL     1      46.785   4.232  14.273  0.00  0.00    +0.000 C 
ATOM     19  O   UNL     1      47.216   3.197  13.772  0.00  0.00    +0.000 OA
ATOM     20  H   UNL     1      46.657   5.380  15.997  0.00  0.00    +0.000 HD
BRANCH  18  21
ATOM     21  C   UNL     1      46.163   5.275  13.449  0.00  0.00    +0.000 A 
ATOM     22  C   UNL     1      46.844   6.463  13.223  0.00  0.00    +0.000 A 
ATOM     23  S   UNL     1      46.009   7.547  12.205  0.00  0.00    +0.000 S 
ATOM     24  C   UNL     1      44.684   6.488  12.076  0.00  0.00    +0.000 A 
ATOM     25  N   UNL     1      43.589   6.831  11.347  0.00  0.00    +0.000 NA
ATOM     26  C   UNL     1      42.645   5.948  11.360  0.00  0.00    +0.000 A 
ATOM     27  N   UNL     1      42.700   4.754  12.034  0.00  0.00    +0.000 N 
ATOM     28  C   UNL     1      43.795   4.356  12.763  0.00  0.00    +0.000 A 
ATOM     29  O   UNL     1      43.825   3.266  13.322  0.00  0.00    +0.000 OA
ATOM     30  C   UNL     1      44.882   5.316  12.786  0.00  0.00    +0.000 A 
ATOM     31  H   UNL     1      41.928   4.107  11.998  0.00  0.00    +0.000 HD
ENDBRANCH  18  21
ENDBRANCH   1  17
TORSDOF 6
ENDMDL
MODEL 6
REMARK VINA RESULT:    -6.661      1.515      2.454
REMARK INTER + INTRA:         -10.188
REMARK INTER:                  -8.641
REMARK INTRA:                  -1.547
REMARK UNBOUND:                -1.191
REMARK  Name = 
REMARK  7 active torsions:
REMARK  status: ('A' for Active; 'I' for Inactive)
REMARK    1  A    between atoms: C_1  and  O_2
REMARK    2  A    between atoms: O_2  and  C_3
REMARK    3  A    between atoms: C_8  and  C_9
REMARK    4  A    between atoms: C_9  and  C_10
REMARK    5  A    between atoms: C_13  and  C_14
REMARK    6  A    between atoms: C_14  and  N_15
REMARK    7  A    between atoms: C_16  and  C_18
REMARK                            x       y       z     vdW  Elec       q    Type
REMARK                         _______ _______ _______ _____ _____    ______ ____
ROOT
ATOM      1  C   UNL     1      49.407   8.727  13.940  0.00  0.00    +0.000 C 
ENDROOT
BRANCH   1   5
ATOM      2  C   UNL     1      45.951   7.423  11.686  0.00  0.00    +0.000 A 
ATOM      3  C   UNL     1      47.101   6.626  11.751  0.00  0.00    +0.000 A 
ATOM      4  C   UNL     1      48.237   7.068  12.437  0.00  0.00    +0.000 A 
ATOM      5  C   UNL     1      48.239   8.308  13.087  0.00  0.00    +0.000 A 
ATOM      6  C   UNL     1      47.120   9.140  12.954  0.00  0.00    +0.000 A 
ATOM      7  C   UNL     1      45.984   8.698  12.266  0.00  0.00    +0.000 A 
BRANCH   2   8
ATOM      8  C   UNL     1      44.698   6.899  11.021  0.00  0.00    +0.000 C 
BRANCH   8  14
ATOM      9  C   UNL     1      44.445   4.406  10.466  0.00  0.00    +0.000 A 
ATOM     10  C   UNL     1      44.041   3.118  10.847  0.00  0.00    +0.000 A 
ATOM     11  C   UNL     1      43.514   2.882  12.118  0.00  0.00    +0.000 A 
ATOM     12  C   UNL     1      43.408   3.924  13.029  0.00  0.00    +0.000 A 
ATOM     13  C   UNL     1      43.819   5.207  12.667  0.00  0.00    +0.000 A 
ATOM     14  C   UNL     1      44.330   5.471  11.383  0.00  0.00    +0.000 A 
BRANCH   9  16
ATOM     15  C   UNL     1      44.831   3.708   8.226  0.00  0.00    +0.000 C 
ATOM     16  O   UNL     1      44.970   4.704   9.235  0.00  0.00    +0.000 OA
ENDBRANCH   9  16
ENDBRANCH   8  14
ENDBRANCH   2   8
ENDBRANCH   1   5
BRANCH   1  17
ATOM     17  N   UNL     1      49.546   7.913  15.117  0.00  0.00    +0.000 N 
ATOM     18  C   UNL     1      48.890   8.252  16.275  0.00  0.00    +0.000 C 
ATOM     19  O   UNL     1      48.123   9.209  16.331  0.00  0.00    +0.000 OA
ATOM     20  H   UNL     1      50.333   7.273  15.151  0.00  0.00    +0.000 HD
BRANCH  18  21
ATOM     21  C   UNL     1      49.097   7.375  17.432  0.00  0.00    +0.000 A 
ATOM     22  C   UNL     1      49.614   7.904  18.607  0.00  0.00    +0.000 A 
ATOM     23  S   UNL     1      49.744   6.767  19.871  0.00  0.00    +0.000 S 
ATOM     24  C   UNL     1      49.168   5.514  18.875  0.00  0.00    +0.000 A 
ATOM     25  N   UNL     1      49.056   4.246  19.349  0.00  0.00    +0.000 NA
ATOM     26  C   UNL     1      48.634   3.389  18.478  0.00  0.00    +0.000 A 
ATOM     27  N   UNL     1      48.313   3.688  17.178  0.00  0.00    +0.000 N 
ATOM     28  C   UNL     1      48.387   4.960  16.663  0.00  0.00    +0.000 A 
ATOM     29  O   UNL     1      48.057   5.199  15.507  0.00  0.00    +0.000 OA
ATOM     30  C   UNL     1      48.863   5.961  17.600  0.00  0.00    +0.000 A 
ATOM     31  H   UNL     1      47.985   2.971  16.550  0.00  0.00    +0.000 HD
ENDBRANCH  18  21
ENDBRANCH   1  17
TORSDOF 6
ENDMDL
MODEL 7
REMARK VINA RESULT:    -6.605      2.975      4.568
REMARK INTER + INTRA:         -10.112
REMARK INTER:                  -9.294
REMARK INTRA:                  -0.819
REMARK UNBOUND:                -1.191
REMARK  Name = 
REMARK  7 active torsions:
REMARK  status: ('A' for Active; 'I' for Inactive)
REMARK    1  A    between atoms: C_1  and  O_2
REMARK    2  A    between atoms: O_2  and  C_3
REMARK    3  A    between atoms: C_8  and  C_9
REMARK    4  A    between atoms: C_9  and  C_10
REMARK    5  A    between atoms: C_13  and  C_14
REMARK    6  A    between atoms: C_14  and  N_15
REMARK    7  A    between atoms: C_16  and  C_18
REMARK                            x       y       z     vdW  Elec       q    Type
REMARK                         _______ _______ _______ _____ _____    ______ ____
ROOT
ATOM      1  C   UNL     1      45.691   5.742  13.572  0.00  0.00    +0.000 C 
ENDROOT
BRANCH   1   5
ATOM      2  C   UNL     1      44.811   3.237  10.156  0.00  0.00    +0.000 A 
ATOM      3  C   UNL     1      44.890   4.629  10.018  0.00  0.00    +0.000 A 
ATOM      4  C   UNL     1      45.125   5.444  11.129  0.00  0.00    +0.000 A 
ATOM      5  C   UNL     1      45.303   4.882  12.399  0.00  0.00    +0.000 A 
ATOM      6  C   UNL     1      45.144   3.499  12.552  0.00  0.00    +0.000 A 
ATOM      7  C   UNL     1      44.907   2.684  11.440  0.00  0.00    +0.000 A 
BRANCH   2   8
ATOM      8  C   UNL     1      44.648   2.359   8.935  0.00  0.00    +0.000 C 
BRANCH   8  14
ATOM      9  C   UNL     1      46.633   1.402   7.618  0.00  0.00    +0.000 A 
ATOM     10  C   UNL     1      47.675   1.587   6.698  0.00  0.00    +0.000 A 
ATOM     11  C   UNL     1      47.868   2.823   6.079  0.00  0.00    +0.000 A 
ATOM     12  C   UNL     1      47.009   3.880   6.355  0.00  0.00    +0.000 A 
ATOM     13  C   UNL     1      45.961   3.703   7.258  0.00  0.00    +0.000 A 
ATOM     14  C   UNL     1      45.763   2.473   7.911  0.00  0.00    +0.000 A 
BRANCH   9  16
ATOM     15  C   UNL     1      46.434  -0.962   7.458  0.00  0.00    +0.000 C 
ATOM     16  O   UNL     1      46.388   0.215   8.260  0.00  0.00    +0.000 OA
ENDBRANCH   9  16
ENDBRANCH   8  14
ENDBRANCH   2   8
ENDBRANCH   1   5
BRANCH   1  17
ATOM     17  N   UNL     1      46.971   6.372  13.391  0.00  0.00    +0.000 N 
ATOM     18  C   UNL     1      47.053   7.728  13.188  0.00  0.00    +0.000 C 
ATOM     19  O   UNL     1      46.060   8.451  13.217  0.00  0.00    +0.000 OA
ATOM     20  H   UNL     1      47.753   5.775  13.140  0.00  0.00    +0.000 HD
BRANCH  18  21
ATOM     21  C   UNL     1      48.396   8.287  12.999  0.00  0.00    +0.000 A 
ATOM     22  C   UNL     1      48.626   9.174  11.956  0.00  0.00    +0.000 A 
ATOM     23  S   UNL     1      50.222   9.772  11.905  0.00  0.00    +0.000 S 
ATOM     24  C   UNL     1      50.676   8.822  13.242  0.00  0.00    +0.000 A 
ATOM     25  N   UNL     1      51.952   8.847  13.709  0.00  0.00    +0.000 NA
ATOM     26  C   UNL     1      52.166   8.056  14.709  0.00  0.00    +0.000 A 
ATOM     27  N   UNL     1      51.219   7.245  15.281  0.00  0.00    +0.000 N 
ATOM     28  C   UNL     1      49.913   7.205  14.857  0.00  0.00    +0.000 A 
ATOM     29  O   UNL     1      49.084   6.497  15.415  0.00  0.00    +0.000 OA
ATOM     30  C   UNL     1      49.620   8.072  13.731  0.00  0.00    +0.000 A 
ATOM     31  H   UNL     1      51.453   6.653  16.063  0.00  0.00    +0.000 HD
ENDBRANCH  18  21
ENDBRANCH   1  17
TORSDOF 6
ENDMDL
MODEL 8
REMARK VINA RESULT:    -6.407      2.613      3.683
REMARK INTER + INTRA:          -9.845
REMARK INTER:                  -9.238
REMARK INTRA:                  -0.606
REMARK UNBOUND:                -1.191
REMARK  Name = 
REMARK  7 active torsions:
REMARK  status: ('A' for Active; 'I' for Inactive)
REMARK    1  A    between atoms: C_1  and  O_2
REMARK    2  A    between atoms: O_2  and  C_3
REMARK    3  A    between atoms: C_8  and  C_9
REMARK    4  A    between atoms: C_9  and  C_10
REMARK    5  A    between atoms: C_13  and  C_14
REMARK    6  A    between atoms: C_14  and  N_15
REMARK    7  A    between atoms: C_16  and  C_18
REMARK                            x       y       z     vdW  Elec       q    Type
REMARK                         _______ _______ _______ _____ _____    ______ ____
ROOT
ATOM      1  C   UNL     1      49.006   7.313  16.478  0.00  0.00    +0.000 C 
ENDROOT
BRANCH   1   5
ATOM      2  C   UNL     1      47.110   6.613  12.652  0.00  0.00    +0.000 A 
ATOM      3  C   UNL     1      47.337   5.553  13.539  0.00  0.00    +0.000 A 
ATOM      4  C   UNL     1      47.995   5.768  14.754  0.00  0.00    +0.000 A 
ATOM      5  C   UNL     1      48.423   7.051  15.115  0.00  0.00    +0.000 A 
ATOM      6  C   UNL     1      48.269   8.096  14.194  0.00  0.00    +0.000 A 
ATOM      7  C   UNL     1      47.613   7.880  12.978  0.00  0.00    +0.000 A 
BRANCH   2   8
ATOM      8  C   UNL     1      46.319   6.388  11.383  0.00  0.00    +0.000 C 
BRANCH   8  14
ATOM      9  C   UNL     1      44.863   4.505  10.422  0.00  0.00    +0.000 A 
ATOM     10  C   UNL     1      43.799   3.604  10.571  0.00  0.00    +0.000 A 
ATOM     11  C   UNL     1      43.074   3.547  11.763  0.00  0.00    +0.000 A 
ATOM     12  C   UNL     1      43.420   4.372  12.825  0.00  0.00    +0.000 A 
ATOM     13  C   UNL     1      44.486   5.263  12.694  0.00  0.00    +0.000 A 
ATOM     14  C   UNL     1      45.213   5.353  11.493  0.00  0.00    +0.000 A 
BRANCH   9  16
ATOM     15  C   UNL     1      45.125   3.924   8.132  0.00  0.00    +0.000 C 
ATOM     16  O   UNL     1      45.615   4.610   9.280  0.00  0.00    +0.000 OA
ENDBRANCH   9  16
ENDBRANCH   8  14
ENDBRANCH   2   8
ENDBRANCH   1   5
BRANCH   1  17
ATOM     17  N   UNL     1      50.128   6.461  16.766  0.00  0.00    +0.000 N 
ATOM     18  C   UNL     1      50.012   5.449  17.688  0.00  0.00    +0.000 C 
ATOM     19  O   UNL     1      48.947   5.198  18.245  0.00  0.00    +0.000 OA
ATOM     20  H   UNL     1      51.048   6.793  16.495  0.00  0.00    +0.000 HD
BRANCH  18  21
ATOM     21  C   UNL     1      51.208   4.636  17.932  0.00  0.00    +0.000 A 
ATOM     22  C   UNL     1      52.348   5.236  18.448  0.00  0.00    +0.000 A 
ATOM     23  S   UNL     1      53.631   4.146  18.721  0.00  0.00    +0.000 S 
ATOM     24  C   UNL     1      52.725   2.844  18.106  0.00  0.00    +0.000 A 
ATOM     25  N   UNL     1      53.262   1.597  18.034  0.00  0.00    +0.000 NA
ATOM     26  C   UNL     1      52.476   0.709  17.520  0.00  0.00    +0.000 A 
ATOM     27  N   UNL     1      51.202   0.957  17.073  0.00  0.00    +0.000 N 
ATOM     28  C   UNL     1      50.611   2.196  17.149  0.00  0.00    +0.000 A 
ATOM     29  O   UNL     1      49.458   2.374  16.775  0.00  0.00    +0.000 OA
ATOM     30  C   UNL     1      51.455   3.231  17.714  0.00  0.00    +0.000 A 
ATOM     31  H   UNL     1      50.639   0.217  16.685  0.00  0.00    +0.000 HD
ENDBRANCH  18  21
ENDBRANCH   1  17
TORSDOF 6
ENDMDL
MODEL 9
REMARK VINA RESULT:    -6.312      3.583      8.916
REMARK INTER + INTRA:          -9.717
REMARK INTER:                  -8.313
REMARK INTRA:                  -1.404
REMARK UNBOUND:                -1.191
REMARK  Name = 
REMARK  7 active torsions:
REMARK  status: ('A' for Active; 'I' for Inactive)
REMARK    1  A    between atoms: C_1  and  O_2
REMARK    2  A    between atoms: O_2  and  C_3
REMARK    3  A    between atoms: C_8  and  C_9
REMARK    4  A    between atoms: C_9  and  C_10
REMARK    5  A    between atoms: C_13  and  C_14
REMARK    6  A    between atoms: C_14  and  N_15
REMARK    7  A    between atoms: C_16  and  C_18
REMARK                            x       y       z     vdW  Elec       q    Type
REMARK                         _______ _______ _______ _____ _____    ______ ____
ROOT
ATOM      1  C   UNL     1      47.371   3.216  17.095  0.00  0.00    +0.000 C 
ENDROOT
BRANCH   1   5
ATOM      2  C   UNL     1      51.397   4.128  18.393  0.00  0.00    +0.000 A 
ATOM      3  C   UNL     1      51.134   2.973  17.645  0.00  0.00    +0.000 A 
ATOM      4  C   UNL     1      49.827   2.650  17.268  0.00  0.00    +0.000 A 
ATOM      5  C   UNL     1      48.758   3.486  17.615  0.00  0.00    +0.000 A 
ATOM      6  C   UNL     1      49.010   4.596  18.431  0.00  0.00    +0.000 A 
ATOM      7  C   UNL     1      50.317   4.918  18.810  0.00  0.00    +0.000 A 
BRANCH   2   8
ATOM      8  C   UNL     1      52.822   4.516  18.718  0.00  0.00    +0.000 C 
BRANCH   8  14
ATOM      9  C   UNL     1      54.854   4.279  17.168  0.00  0.00    +0.000 A 
ATOM     10  C   UNL     1      55.608   4.749  16.083  0.00  0.00    +0.000 A 
ATOM     11  C   UNL     1      55.196   5.870  15.361  0.00  0.00    +0.000 A 
ATOM     12  C   UNL     1      54.015   6.519  15.699  0.00  0.00    +0.000 A 
ATOM     13  C   UNL     1      53.249   6.052  16.768  0.00  0.00    +0.000 A 
ATOM     14  C   UNL     1      53.659   4.938  17.524  0.00  0.00    +0.000 A 
BRANCH   9  16
ATOM     15  C   UNL     1      55.712   2.062  17.203  0.00  0.00    +0.000 C 
ATOM     16  O   UNL     1      55.202   3.184  17.918  0.00  0.00    +0.000 OA
ENDBRANCH   9  16
ENDBRANCH   8  14
ENDBRANCH   2   8
ENDBRANCH   1   5
BRANCH   1  17
ATOM     17  N   UNL     1      46.924   4.228  16.177  0.00  0.00    +0.000 N 
ATOM     18  C   UNL     1      46.995   4.015  14.822  0.00  0.00    +0.000 C 
ATOM     19  O   UNL     1      47.378   2.947  14.351  0.00  0.00    +0.000 OA
ATOM     20  H   UNL     1      46.828   5.173  16.535  0.00  0.00    +0.000 HD
BRANCH  18  21
ATOM     21  C   UNL     1      46.530   5.104  13.957  0.00  0.00    +0.000 A 
ATOM     22  C   UNL     1      45.307   4.989  13.311  0.00  0.00    +0.000 A 
ATOM     23  S   UNL     1      44.889   6.360  12.387  0.00  0.00    +0.000 S 
ATOM     24  C   UNL     1      46.355   7.132  12.773  0.00  0.00    +0.000 A 
ATOM     25  N   UNL     1      46.645   8.361  12.269  0.00  0.00    +0.000 NA
ATOM     26  C   UNL     1      47.804   8.817  12.619  0.00  0.00    +0.000 A 
ATOM     27  N   UNL     1      48.694   8.155  13.426  0.00  0.00    +0.000 N 
ATOM     28  C   UNL     1      48.432   6.923  13.976  0.00  0.00    +0.000 A 
ATOM     29  O   UNL     1      49.235   6.376  14.723  0.00  0.00    +0.000 OA
ATOM     30  C   UNL     1      47.145   6.363  13.609  0.00  0.00    +0.000 A 
ATOM     31  H   UNL     1      49.581   8.570  13.663  0.00  0.00    +0.000 HD
ENDBRANCH  18  21
ENDBRANCH   1  17
TORSDOF 6
ENDMDL
