MODEL 1
REMARK VINA RESULT:    -8.619      0.000      0.000
REMARK INTER + INTRA:         -13.573
REMARK INTER:                 -12.398
REMARK INTRA:                  -1.175
REMARK UNBOUND:                -1.175
REMARK  Name = 
REMARK  9 active torsions:
REMARK  status: ('A' for Active; 'I' for Inactive)
REMARK    1  A    between atoms: C_1  and  C_2
REMARK    2  A    between atoms: C_2  and  N_3
REMARK    3  A    between atoms: C_9  and  C_10
REMARK    4  A    between atoms: N_12  and  C_13
REMARK    5  A    between atoms: C_13  and  C_14
REMARK    6  A    between atoms: C_17  and  C_18
REMARK    7  A    between atoms: C_18  and  C_19
REMARK    8  A    between atoms: C_22  and  C_23
REMARK    9  A    between atoms: C_23  and  O_25
REMARK                            x       y       z     vdW  Elec       q    Type
REMARK                         _______ _______ _______ _____ _____    ______ ____
ROOT
ATOM      1  C   UNL     1      47.347   8.390  13.340  0.00  0.00    +0.000 C 
ENDROOT
BRANCH   1   2
ATOM      2  C   UNL     1      46.434   7.444  12.634  0.00  0.00    +0.000 A 
ATOM      3  C   UNL     1      45.292   7.855  11.978  0.00  0.00    +0.000 A 
ATOM      4  N   UNL     1      44.482   7.028  11.284  0.00  0.00    +0.000 NA
ATOM      5  C   UNL     1      44.832   5.725  11.264  0.00  0.00    +0.000 A 
ATOM      6  N   UNL     1      45.900   5.213  11.909  0.00  0.00    +0.000 NA
ATOM      7  C   UNL     1      46.671   6.087  12.587  0.00  0.00    +0.000 A 
BRANCH   5   8
ATOM      8  C   UNL     1      44.008   4.787  10.415  0.00  0.00    +0.000 C 
BRANCH   8   9
ATOM      9  C   UNL     1      44.847   3.967   9.455  0.00  0.00    +0.000 A 
ATOM     10  C   UNL     1      44.864   2.567   9.543  0.00  0.00    +0.000 A 
ATOM     11  C   UNL     1      45.667   1.808   8.686  0.00  0.00    +0.000 A 
ATOM     12  C   UNL     1      46.483   2.447   7.744  0.00  0.00    +0.000 A 
ATOM     13  C   UNL     1      46.458   3.843   7.642  0.00  0.00    +0.000 A 
ATOM     14  C   UNL     1      45.650   4.598   8.495  0.00  0.00    +0.000 A 
BRANCH  12  15
ATOM     15  C   UNL     1      47.363   1.698   6.809  0.00  0.00    +0.000 C 
ATOM     16  O   UNL     1      47.160   0.537   6.496  0.00  0.00    +0.000 OA
BRANCH  15  17
ATOM     17  O   UNL     1      48.381   2.425   6.302  0.00  0.00    +0.000 OA
ATOM     18  H   UNL     1      48.981   2.815   6.963  0.00  0.00    +0.000 HD
ENDBRANCH  15  17
ENDBRANCH  12  15
ENDBRANCH   8   9
ENDBRANCH   5   8
ENDBRANCH   1   2
BRANCH   1  21
ATOM     19  C   UNL     1      48.636   8.350  15.448  0.00  0.00    +0.000 C 
ATOM     20  O   UNL     1      49.565   8.992  14.965  0.00  0.00    +0.000 OA
ATOM     21  N   UNL     1      47.505   8.055  14.731  0.00  0.00    +0.000 N 
ATOM     22  H   UNL     1      46.839   7.397  15.121  0.00  0.00    +0.000 HD
BRANCH  19  29
ATOM     23  N   UNL     1      48.611   4.165  17.583  0.00  0.00    +0.000 N 
ATOM     24  C   UNL     1      48.668   4.321  18.954  0.00  0.00    +0.000 A 
ATOM     25  N   UNL     1      48.707   5.452  19.580  0.00  0.00    +0.000 NA
ATOM     26  C   UNL     1      48.692   6.543  18.774  0.00  0.00    +0.000 A 
ATOM     27  S   UNL     1      48.754   8.114  19.427  0.00  0.00    +0.000 S 
ATOM     28  C   UNL     1      48.737   8.820  17.874  0.00  0.00    +0.000 A 
ATOM     29  C   UNL     1      48.657   7.894  16.845  0.00  0.00    +0.000 A 
ATOM     30  C   UNL     1      48.623   6.556  17.394  0.00  0.00    +0.000 A 
ATOM     31  C   UNL     1      48.539   5.264  16.733  0.00  0.00    +0.000 A 
ATOM     32  O   UNL     1      48.360   5.160  15.522  0.00  0.00    +0.000 OA
BRANCH  23  34
ATOM     33  C   UNL     1      49.802   2.105  16.962  0.00  0.00    +0.000 C 
ATOM     34  C   UNL     1      48.465   2.835  17.007  0.00  0.00    +0.000 C 
ENDBRANCH  23  34
ENDBRANCH  19  29
ENDBRANCH   1  21
TORSDOF 8
ENDMDL
MODEL 2
REMARK VINA RESULT:    -7.860      2.089      4.291
REMARK INTER + INTRA:         -12.480
REMARK INTER:                 -11.337
REMARK INTRA:                  -1.143
REMARK UNBOUND:                -1.175
REMARK  Name = 
REMARK  9 active torsions:
REMARK  status: ('A' for Active; 'I' for Inactive)
REMARK    1  A    between atoms: C_1  and  C_2
REMARK    2  A    between atoms: C_2  and  N_3
REMARK    3  A    between atoms: C_9  and  C_10
REMARK    4  A    between atoms: N_12  and  C_13
REMARK    5  A    between atoms: C_13  and  C_14
REMARK    6  A    between atoms: C_17  and  C_18
REMARK    7  A    between atoms: C_18  and  C_19
REMARK    8  A    between atoms: C_22  and  C_23
REMARK    9  A    between atoms: C_23  and  O_25
REMARK                            x       y       z     vdW  Elec       q    Type
REMARK                         _______ _______ _______ _____ _____    ______ ____
ROOT
ATOM      1  C   UNL     1      47.491   4.797  15.097  0.00  0.00    +0.000 C 
ENDROOT
BRANCH   1   2
ATOM      2  C   UNL     1      46.558   4.551  13.958  0.00  0.00    +0.000 A 
ATOM      3  C   UNL     1      45.970   5.571  13.239  0.00  0.00    +0.000 A 
ATOM      4  N   UNL     1      45.170   5.376  12.170  0.00  0.00    +0.000 NA
ATOM      5  C   UNL     1      44.942   4.093  11.820  0.00  0.00    +0.000 A 
ATOM      6  N   UNL     1      45.428   3.023  12.482  0.00  0.00    +0.000 NA
ATOM      7  C   UNL     1      46.220   3.281  13.543  0.00  0.00    +0.000 A 
BRANCH   5   8
ATOM      8  C   UNL     1      44.134   3.836  10.570  0.00  0.00    +0.000 C 
BRANCH   8   9
ATOM      9  C   UNL     1      44.991   3.438   9.385  0.00  0.00    +0.000 A 
ATOM     10  C   UNL     1      45.243   2.085   9.113  0.00  0.00    +0.000 A 
ATOM     11  C   UNL     1      46.066   1.713   8.044  0.00  0.00    +0.000 A 
ATOM     12  C   UNL     1      46.665   2.697   7.248  0.00  0.00    +0.000 A 
ATOM     13  C   UNL     1      46.403   4.049   7.505  0.00  0.00    +0.000 A 
ATOM     14  C   UNL     1      45.576   4.417   8.569  0.00  0.00    +0.000 A 
BRANCH  12  15
ATOM     15  C   UNL     1      47.552   2.367   6.102  0.00  0.00    +0.000 C 
ATOM     16  O   UNL     1      48.256   1.373   6.075  0.00  0.00    +0.000 OA
BRANCH  15  17
ATOM     17  O   UNL     1      47.480   3.240   5.075  0.00  0.00    +0.000 OA
ATOM     18  H   UNL     1      47.569   4.179   5.321  0.00  0.00    +0.000 HD
ENDBRANCH  15  17
ENDBRANCH  12  15
ENDBRANCH   8   9
ENDBRANCH   5   8
ENDBRANCH   1   2
BRANCH   1  21
ATOM     19  C   UNL     1      48.976   6.621  15.853  0.00  0.00    +0.000 C 
ATOM     20  O   UNL     1      49.821   5.840  16.283  0.00  0.00    +0.000 OA
ATOM     21  N   UNL     1      47.836   6.188  15.226  0.00  0.00    +0.000 N 
ATOM     22  H   UNL     1      47.103   6.860  15.029  0.00  0.00    +0.000 HD
BRANCH  19  29
ATOM     23  N   UNL     1      49.068  10.160  12.764  0.00  0.00    +0.000 N 
ATOM     24  C   UNL     1      49.248  11.365  13.414  0.00  0.00    +0.000 A 
ATOM     25  N   UNL     1      49.389  11.516  14.691  0.00  0.00    +0.000 NA
ATOM     26  C   UNL     1      49.345  10.362  15.403  0.00  0.00    +0.000 A 
ATOM     27  S   UNL     1      49.498  10.373  17.098  0.00  0.00    +0.000 S 
ATOM     28  C   UNL     1      49.307   8.681  17.183  0.00  0.00    +0.000 A 
ATOM     29  C   UNL     1      49.154   8.077  15.943  0.00  0.00    +0.000 A 
ATOM     30  C   UNL     1      49.188   9.083  14.904  0.00  0.00    +0.000 A 
ATOM     31  C   UNL     1      49.074   8.956  13.460  0.00  0.00    +0.000 A 
ATOM     32  O   UNL     1      49.044   7.862  12.901  0.00  0.00    +0.000 OA
BRANCH  23  34
ATOM     33  C   UNL     1      48.740  11.495  10.725  0.00  0.00    +0.000 C 
ATOM     34  C   UNL     1      49.027  10.117  11.309  0.00  0.00    +0.000 C 
ENDBRANCH  23  34
ENDBRANCH  19  29
ENDBRANCH   1  21
TORSDOF 8
ENDMDL
MODEL 3
REMARK VINA RESULT:    -7.562      3.279      8.891
REMARK INTER + INTRA:         -12.052
REMARK INTER:                 -11.135
REMARK INTRA:                  -0.917
REMARK UNBOUND:                -1.175
REMARK  Name = 
REMARK  9 active torsions:
REMARK  status: ('A' for Active; 'I' for Inactive)
REMARK    1  A    between atoms: C_1  and  C_2
REMARK    2  A    between atoms: C_2  and  N_3
REMARK    3  A    between atoms: C_9  and  C_10
REMARK    4  A    between atoms: N_12  and  C_13
REMARK    5  A    between atoms: C_13  and  C_14
REMARK    6  A    between atoms: C_17  and  C_18
REMARK    7  A    between atoms: C_18  and  C_19
REMARK    8  A    between atoms: C_22  and  C_23
REMARK    9  A    between atoms: C_23  and  O_25
REMARK                            x       y       z     vdW  Elec       q    Type
REMARK                         _______ _______ _______ _____ _____    ______ ____
ROOT
ATOM      1  C   UNL     1      47.325   7.798  11.857  0.00  0.00    +0.000 C 
ENDROOT
BRANCH   1   2
ATOM      2  C   UNL     1      48.006   7.737  13.183  0.00  0.00    +0.000 A 
ATOM      3  C   UNL     1      47.775   8.655  14.186  0.00  0.00    +0.000 A 
ATOM      4  N   UNL     1      48.333   8.589  15.413  0.00  0.00    +0.000 NA
ATOM      5  C   UNL     1      49.176   7.559  15.631  0.00  0.00    +0.000 A 
ATOM      6  N   UNL     1      49.507   6.635  14.706  0.00  0.00    +0.000 NA
ATOM      7  C   UNL     1      48.918   6.754  13.499  0.00  0.00    +0.000 A 
BRANCH   5   8
ATOM      8  C   UNL     1      49.743   7.394  17.022  0.00  0.00    +0.000 C 
BRANCH   8   9
ATOM      9  C   UNL     1      50.306   6.009  17.270  0.00  0.00    +0.000 A 
ATOM     10  C   UNL     1      51.692   5.790  17.241  0.00  0.00    +0.000 A 
ATOM     11  C   UNL     1      52.215   4.506  17.429  0.00  0.00    +0.000 A 
ATOM     12  C   UNL     1      51.351   3.422  17.627  0.00  0.00    +0.000 A 
ATOM     13  C   UNL     1      49.968   3.638  17.673  0.00  0.00    +0.000 A 
ATOM     14  C   UNL     1      49.449   4.922  17.490  0.00  0.00    +0.000 A 
BRANCH  12  15
ATOM     15  C   UNL     1      51.844   2.034  17.828  0.00  0.00    +0.000 C 
ATOM     16  O   UNL     1      51.437   1.086  17.178  0.00  0.00    +0.000 OA
BRANCH  15  17
ATOM     17  O   UNL     1      52.813   1.918  18.761  0.00  0.00    +0.000 OA
ATOM     18  H   UNL     1      53.056   2.747  19.211  0.00  0.00    +0.000 HD
ENDBRANCH  15  17
ENDBRANCH  12  15
ENDBRANCH   8   9
ENDBRANCH   5   8
ENDBRANCH   1   2
BRANCH   1  21
ATOM     19  C   UNL     1      45.276   6.445  11.575  0.00  0.00    +0.000 C 
ATOM     20  O   UNL     1      44.539   7.400  11.805  0.00  0.00    +0.000 OA
ATOM     21  N   UNL     1      46.642   6.572  11.541  0.00  0.00    +0.000 N 
ATOM     22  H   UNL     1      47.208   5.731  11.500  0.00  0.00    +0.000 HD
BRANCH  19  29
ATOM     23  N   UNL     1      45.802   3.358   8.072  0.00  0.00    +0.000 N 
ATOM     24  C   UNL     1      45.063   2.218   8.317  0.00  0.00    +0.000 A 
ATOM     25  N   UNL     1      44.314   2.016   9.352  0.00  0.00    +0.000 NA
ATOM     26  C   UNL     1      44.291   3.042  10.240  0.00  0.00    +0.000 A 
ATOM     27  S   UNL     1      43.370   2.944  11.667  0.00  0.00    +0.000 S 
ATOM     28  C   UNL     1      43.891   4.486  12.177  0.00  0.00    +0.000 A 
ATOM     29  C   UNL     1      44.741   5.110  11.274  0.00  0.00    +0.000 A 
ATOM     30  C   UNL     1      44.958   4.248  10.134  0.00  0.00    +0.000 A 
ATOM     31  C   UNL     1      45.757   4.448   8.936  0.00  0.00    +0.000 A 
ATOM     32  O   UNL     1      46.299   5.522   8.683  0.00  0.00    +0.000 OA
BRANCH  23  34
ATOM     33  C   UNL     1      47.576   2.411   6.657  0.00  0.00    +0.000 C 
ATOM     34  C   UNL     1      46.525   3.502   6.815  0.00  0.00    +0.000 C 
ENDBRANCH  23  34
ENDBRANCH  19  29
ENDBRANCH   1  21
TORSDOF 8
ENDMDL
MODEL 4
REMARK VINA RESULT:    -7.558      2.603      3.971
REMARK INTER + INTRA:         -12.046
REMARK INTER:                 -11.120
REMARK INTRA:                  -0.927
REMARK UNBOUND:                -1.175
REMARK  Name = 
REMARK  9 active torsions:
REMARK  status: ('A' for Active; 'I' for Inactive)
REMARK    1  A    between atoms: C_1  and  C_2
REMARK    2  A    between atoms: C_2  and  N_3
REMARK    3  A    between atoms: C_9  and  C_10
REMARK    4  A    between atoms: N_12  and  C_13
REMARK    5  A    between atoms: C_13  and  C_14
REMARK    6  A    between atoms: C_17  and  C_18
REMARK    7  A    between atoms: C_18  and  C_19
REMARK    8  A    between atoms: C_22  and  C_23
REMARK    9  A    between atoms: C_23  and  O_25
REMARK                            x       y       z     vdW  Elec       q    Type
REMARK                         _______ _______ _______ _____ _____    ______ ____
ROOT
ATOM      1  C   UNL     1      47.317   5.145  14.977  0.00  0.00    +0.000 C 
ENDROOT
BRANCH   1   2
ATOM      2  C   UNL     1      46.412   4.714  13.872  0.00  0.00    +0.000 A 
ATOM      3  C   UNL     1      45.554   5.580  13.226  0.00  0.00    +0.000 A 
ATOM      4  N   UNL     1      44.769   5.229  12.186  0.00  0.00    +0.000 NA
ATOM      5  C   UNL     1      44.841   3.941  11.790  0.00  0.00    +0.000 A 
ATOM      6  N   UNL     1      45.609   3.003  12.382  0.00  0.00    +0.000 NA
ATOM      7  C   UNL     1      46.371   3.414  13.416  0.00  0.00    +0.000 A 
BRANCH   5   8
ATOM      8  C   UNL     1      44.054   3.534  10.568  0.00  0.00    +0.000 C 
BRANCH   8   9
ATOM      9  C   UNL     1      44.935   3.220   9.375  0.00  0.00    +0.000 A 
ATOM     10  C   UNL     1      45.270   1.893   9.070  0.00  0.00    +0.000 A 
ATOM     11  C   UNL     1      46.115   1.600   7.994  0.00  0.00    +0.000 A 
ATOM     12  C   UNL     1      46.653   2.639   7.225  0.00  0.00    +0.000 A 
ATOM     13  C   UNL     1      46.308   3.965   7.516  0.00  0.00    +0.000 A 
ATOM     14  C   UNL     1      45.459   4.254   8.587  0.00  0.00    +0.000 A 
BRANCH  12  15
ATOM     15  C   UNL     1      47.561   2.394   6.073  0.00  0.00    +0.000 C 
ATOM     16  O   UNL     1      48.341   1.459   6.033  0.00  0.00    +0.000 OA
BRANCH  15  17
ATOM     17  O   UNL     1      47.416   3.270   5.056  0.00  0.00    +0.000 OA
ATOM     18  H   UNL     1      47.830   4.141   5.197  0.00  0.00    +0.000 HD
ENDBRANCH  15  17
ENDBRANCH  12  15
ENDBRANCH   8   9
ENDBRANCH   5   8
ENDBRANCH   1   2
BRANCH   1  21
ATOM     19  C   UNL     1      48.567   6.992  13.914  0.00  0.00    +0.000 C 
ATOM     20  O   UNL     1      49.032   6.261  13.045  0.00  0.00    +0.000 OA
ATOM     21  N   UNL     1      47.691   6.529  14.864  0.00  0.00    +0.000 N 
ATOM     22  H   UNL     1      47.457   7.131  15.645  0.00  0.00    +0.000 HD
BRANCH  19  29
ATOM     23  N   UNL     1      50.665   9.828  17.018  0.00  0.00    +0.000 N 
ATOM     24  C   UNL     1      50.717  11.120  16.534  0.00  0.00    +0.000 A 
ATOM     25  N   UNL     1      50.247  11.516  15.396  0.00  0.00    +0.000 NA
ATOM     26  C   UNL     1      49.667  10.538  14.655  0.00  0.00    +0.000 A 
ATOM     27  S   UNL     1      49.007  10.876  13.124  0.00  0.00    +0.000 S 
ATOM     28  C   UNL     1      48.568   9.244  12.891  0.00  0.00    +0.000 A 
ATOM     29  C   UNL     1      48.882   8.427  13.967  0.00  0.00    +0.000 A 
ATOM     30  C   UNL     1      49.522   9.209  15.002  0.00  0.00    +0.000 A 
ATOM     31  C   UNL     1      50.029   8.815  16.307  0.00  0.00    +0.000 A 
ATOM     32  O   UNL     1      49.853   7.688  16.764  0.00  0.00    +0.000 OA
BRANCH  23  34
ATOM     33  C   UNL     1      50.151  10.019  19.415  0.00  0.00    +0.000 C 
ATOM     34  C   UNL     1      51.140   9.534  18.363  0.00  0.00    +0.000 C 
ENDBRANCH  23  34
ENDBRANCH  19  29
ENDBRANCH   1  21
TORSDOF 8
ENDMDL
MODEL 5
REMARK VINA RESULT:    -7.435      4.759      7.715
REMARK INTER + INTRA:         -11.870
REMARK INTER:                 -10.785
REMARK INTRA:                  -1.085
REMARK UNBOUND:                -1.175
REMARK  Name = 
REMARK  9 active torsions:
REMARK  status: ('A' for Active; 'I' for Inactive)
REMARK    1  A    between atoms: C_1  and  C_2
REMARK    2  A    between atoms: C_2  and  N_3
REMARK    3  A    between atoms: C_9  and  C_10
REMARK    4  A    between atoms: N_12  and  C_13
REMARK    5  A    between atoms: C_13  and  C_14
REMARK    6  A    between atoms: C_17  and  C_18
REMARK    7  A    between atoms: C_18  and  C_19
REMARK    8  A    between atoms: C_22  and  C_23
REMARK    9  A    between atoms: C_23  and  O_25
REMARK                            x       y       z     vdW  Elec       q    Type
REMARK                         _______ _______ _______ _____ _____    ______ ____
ROOT
ATOM      1  C   UNL     1      46.985   8.305  12.368  0.00  0.00    +0.000 C 
ENDROOT
BRANCH   1   2
ATOM      2  C   UNL     1      48.425   8.361  11.979  0.00  0.00    +0.000 A 
ATOM      3  C   UNL     1      49.227   7.241  11.917  0.00  0.00    +0.000 A 
ATOM      4  N   UNL     1      50.515   7.256  11.513  0.00  0.00    +0.000 NA
ATOM      5  C   UNL     1      51.019   8.459  11.170  0.00  0.00    +0.000 A 
ATOM      6  N   UNL     1      50.336   9.621  11.239  0.00  0.00    +0.000 NA
ATOM      7  C   UNL     1      49.054   9.542  11.651  0.00  0.00    +0.000 A 
BRANCH   5   8
ATOM      8  C   UNL     1      52.424   8.503  10.618  0.00  0.00    +0.000 C 
BRANCH   8   9
ATOM      9  C   UNL     1      52.686   7.426   9.584  0.00  0.00    +0.000 A 
ATOM     10  C   UNL     1      53.466   6.305   9.908  0.00  0.00    +0.000 A 
ATOM     11  C   UNL     1      53.744   5.328   8.947  0.00  0.00    +0.000 A 
ATOM     12  C   UNL     1      53.262   5.475   7.640  0.00  0.00    +0.000 A 
ATOM     13  C   UNL     1      52.470   6.584   7.316  0.00  0.00    +0.000 A 
ATOM     14  C   UNL     1      52.188   7.555   8.280  0.00  0.00    +0.000 A 
BRANCH  12  15
ATOM     15  C   UNL     1      53.527   4.476   6.572  0.00  0.00    +0.000 C 
ATOM     16  O   UNL     1      54.047   4.766   5.509  0.00  0.00    +0.000 OA
BRANCH  15  17
ATOM     17  O   UNL     1      53.183   3.212   6.897  0.00  0.00    +0.000 OA
ATOM     18  H   UNL     1      52.235   3.003   6.805  0.00  0.00    +0.000 HD
ENDBRANCH  15  17
ENDBRANCH  12  15
ENDBRANCH   8   9
ENDBRANCH   5   8
ENDBRANCH   1   2
BRANCH   1  21
ATOM     19  C   UNL     1      45.149   6.840  11.601  0.00  0.00    +0.000 C 
ATOM     20  O   UNL     1      44.460   7.789  11.236  0.00  0.00    +0.000 OA
ATOM     21  N   UNL     1      46.406   7.011  12.122  0.00  0.00    +0.000 N 
ATOM     22  H   UNL     1      46.869   6.215  12.547  0.00  0.00    +0.000 HD
BRANCH  19  29
ATOM     23  N   UNL     1      45.731   3.449   8.400  0.00  0.00    +0.000 N 
ATOM     24  C   UNL     1      45.076   2.298   8.792  0.00  0.00    +0.000 A 
ATOM     25  N   UNL     1      44.383   2.159   9.875  0.00  0.00    +0.000 NA
ATOM     26  C   UNL     1      44.331   3.266  10.657  0.00  0.00    +0.000 A 
ATOM     27  S   UNL     1      43.475   3.259  12.127  0.00  0.00    +0.000 S 
ATOM     28  C   UNL     1      43.917   4.873  12.457  0.00  0.00    +0.000 A 
ATOM     29  C   UNL     1      44.688   5.452  11.459  0.00  0.00    +0.000 A 
ATOM     30  C   UNL     1      44.914   4.492  10.401  0.00  0.00    +0.000 A 
ATOM     31  C   UNL     1      45.650   4.617   9.153  0.00  0.00    +0.000 A 
ATOM     32  O   UNL     1      46.112   5.690   8.771  0.00  0.00    +0.000 OA
BRANCH  23  34
ATOM     33  C   UNL     1      47.236   2.263   6.861  0.00  0.00    +0.000 C 
ATOM     34  C   UNL     1      46.392   3.507   7.104  0.00  0.00    +0.000 C 
ENDBRANCH  23  34
ENDBRANCH  19  29
ENDBRANCH   1  21
TORSDOF 8
ENDMDL
MODEL 6
REMARK VINA RESULT:    -7.225      1.956      3.807
REMARK INTER + INTRA:         -11.567
REMARK INTER:                 -10.559
REMARK INTRA:                  -1.008
REMARK UNBOUND:                -1.175
REMARK  Name = 
REMARK  9 active torsions:
REMARK  status: ('A' for Active; 'I' for Inactive)
REMARK    1  A    between atoms: C_1  and  C_2
REMARK    2  A    between atoms: C_2  and  N_3
REMARK    3  A    between atoms: C_9  and  C_10
REMARK    4  A    between atoms: N_12  and  C_13
REMARK    5  A    between atoms: C_13  and  C_14
REMARK    6  A    between atoms: C_17  and  C_18
REMARK    7  A    between atoms: C_18  and  C_19
REMARK    8  A    between atoms: C_22  and  C_23
REMARK    9  A    between atoms: C_23  and  O_25
REMARK                            x       y       z     vdW  Elec       q    Type
REMARK                         _______ _______ _______ _____ _____    ______ ____
ROOT
ATOM      1  C   UNL     1      47.417   4.413  15.190  0.00  0.00    +0.000 C 
ENDROOT
BRANCH   1   2
ATOM      2  C   UNL     1      46.544   4.408  13.979  0.00  0.00    +0.000 A 
ATOM      3  C   UNL     1      46.038   5.562  13.416  0.00  0.00    +0.000 A 
ATOM      4  N   UNL     1      45.296   5.589  12.289  0.00  0.00    +0.000 NA
ATOM      5  C   UNL     1      45.041   4.396  11.713  0.00  0.00    +0.000 A 
ATOM      6  N   UNL     1      45.447   3.208  12.206  0.00  0.00    +0.000 NA
ATOM      7  C   UNL     1      46.184   3.245  13.335  0.00  0.00    +0.000 A 
BRANCH   5   8
ATOM      8  C   UNL     1      44.300   4.393  10.397  0.00  0.00    +0.000 C 
BRANCH   8   9
ATOM      9  C   UNL     1      45.132   3.853   9.251  0.00  0.00    +0.000 A 
ATOM     10  C   UNL     1      45.158   2.478   8.977  0.00  0.00    +0.000 A 
ATOM     11  C   UNL     1      45.955   1.971   7.946  0.00  0.00    +0.000 A 
ATOM     12  C   UNL     1      46.756   2.836   7.191  0.00  0.00    +0.000 A 
ATOM     13  C   UNL     1      46.722   4.213   7.451  0.00  0.00    +0.000 A 
ATOM     14  C   UNL     1      45.920   4.717   8.477  0.00  0.00    +0.000 A 
BRANCH  12  15
ATOM     15  C   UNL     1      47.629   2.360   6.087  0.00  0.00    +0.000 C 
ATOM     16  O   UNL     1      48.288   1.336   6.159  0.00  0.00    +0.000 OA
BRANCH  15  17
ATOM     17  O   UNL     1      47.597   3.132   4.981  0.00  0.00    +0.000 OA
ATOM     18  H   UNL     1      47.788   4.076   5.129  0.00  0.00    +0.000 HD
ENDBRANCH  15  17
ENDBRANCH  12  15
ENDBRANCH   8   9
ENDBRANCH   5   8
ENDBRANCH   1   2
BRANCH   1  21
ATOM     19  C   UNL     1      48.705   5.998  16.581  0.00  0.00    +0.000 C 
ATOM     20  O   UNL     1      49.250   5.098  17.214  0.00  0.00    +0.000 OA
ATOM     21  N   UNL     1      47.833   5.742  15.553  0.00  0.00    +0.000 N 
ATOM     22  H   UNL     1      47.296   6.510  15.167  0.00  0.00    +0.000 HD
BRANCH  19  29
ATOM     23  N   UNL     1      50.371   9.604  14.071  0.00  0.00    +0.000 N 
ATOM     24  C   UNL     1      50.411  10.750  14.839  0.00  0.00    +0.000 A 
ATOM     25  N   UNL     1      50.058  10.836  16.081  0.00  0.00    +0.000 NA
ATOM     26  C   UNL     1      49.617   9.672  16.622  0.00  0.00    +0.000 A 
ATOM     27  S   UNL     1      49.098   9.602  18.241  0.00  0.00    +0.000 S 
ATOM     28  C   UNL     1      48.710   7.947  18.104  0.00  0.00    +0.000 A 
ATOM     29  C   UNL     1      48.988   7.414  16.854  0.00  0.00    +0.000 A 
ATOM     30  C   UNL     1      49.531   8.444  15.996  0.00  0.00    +0.000 A 
ATOM     31  C   UNL     1      49.976   8.385  14.612  0.00  0.00    +0.000 A 
ATOM     32  O   UNL     1      50.051   7.325  13.994  0.00  0.00    +0.000 OA
BRANCH  23  34
ATOM     33  C   UNL     1      49.876  10.191  11.735  0.00  0.00    +0.000 C 
ATOM     34  C   UNL     1      50.896   9.619  12.712  0.00  0.00    +0.000 C 
ENDBRANCH  23  34
ENDBRANCH  19  29
ENDBRANCH   1  21
TORSDOF 8
ENDMDL
MODEL 7
REMARK VINA RESULT:    -6.396      4.022      9.280
REMARK INTER + INTRA:         -10.375
REMARK INTER:                 -10.371
REMARK INTRA:                  -0.004
REMARK UNBOUND:                -1.175
REMARK  Name = 
REMARK  9 active torsions:
REMARK  status: ('A' for Active; 'I' for Inactive)
REMARK    1  A    between atoms: C_1  and  C_2
REMARK    2  A    between atoms: C_2  and  N_3
REMARK    3  A    between atoms: C_9  and  C_10
REMARK    4  A    between atoms: N_12  and  C_13
REMARK    5  A    between atoms: C_13  and  C_14
REMARK    6  A    between atoms: C_17  and  C_18
REMARK    7  A    between atoms: C_18  and  C_19
REMARK    8  A    between atoms: C_22  and  C_23
REMARK    9  A    between atoms: C_23  and  O_25
REMARK                            x       y       z     vdW  Elec       q    Type
REMARK                         _______ _______ _______ _____ _____    ______ ____
ROOT
ATOM      1  C   UNL     1      47.304   4.045  17.452  0.00  0.00    +0.000 C 
ENDROOT
BRANCH   1   2
ATOM      2  C   UNL     1      48.749   3.996  17.824  0.00  0.00    +0.000 A 
ATOM      3  C   UNL     1      49.573   2.942  17.489  0.00  0.00    +0.000 A 
ATOM      4  N   UNL     1      50.894   2.900  17.762  0.00  0.00    +0.000 NA
ATOM      5  C   UNL     1      51.403   3.964  18.417  0.00  0.00    +0.000 A 
ATOM      6  N   UNL     1      50.678   5.024  18.831  0.00  0.00    +0.000 NA
ATOM      7  C   UNL     1      49.363   5.008  18.530  0.00  0.00    +0.000 A 
BRANCH   5   8
ATOM      8  C   UNL     1      52.894   4.000  18.651  0.00  0.00    +0.000 C 
BRANCH   8   9
ATOM      9  C   UNL     1      53.612   2.794  18.079  0.00  0.00    +0.000 A 
ATOM     10  C   UNL     1      54.650   2.958  17.150  0.00  0.00    +0.000 A 
ATOM     11  C   UNL     1      55.288   1.847  16.590  0.00  0.00    +0.000 A 
ATOM     12  C   UNL     1      54.876   0.555  16.938  0.00  0.00    +0.000 A 
ATOM     13  C   UNL     1      53.852   0.386  17.878  0.00  0.00    +0.000 A 
ATOM     14  C   UNL     1      53.220   1.497  18.440  0.00  0.00    +0.000 A 
BRANCH  12  15
ATOM     15  C   UNL     1      55.510  -0.666  16.374  0.00  0.00    +0.000 C 
ATOM     16  O   UNL     1      55.775  -1.646  17.049  0.00  0.00    +0.000 OA
BRANCH  15  17
ATOM     17  O   UNL     1      55.728  -0.614  15.043  0.00  0.00    +0.000 OA
ATOM     18  H   UNL     1      56.064   0.239  14.711  0.00  0.00    +0.000 HD
ENDBRANCH  15  17
ENDBRANCH  12  15
ENDBRANCH   8   9
ENDBRANCH   5   8
ENDBRANCH   1   2
BRANCH   1  21
ATOM     19  C   UNL     1      47.239   4.239  14.990  0.00  0.00    +0.000 C 
ATOM     20  O   UNL     1      47.510   3.052  14.826  0.00  0.00    +0.000 OA
ATOM     21  N   UNL     1      47.081   4.785  16.239  0.00  0.00    +0.000 N 
ATOM     22  H   UNL     1      47.011   5.792  16.325  0.00  0.00    +0.000 HD
BRANCH  19  29
ATOM     23  N   UNL     1      44.723   4.059  11.025  0.00  0.00    +0.000 N 
ATOM     24  C   UNL     1      44.867   5.231  10.309  0.00  0.00    +0.000 A 
ATOM     25  N   UNL     1      45.598   6.240  10.656  0.00  0.00    +0.000 NA
ATOM     26  C   UNL     1      46.255   6.081  11.832  0.00  0.00    +0.000 A 
ATOM     27  S   UNL     1      47.252   7.314  12.451  0.00  0.00    +0.000 S 
ATOM     28  C   UNL     1      47.616   6.398  13.843  0.00  0.00    +0.000 A 
ATOM     29  C   UNL     1      47.021   5.145  13.854  0.00  0.00    +0.000 A 
ATOM     30  C   UNL     1      46.229   4.972  12.656  0.00  0.00    +0.000 A 
ATOM     31  C   UNL     1      45.426   3.845  12.207  0.00  0.00    +0.000 A 
ATOM     32  O   UNL     1      45.420   2.769  12.801  0.00  0.00    +0.000 OA
BRANCH  23  34
ATOM     33  C   UNL     1      44.609   2.397   9.218  0.00  0.00    +0.000 C 
ATOM     34  C   UNL     1      43.950   2.957  10.472  0.00  0.00    +0.000 C 
ENDBRANCH  23  34
ENDBRANCH  19  29
ENDBRANCH   1  21
TORSDOF 8
ENDMDL
MODEL 8
REMARK VINA RESULT:    -6.248      4.077      8.739
REMARK INTER + INTRA:         -10.162
REMARK INTER:                  -8.532
REMARK INTRA:                  -1.631
REMARK UNBOUND:                -1.175
REMARK  Name = 
REMARK  9 active torsions:
REMARK  status: ('A' for Active; 'I' for Inactive)
REMARK    1  A    between atoms: C_1  and  C_2
REMARK    2  A    between atoms: C_2  and  N_3
REMARK    3  A    between atoms: C_9  and  C_10
REMARK    4  A    between atoms: N_12  and  C_13
REMARK    5  A    between atoms: C_13  and  C_14
REMARK    6  A    between atoms: C_17  and  C_18
REMARK    7  A    between atoms: C_18  and  C_19
REMARK    8  A    between atoms: C_22  and  C_23
REMARK    9  A    between atoms: C_23  and  O_25
REMARK                            x       y       z     vdW  Elec       q    Type
REMARK                         _______ _______ _______ _____ _____    ______ ____
ROOT
ATOM      1  C   UNL     1      47.274   3.295  17.173  0.00  0.00    +0.000 C 
ENDROOT
BRANCH   1   2
ATOM      2  C   UNL     1      48.695   3.516  17.572  0.00  0.00    +0.000 A 
ATOM      3  C   UNL     1      49.739   2.769  17.067  0.00  0.00    +0.000 A 
ATOM      4  N   UNL     1      51.037   2.987  17.367  0.00  0.00    +0.000 NA
ATOM      5  C   UNL     1      51.291   3.994  18.227  0.00  0.00    +0.000 A 
ATOM      6  N   UNL     1      50.343   4.754  18.814  0.00  0.00    +0.000 NA
ATOM      7  C   UNL     1      49.064   4.488  18.476  0.00  0.00    +0.000 A 
BRANCH   5   8
ATOM      8  C   UNL     1      52.735   4.334  18.508  0.00  0.00    +0.000 C 
BRANCH   8   9
ATOM      9  C   UNL     1      53.383   5.131  17.394  0.00  0.00    +0.000 A 
ATOM     10  C   UNL     1      52.679   6.163  16.756  0.00  0.00    +0.000 A 
ATOM     11  C   UNL     1      53.259   6.875  15.701  0.00  0.00    +0.000 A 
ATOM     12  C   UNL     1      54.544   6.544  15.256  0.00  0.00    +0.000 A 
ATOM     13  C   UNL     1      55.257   5.524  15.900  0.00  0.00    +0.000 A 
ATOM     14  C   UNL     1      54.679   4.819  16.958  0.00  0.00    +0.000 A 
BRANCH  12  15
ATOM     15  C   UNL     1      55.212   7.258  14.137  0.00  0.00    +0.000 C 
ATOM     16  O   UNL     1      55.336   6.776  13.024  0.00  0.00    +0.000 OA
BRANCH  15  17
ATOM     17  O   UNL     1      55.631   8.504  14.445  0.00  0.00    +0.000 OA
ATOM     18  H   UNL     1      56.456   8.783  14.007  0.00  0.00    +0.000 HD
ENDBRANCH  15  17
ENDBRANCH  12  15
ENDBRANCH   8   9
ENDBRANCH   5   8
ENDBRANCH   1   2
BRANCH   1  21
ATOM     19  C   UNL     1      46.978   4.009  14.827  0.00  0.00    +0.000 C 
ATOM     20  O   UNL     1      47.418   2.952  14.383  0.00  0.00    +0.000 OA
ATOM     21  N   UNL     1      46.839   4.233  16.173  0.00  0.00    +0.000 N 
ATOM     22  H   UNL     1      46.618   5.170  16.490  0.00  0.00    +0.000 HD
BRANCH  19  29
ATOM     23  N   UNL     1      48.807   8.075  13.342  0.00  0.00    +0.000 N 
ATOM     24  C   UNL     1      47.940   8.706  12.472  0.00  0.00    +0.000 A 
ATOM     25  N   UNL     1      46.777   8.263  12.116  0.00  0.00    +0.000 NA
ATOM     26  C   UNL     1      46.433   7.074  12.672  0.00  0.00    +0.000 A 
ATOM     27  S   UNL     1      44.945   6.335  12.306  0.00  0.00    +0.000 S 
ATOM     28  C   UNL     1      45.303   4.994  13.296  0.00  0.00    +0.000 A 
ATOM     29  C   UNL     1      46.529   5.091  13.939  0.00  0.00    +0.000 A 
ATOM     30  C   UNL     1      47.177   6.328  13.566  0.00  0.00    +0.000 A 
ATOM     31  C   UNL     1      48.460   6.883  13.969  0.00  0.00    +0.000 A 
ATOM     32  O   UNL     1      49.151   6.363  14.842  0.00  0.00    +0.000 OA
BRANCH  23  34
ATOM     33  C   UNL     1      51.178   8.401  12.779  0.00  0.00    +0.000 C 
ATOM     34  C   UNL     1      50.044   8.732  13.741  0.00  0.00    +0.000 C 
ENDBRANCH  23  34
ENDBRANCH  19  29
ENDBRANCH   1  21
TORSDOF 8
ENDMDL
MODEL 9
REMARK VINA RESULT:    -6.137      3.782      9.159
REMARK INTER + INTRA:         -10.002
REMARK INTER:                  -9.486
REMARK INTRA:                  -0.516
REMARK UNBOUND:                -1.175
REMARK  Name = 
REMARK  9 active torsions:
REMARK  status: ('A' for Active; 'I' for Inactive)
REMARK    1  A    between atoms: C_1  and  C_2
REMARK    2  A    between atoms: C_2  and  N_3
REMARK    3  A    between atoms: C_9  and  C_10
REMARK    4  A    between atoms: N_12  and  C_13
REMARK    5  A    between atoms: C_13  and  C_14
REMARK    6  A    between atoms: C_17  and  C_18
REMARK    7  A    between atoms: C_18  and  C_19
REMARK    8  A    between atoms: C_22  and  C_23
REMARK    9  A    between atoms: C_23  and  O_25
REMARK                            x       y       z     vdW  Elec       q    Type
REMARK                         _______ _______ _______ _____ _____    ______ ____
ROOT
ATOM      1  C   UNL     1      47.269   3.439  17.248  0.00  0.00    +0.000 C 
ENDROOT
BRANCH   1   2
ATOM      2  C   UNL     1      48.703   3.497  17.660  0.00  0.00    +0.000 A 
ATOM      3  C   UNL     1      49.659   2.633  17.169  0.00  0.00    +0.000 A 
ATOM      4  N   UNL     1      50.970   2.701  17.481  0.00  0.00    +0.000 NA
ATOM      5  C   UNL     1      51.330   3.677  18.339  0.00  0.00    +0.000 A 
ATOM      6  N   UNL     1      50.470   4.544  18.913  0.00  0.00    +0.000 NA
ATOM      7  C   UNL     1      49.173   4.425  18.564  0.00  0.00    +0.000 A 
BRANCH   5   8
ATOM      8  C   UNL     1      52.801   3.850  18.634  0.00  0.00    +0.000 C 
BRANCH   8   9
ATOM      9  C   UNL     1      53.499   4.763  17.646  0.00  0.00    +0.000 A 
ATOM     10  C   UNL     1      52.782   5.765  16.976  0.00  0.00    +0.000 A 
ATOM     11  C   UNL     1      53.413   6.584  16.033  0.00  0.00    +0.000 A 
ATOM     12  C   UNL     1      54.767   6.392  15.735  0.00  0.00    +0.000 A 
ATOM     13  C   UNL     1      55.491   5.403  16.413  0.00  0.00    +0.000 A 
ATOM     14  C   UNL     1      54.860   4.590  17.358  0.00  0.00    +0.000 A 
BRANCH  12  15
ATOM     15  C   UNL     1      55.493   7.224  14.740  0.00  0.00    +0.000 C 
ATOM     16  O   UNL     1      55.775   6.826  13.623  0.00  0.00    +0.000 OA
BRANCH  15  17
ATOM     17  O   UNL     1      55.775   8.475  15.163  0.00  0.00    +0.000 OA
ATOM     18  H   UNL     1      56.698   8.758  15.033  0.00  0.00    +0.000 HD
ENDBRANCH  15  17
ENDBRANCH  12  15
ENDBRANCH   8   9
ENDBRANCH   5   8
ENDBRANCH   1   2
BRANCH   1  21
ATOM     19  C   UNL     1      47.224   4.041  14.852  0.00  0.00    +0.000 C 
ATOM     20  O   UNL     1      47.641   2.939  14.503  0.00  0.00    +0.000 OA
ATOM     21  N   UNL     1      46.978   4.343  16.167  0.00  0.00    +0.000 N 
ATOM     22  H   UNL     1      46.784   5.306  16.418  0.00  0.00    +0.000 HD
BRANCH  19  29
ATOM     23  N   UNL     1      44.486   4.356  11.047  0.00  0.00    +0.000 N 
ATOM     24  C   UNL     1      44.557   5.624  10.504  0.00  0.00    +0.000 A 
ATOM     25  N   UNL     1      45.281   6.596  10.956  0.00  0.00    +0.000 NA
ATOM     26  C   UNL     1      46.010   6.290  12.059  0.00  0.00    +0.000 A 
ATOM     27  S   UNL     1      47.009   7.452  12.798  0.00  0.00    +0.000 S 
ATOM     28  C   UNL     1      47.478   6.356  14.017  0.00  0.00    +0.000 A 
ATOM     29  C   UNL     1      46.916   5.095  13.875  0.00  0.00    +0.000 A 
ATOM     30  C   UNL     1      46.060   5.072  12.710  0.00  0.00    +0.000 A 
ATOM     31  C   UNL     1      45.262   3.996  12.144  0.00  0.00    +0.000 A 
ATOM     32  O   UNL     1      45.318   2.845  12.572  0.00  0.00    +0.000 OA
BRANCH  23  34
ATOM     33  C   UNL     1      44.586   2.487   9.453  0.00  0.00    +0.000 C 
ATOM     34  C   UNL     1      43.710   3.321  10.379  0.00  0.00    +0.000 C 
ENDBRANCH  23  34
ENDBRANCH  19  29
ENDBRANCH   1  21
TORSDOF 8
ENDMDL
