MODEL 1
REMARK VINA RESULT:    -8.715      0.000      0.000
REMARK INTER + INTRA:         -12.850
REMARK INTER:                 -11.771
REMARK INTRA:                  -1.079
REMARK UNBOUND:                -1.079
REMARK  Name = 
REMARK  6 active torsions:
REMARK  status: ('A' for Active; 'I' for Inactive)
REMARK    1  A    between atoms: C_2  and  C_3
REMARK    2  A    between atoms: N_7  and  C_8
REMARK    3  A    between atoms: C_8  and  C_9
REMARK    4  A    between atoms: C_9  and  C_12
REMARK    5  A    between atoms: C_16  and  O_17
REMARK    6  A    between atoms: O_17  and  C_18
REMARK                            x       y       z     vdW  Elec       q    Type
REMARK                         _______ _______ _______ _____ _____    ______ ____
ROOT
ATOM      1  C   UNL     1      43.705   4.661  12.393  0.00  0.00    +0.000 C 
ATOM      2  F   UNL     1      42.762   5.521  12.879  0.00  0.00    +0.000 F 
ATOM      3  F   UNL     1      43.529   3.500  13.094  0.00  0.00    +0.000 F 
ENDROOT
BRANCH   1   4
ATOM      4  C   UNL     1      45.113   5.208  12.536  0.00  0.00    +0.000 A 
ATOM      5  C   UNL     1      45.608   6.153  11.626  0.00  0.00    +0.000 A 
ATOM      6  C   UNL     1      46.875   6.710  11.806  0.00  0.00    +0.000 A 
ATOM      7  C   UNL     1      47.667   6.333  12.894  0.00  0.00    +0.000 A 
ATOM      8  C   UNL     1      47.192   5.388  13.799  0.00  0.00    +0.000 A 
ATOM      9  C   UNL     1      45.921   4.832  13.622  0.00  0.00    +0.000 A 
BRANCH   8  10
ATOM     10  O   UNL     1      47.854   4.968  14.924  0.00  0.00    +0.000 OA
BRANCH  10  11
ATOM     11  C   UNL     1      47.215   4.037  15.823  0.00  0.00    +0.000 C 
ATOM     12  C   UNL     1      47.182   4.412  17.327  0.00  0.00    +0.000 C 
ATOM     13  C   UNL     1      47.576   2.962  17.657  0.00  0.00    +0.000 C 
ATOM     14  C   UNL     1      48.117   2.838  16.224  0.00  0.00    +0.000 C 
ENDBRANCH  10  11
ENDBRANCH   8  10
ENDBRANCH   1   4
BRANCH   1  15
ATOM     15  C   UNL     1      43.410   4.389  10.898  0.00  0.00    +0.000 C 
BRANCH  15  20
ATOM     16  C   UNL     1      46.629   2.431   7.403  0.00  0.00    +0.000 A 
ATOM     17  C   UNL     1      46.262   3.741   7.679  0.00  0.00    +0.000 A 
ATOM     18  C   UNL     1      45.340   3.988   8.697  0.00  0.00    +0.000 A 
ATOM     19  C   UNL     1      44.798   2.928   9.420  0.00  0.00    +0.000 A 
ATOM     20  N   UNL     1      43.874   3.092  10.414  0.00  0.00    +0.000 N 
ATOM     21  N   UNL     1      45.155   1.655   9.159  0.00  0.00    +0.000 NA
ATOM     22  C   UNL     1      46.056   1.430   8.169  0.00  0.00    +0.000 A 
ATOM     23  H   UNL     1      43.577   2.239  10.876  0.00  0.00    +0.000 HD
BRANCH  16  25
ATOM     24  N   UNL     1      48.326   1.884   5.528  0.00  0.00    +0.000 NA
ATOM     25  C   UNL     1      47.562   2.125   6.367  0.00  0.00    +0.000 C 
ENDBRANCH  16  25
ENDBRANCH  15  20
ENDBRANCH   1  15
TORSDOF 6
ENDMDL
MODEL 2
REMARK VINA RESULT:    -7.854      1.661      3.400
REMARK INTER + INTRA:         -11.688
REMARK INTER:                 -10.756
REMARK INTRA:                  -0.932
REMARK UNBOUND:                -1.079
REMARK  Name = 
REMARK  6 active torsions:
REMARK  status: ('A' for Active; 'I' for Inactive)
REMARK    1  A    between atoms: C_2  and  C_3
REMARK    2  A    between atoms: N_7  and  C_8
REMARK    3  A    between atoms: C_8  and  C_9
REMARK    4  A    between atoms: C_9  and  C_12
REMARK    5  A    between atoms: C_16  and  O_17
REMARK    6  A    between atoms: O_17  and  C_18
REMARK                            x       y       z     vdW  Elec       q    Type
REMARK                         _______ _______ _______ _____ _____    ______ ____
ROOT
ATOM      1  C   UNL     1      43.454   4.805  12.332  0.00  0.00    +0.000 C 
ATOM      2  F   UNL     1      42.517   5.739  12.671  0.00  0.00    +0.000 F 
ATOM      3  F   UNL     1      43.056   3.655  12.954  0.00  0.00    +0.000 F 
ENDROOT
BRANCH   1   4
ATOM      4  C   UNL     1      44.856   5.220  12.738  0.00  0.00    +0.000 A 
ATOM      5  C   UNL     1      45.602   4.437  13.631  0.00  0.00    +0.000 A 
ATOM      6  C   UNL     1      46.918   4.780  13.941  0.00  0.00    +0.000 A 
ATOM      7  C   UNL     1      47.509   5.910  13.368  0.00  0.00    +0.000 A 
ATOM      8  C   UNL     1      46.776   6.702  12.488  0.00  0.00    +0.000 A 
ATOM      9  C   UNL     1      45.459   6.355  12.174  0.00  0.00    +0.000 A 
BRANCH   8  10
ATOM     10  O   UNL     1      47.255   7.807  11.832  0.00  0.00    +0.000 OA
BRANCH  10  11
ATOM     11  C   UNL     1      48.518   8.383  12.229  0.00  0.00    +0.000 C 
ATOM     12  C   UNL     1      48.860   9.790  11.678  0.00  0.00    +0.000 C 
ATOM     13  C   UNL     1      50.285   9.287  11.390  0.00  0.00    +0.000 C 
ATOM     14  C   UNL     1      49.728   7.856  11.412  0.00  0.00    +0.000 C 
ENDBRANCH  10  11
ENDBRANCH   8  10
ENDBRANCH   1   4
BRANCH   1  15
ATOM     15  C   UNL     1      43.407   4.583  10.800  0.00  0.00    +0.000 C 
BRANCH  15  20
ATOM     16  C   UNL     1      46.655   2.501   7.404  0.00  0.00    +0.000 A 
ATOM     17  C   UNL     1      46.291   3.820   7.635  0.00  0.00    +0.000 A 
ATOM     18  C   UNL     1      45.359   4.105   8.635  0.00  0.00    +0.000 A 
ATOM     19  C   UNL     1      44.804   3.070   9.384  0.00  0.00    +0.000 A 
ATOM     20  N   UNL     1      43.870   3.269  10.363  0.00  0.00    +0.000 N 
ATOM     21  N   UNL     1      45.158   1.788   9.168  0.00  0.00    +0.000 NA
ATOM     22  C   UNL     1      46.068   1.528   8.195  0.00  0.00    +0.000 A 
ATOM     23  H   UNL     1      43.564   2.433  10.848  0.00  0.00    +0.000 HD
BRANCH  16  25
ATOM     24  N   UNL     1      48.355   1.874   5.558  0.00  0.00    +0.000 NA
ATOM     25  C   UNL     1      47.597   2.158   6.389  0.00  0.00    +0.000 C 
ENDBRANCH  16  25
ENDBRANCH  15  20
ENDBRANCH   1  15
TORSDOF 6
ENDMDL
MODEL 3
REMARK VINA RESULT:    -7.620      1.722      2.213
REMARK INTER + INTRA:         -11.372
REMARK INTER:                 -10.864
REMARK INTRA:                  -0.507
REMARK UNBOUND:                -1.079
REMARK  Name = 
REMARK  6 active torsions:
REMARK  status: ('A' for Active; 'I' for Inactive)
REMARK    1  A    between atoms: C_2  and  C_3
REMARK    2  A    between atoms: N_7  and  C_8
REMARK    3  A    between atoms: C_8  and  C_9
REMARK    4  A    between atoms: C_9  and  C_12
REMARK    5  A    between atoms: C_16  and  O_17
REMARK    6  A    between atoms: O_17  and  C_18
REMARK                            x       y       z     vdW  Elec       q    Type
REMARK                         _______ _______ _______ _____ _____    ______ ____
ROOT
ATOM      1  C   UNL     1      43.938   4.194  12.459  0.00  0.00    +0.000 C 
ATOM      2  F   UNL     1      42.914   4.244  13.361  0.00  0.00    +0.000 F 
ATOM      3  F   UNL     1      44.573   3.008  12.703  0.00  0.00    +0.000 F 
ENDROOT
BRANCH   1   4
ATOM      4  C   UNL     1      44.875   5.381  12.582  0.00  0.00    +0.000 A 
ATOM      5  C   UNL     1      44.447   6.668  12.226  0.00  0.00    +0.000 A 
ATOM      6  C   UNL     1      45.286   7.768  12.413  0.00  0.00    +0.000 A 
ATOM      7  C   UNL     1      46.563   7.600  12.956  0.00  0.00    +0.000 A 
ATOM      8  C   UNL     1      47.004   6.327  13.304  0.00  0.00    +0.000 A 
ATOM      9  C   UNL     1      46.162   5.225  13.121  0.00  0.00    +0.000 A 
BRANCH   8  10
ATOM     10  O   UNL     1      48.214   6.039  13.881  0.00  0.00    +0.000 OA
BRANCH  10  11
ATOM     11  C   UNL     1      48.721   6.882  14.937  0.00  0.00    +0.000 C 
ATOM     12  C   UNL     1      50.209   7.309  14.852  0.00  0.00    +0.000 C 
ATOM     13  C   UNL     1      50.341   7.003  16.354  0.00  0.00    +0.000 C 
ATOM     14  C   UNL     1      49.101   6.106  16.227  0.00  0.00    +0.000 C 
ENDBRANCH  10  11
ENDBRANCH   8  10
ENDBRANCH   1   4
BRANCH   1  15
ATOM     15  C   UNL     1      43.344   4.155  11.030  0.00  0.00    +0.000 C 
BRANCH  15  20
ATOM     16  C   UNL     1      46.710   2.704   7.428  0.00  0.00    +0.000 A 
ATOM     17  C   UNL     1      46.023   1.974   8.388  0.00  0.00    +0.000 A 
ATOM     18  C   UNL     1      45.162   2.640   9.262  0.00  0.00    +0.000 A 
ATOM     19  C   UNL     1      45.004   4.021   9.167  0.00  0.00    +0.000 A 
ATOM     20  N   UNL     1      44.198   4.743  10.002  0.00  0.00    +0.000 N 
ATOM     21  N   UNL     1      45.665   4.733   8.233  0.00  0.00    +0.000 NA
ATOM     22  C   UNL     1      46.495   4.071   7.388  0.00  0.00    +0.000 A 
ATOM     23  H   UNL     1      44.155   5.739   9.811  0.00  0.00    +0.000 HD
BRANCH  16  25
ATOM     24  N   UNL     1      48.330   1.548   5.774  0.00  0.00    +0.000 NA
ATOM     25  C   UNL     1      47.607   2.071   6.517  0.00  0.00    +0.000 C 
ENDBRANCH  16  25
ENDBRANCH  15  20
ENDBRANCH   1  15
TORSDOF 6
ENDMDL
MODEL 4
REMARK VINA RESULT:    -7.522      2.245      4.105
REMARK INTER + INTRA:         -11.240
REMARK INTER:                 -10.832
REMARK INTRA:                  -0.408
REMARK UNBOUND:                -1.079
REMARK  Name = 
REMARK  6 active torsions:
REMARK  status: ('A' for Active; 'I' for Inactive)
REMARK    1  A    between atoms: C_2  and  C_3
REMARK    2  A    between atoms: N_7  and  C_8
REMARK    3  A    between atoms: C_8  and  C_9
REMARK    4  A    between atoms: C_9  and  C_12
REMARK    5  A    between atoms: C_16  and  O_17
REMARK    6  A    between atoms: O_17  and  C_18
REMARK                            x       y       z     vdW  Elec       q    Type
REMARK                         _______ _______ _______ _____ _____    ______ ____
ROOT
ATOM      1  C   UNL     1      43.636   4.322  12.586  0.00  0.00    +0.000 C 
ATOM      2  F   UNL     1      42.646   4.524  13.505  0.00  0.00    +0.000 F 
ATOM      3  F   UNL     1      43.933   2.990  12.663  0.00  0.00    +0.000 F 
ENDROOT
BRANCH   1   4
ATOM      4  C   UNL     1      44.850   5.195  12.845  0.00  0.00    +0.000 A 
ATOM      5  C   UNL     1      46.121   4.623  12.998  0.00  0.00    +0.000 A 
ATOM      6  C   UNL     1      47.246   5.434  13.159  0.00  0.00    +0.000 A 
ATOM      7  C   UNL     1      47.119   6.826  13.173  0.00  0.00    +0.000 A 
ATOM      8  C   UNL     1      45.862   7.406  13.033  0.00  0.00    +0.000 A 
ATOM      9  C   UNL     1      44.736   6.594  12.867  0.00  0.00    +0.000 A 
BRANCH   8  10
ATOM     10  O   UNL     1      45.613   8.754  12.988  0.00  0.00    +0.000 OA
BRANCH  10  11
ATOM     11  C   UNL     1      45.388   9.398  11.716  0.00  0.00    +0.000 C 
ATOM     12  C   UNL     1      44.749  10.810  11.739  0.00  0.00    +0.000 C 
ATOM     13  C   UNL     1      43.834  10.371  10.583  0.00  0.00    +0.000 C 
ATOM     14  C   UNL     1      44.102   8.915  10.993  0.00  0.00    +0.000 C 
ENDBRANCH  10  11
ENDBRANCH   8  10
ENDBRANCH   1   4
BRANCH   1  15
ATOM     15  C   UNL     1      43.077   4.627  11.174  0.00  0.00    +0.000 C 
BRANCH  15  20
ATOM     16  C   UNL     1      46.431   2.704   7.788  0.00  0.00    +0.000 A 
ATOM     17  C   UNL     1      45.580   2.081   8.691  0.00  0.00    +0.000 A 
ATOM     18  C   UNL     1      44.770   2.865   9.514  0.00  0.00    +0.000 A 
ATOM     19  C   UNL     1      44.822   4.253   9.425  0.00  0.00    +0.000 A 
ATOM     20  N   UNL     1      44.076   5.085  10.212  0.00  0.00    +0.000 N 
ATOM     21  N   UNL     1      45.642   4.863   8.545  0.00  0.00    +0.000 NA
ATOM     22  C   UNL     1      46.421   4.088   7.749  0.00  0.00    +0.000 A 
ATOM     23  H   UNL     1      44.192   6.076  10.031  0.00  0.00    +0.000 HD
BRANCH  16  25
ATOM     24  N   UNL     1      47.981   1.342   6.226  0.00  0.00    +0.000 NA
ATOM     25  C   UNL     1      47.285   1.948   6.930  0.00  0.00    +0.000 C 
ENDBRANCH  16  25
ENDBRANCH  15  20
ENDBRANCH   1  15
TORSDOF 6
ENDMDL
MODEL 5
REMARK VINA RESULT:    -7.183      3.518      7.967
REMARK INTER + INTRA:         -10.781
REMARK INTER:                 -10.233
REMARK INTRA:                  -0.548
REMARK UNBOUND:                -1.079
REMARK  Name = 
REMARK  6 active torsions:
REMARK  status: ('A' for Active; 'I' for Inactive)
REMARK    1  A    between atoms: C_2  and  C_3
REMARK    2  A    between atoms: N_7  and  C_8
REMARK    3  A    between atoms: C_8  and  C_9
REMARK    4  A    between atoms: C_9  and  C_12
REMARK    5  A    between atoms: C_16  and  O_17
REMARK    6  A    between atoms: O_17  and  C_18
REMARK                            x       y       z     vdW  Elec       q    Type
REMARK                         _______ _______ _______ _____ _____    ______ ____
ROOT
ATOM      1  C   UNL     1      45.767   6.014  12.316  0.00  0.00    +0.000 C 
ATOM      2  F   UNL     1      44.843   6.319  13.274  0.00  0.00    +0.000 F 
ATOM      3  F   UNL     1      46.052   7.201  11.700  0.00  0.00    +0.000 F 
ENDROOT
BRANCH   1   4
ATOM      4  C   UNL     1      45.262   4.968  11.339  0.00  0.00    +0.000 A 
ATOM      5  C   UNL     1      44.367   3.974  11.757  0.00  0.00    +0.000 A 
ATOM      6  C   UNL     1      43.846   3.061  10.838  0.00  0.00    +0.000 A 
ATOM      7  C   UNL     1      44.211   3.127   9.490  0.00  0.00    +0.000 A 
ATOM      8  C   UNL     1      45.108   4.103   9.064  0.00  0.00    +0.000 A 
ATOM      9  C   UNL     1      45.627   5.019   9.984  0.00  0.00    +0.000 A 
BRANCH   8  10
ATOM     10  O   UNL     1      45.510   4.294   7.767  0.00  0.00    +0.000 OA
BRANCH  10  11
ATOM     11  C   UNL     1      46.714   3.656   7.291  0.00  0.00    +0.000 C 
ATOM     12  C   UNL     1      46.752   3.236   5.799  0.00  0.00    +0.000 C 
ATOM     13  C   UNL     1      47.371   1.897   6.233  0.00  0.00    +0.000 C 
ATOM     14  C   UNL     1      46.796   2.144   7.635  0.00  0.00    +0.000 C 
ENDBRANCH  10  11
ENDBRANCH   8  10
ENDBRANCH   1   4
BRANCH   1  15
ATOM     15  C   UNL     1      47.050   5.492  13.009  0.00  0.00    +0.000 C 
BRANCH  15  20
ATOM     16  C   UNL     1      48.147   4.558  17.942  0.00  0.00    +0.000 A 
ATOM     17  C   UNL     1      48.527   5.592  17.098  0.00  0.00    +0.000 A 
ATOM     18  C   UNL     1      48.083   5.589  15.775  0.00  0.00    +0.000 A 
ATOM     19  C   UNL     1      47.271   4.555  15.315  0.00  0.00    +0.000 A 
ATOM     20  N   UNL     1      46.818   4.472  14.028  0.00  0.00    +0.000 N 
ATOM     21  N   UNL     1      46.896   3.550  16.131  0.00  0.00    +0.000 NA
ATOM     22  C   UNL     1      47.332   3.569  17.416  0.00  0.00    +0.000 A 
ATOM     23  H   UNL     1      46.217   3.680  13.828  0.00  0.00    +0.000 HD
BRANCH  16  25
ATOM     24  N   UNL     1      48.925   4.466  20.408  0.00  0.00    +0.000 NA
ATOM     25  C   UNL     1      48.581   4.511  19.300  0.00  0.00    +0.000 C 
ENDBRANCH  16  25
ENDBRANCH  15  20
ENDBRANCH   1  15
TORSDOF 6
ENDMDL
MODEL 6
REMARK VINA RESULT:    -6.834      3.888      7.978
REMARK INTER + INTRA:         -10.309
REMARK INTER:                  -9.586
REMARK INTRA:                  -0.723
REMARK UNBOUND:                -1.079
REMARK  Name = 
REMARK  6 active torsions:
REMARK  status: ('A' for Active; 'I' for Inactive)
REMARK    1  A    between atoms: C_2  and  C_3
REMARK    2  A    between atoms: N_7  and  C_8
REMARK    3  A    between atoms: C_8  and  C_9
REMARK    4  A    between atoms: C_9  and  C_12
REMARK    5  A    between atoms: C_16  and  O_17
REMARK    6  A    between atoms: O_17  and  C_18
REMARK                            x       y       z     vdW  Elec       q    Type
REMARK                         _______ _______ _______ _____ _____    ______ ____
ROOT
ATOM      1  C   UNL     1      45.379   6.407  11.745  0.00  0.00    +0.000 C 
ATOM      2  F   UNL     1      44.885   6.339  13.017  0.00  0.00    +0.000 F 
ATOM      3  F   UNL     1      44.805   7.519  11.196  0.00  0.00    +0.000 F 
ENDROOT
BRANCH   1   4
ATOM      4  C   UNL     1      45.083   5.154  10.943  0.00  0.00    +0.000 A 
ATOM      5  C   UNL     1      44.392   4.081  11.523  0.00  0.00    +0.000 A 
ATOM      6  C   UNL     1      44.054   2.963  10.759  0.00  0.00    +0.000 A 
ATOM      7  C   UNL     1      44.403   2.897   9.407  0.00  0.00    +0.000 A 
ATOM      8  C   UNL     1      45.099   3.951   8.821  0.00  0.00    +0.000 A 
ATOM      9  C   UNL     1      45.433   5.073   9.585  0.00  0.00    +0.000 A 
BRANCH   8  10
ATOM     10  O   UNL     1      45.460   4.023   7.500  0.00  0.00    +0.000 OA
BRANCH  10  11
ATOM     11  C   UNL     1      46.754   3.537   7.086  0.00  0.00    +0.000 C 
ATOM     12  C   UNL     1      46.899   3.070   5.615  0.00  0.00    +0.000 C 
ATOM     13  C   UNL     1      47.679   1.845   6.122  0.00  0.00    +0.000 C 
ATOM     14  C   UNL     1      47.028   2.065   7.496  0.00  0.00    +0.000 C 
ENDBRANCH  10  11
ENDBRANCH   8  10
ENDBRANCH   1   4
BRANCH   1  15
ATOM     15  C   UNL     1      46.912   6.621  11.816  0.00  0.00    +0.000 C 
BRANCH  15  20
ATOM     16  C   UNL     1      49.000   7.691  16.388  0.00  0.00    +0.000 A 
ATOM     17  C   UNL     1      48.462   8.516  15.410  0.00  0.00    +0.000 A 
ATOM     18  C   UNL     1      47.965   7.946  14.237  0.00  0.00    +0.000 A 
ATOM     19  C   UNL     1      48.015   6.566  14.057  0.00  0.00    +0.000 A 
ATOM     20  N   UNL     1      47.569   5.939  12.927  0.00  0.00    +0.000 N 
ATOM     21  N   UNL     1      48.532   5.760  15.006  0.00  0.00    +0.000 NA
ATOM     22  C   UNL     1      49.007   6.328  16.143  0.00  0.00    +0.000 A 
ATOM     23  H   UNL     1      47.643   4.928  12.932  0.00  0.00    +0.000 HD
BRANCH  16  25
ATOM     24  N   UNL     1      49.948   8.659  18.592  0.00  0.00    +0.000 NA
ATOM     25  C   UNL     1      49.528   8.225  17.601  0.00  0.00    +0.000 C 
ENDBRANCH  16  25
ENDBRANCH  15  20
ENDBRANCH   1  15
TORSDOF 6
ENDMDL
MODEL 7
REMARK VINA RESULT:    -6.517      4.063      7.406
REMARK INTER + INTRA:          -9.882
REMARK INTER:                  -9.170
REMARK INTRA:                  -0.712
REMARK UNBOUND:                -1.079
REMARK  Name = 
REMARK  6 active torsions:
REMARK  status: ('A' for Active; 'I' for Inactive)
REMARK    1  A    between atoms: C_2  and  C_3
REMARK    2  A    between atoms: N_7  and  C_8
REMARK    3  A    between atoms: C_8  and  C_9
REMARK    4  A    between atoms: C_9  and  C_12
REMARK    5  A    between atoms: C_16  and  O_17
REMARK    6  A    between atoms: O_17  and  C_18
REMARK                            x       y       z     vdW  Elec       q    Type
REMARK                         _______ _______ _______ _____ _____    ______ ____
ROOT
ATOM      1  C   UNL     1      45.318   6.041  12.316  0.00  0.00    +0.000 C 
ATOM      2  F   UNL     1      44.355   6.242  13.264  0.00  0.00    +0.000 F 
ATOM      3  F   UNL     1      45.429   7.235  11.659  0.00  0.00    +0.000 F 
ENDROOT
BRANCH   1   4
ATOM      4  C   UNL     1      44.974   4.900  11.377  0.00  0.00    +0.000 A 
ATOM      5  C   UNL     1      44.222   3.806  11.828  0.00  0.00    +0.000 A 
ATOM      6  C   UNL     1      43.843   2.797  10.941  0.00  0.00    +0.000 A 
ATOM      7  C   UNL     1      44.211   2.863   9.594  0.00  0.00    +0.000 A 
ATOM      8  C   UNL     1      44.966   3.938   9.136  0.00  0.00    +0.000 A 
ATOM      9  C   UNL     1      45.343   4.951  10.023  0.00  0.00    +0.000 A 
BRANCH   8  10
ATOM     10  O   UNL     1      45.352   4.136   7.835  0.00  0.00    +0.000 OA
BRANCH  10  11
ATOM     11  C   UNL     1      46.620   3.618   7.379  0.00  0.00    +0.000 C 
ATOM     12  C   UNL     1      46.764   3.331   5.862  0.00  0.00    +0.000 C 
ATOM     13  C   UNL     1      47.449   2.001   6.220  0.00  0.00    +0.000 C 
ATOM     14  C   UNL     1      46.786   2.090   7.602  0.00  0.00    +0.000 C 
ENDBRANCH  10  11
ENDBRANCH   8  10
ENDBRANCH   1   4
BRANCH   1  15
ATOM     15  C   UNL     1      46.661   5.736  13.025  0.00  0.00    +0.000 C 
BRANCH  15  20
ATOM     16  C   UNL     1      50.314   9.292  12.372  0.00  0.00    +0.000 A 
ATOM     17  C   UNL     1      49.933   8.213  11.587  0.00  0.00    +0.000 A 
ATOM     18  C   UNL     1      48.895   7.388  12.020  0.00  0.00    +0.000 A 
ATOM     19  C   UNL     1      48.255   7.650  13.229  0.00  0.00    +0.000 A 
ATOM     20  N   UNL     1      47.247   6.873  13.729  0.00  0.00    +0.000 N 
ATOM     21  N   UNL     1      48.617   8.699  13.994  0.00  0.00    +0.000 NA
ATOM     22  C   UNL     1      49.626   9.495  13.557  0.00  0.00    +0.000 A 
ATOM     23  H   UNL     1      46.852   7.187  14.609  0.00  0.00    +0.000 HD
BRANCH  16  25
ATOM     24  N   UNL     1      52.244  10.859  11.655  0.00  0.00    +0.000 NA
ATOM     25  C   UNL     1      51.374  10.161  11.978  0.00  0.00    +0.000 C 
ENDBRANCH  16  25
ENDBRANCH  15  20
ENDBRANCH   1  15
TORSDOF 6
ENDMDL
MODEL 8
REMARK VINA RESULT:    -6.167      4.100      7.020
REMARK INTER + INTRA:          -9.409
REMARK INTER:                  -8.718
REMARK INTRA:                  -0.690
REMARK UNBOUND:                -1.079
REMARK  Name = 
REMARK  6 active torsions:
REMARK  status: ('A' for Active; 'I' for Inactive)
REMARK    1  A    between atoms: C_2  and  C_3
REMARK    2  A    between atoms: N_7  and  C_8
REMARK    3  A    between atoms: C_8  and  C_9
REMARK    4  A    between atoms: C_9  and  C_12
REMARK    5  A    between atoms: C_16  and  O_17
REMARK    6  A    between atoms: O_17  and  C_18
REMARK                            x       y       z     vdW  Elec       q    Type
REMARK                         _______ _______ _______ _____ _____    ______ ____
ROOT
ATOM      1  C   UNL     1      46.472   4.958  13.673  0.00  0.00    +0.000 C 
ATOM      2  F   UNL     1      47.572   4.312  13.186  0.00  0.00    +0.000 F 
ATOM      3  F   UNL     1      46.354   4.537  14.969  0.00  0.00    +0.000 F 
ENDROOT
BRANCH   1   4
ATOM      4  C   UNL     1      45.224   4.667  12.861  0.00  0.00    +0.000 A 
ATOM      5  C   UNL     1      44.094   5.490  12.968  0.00  0.00    +0.000 A 
ATOM      6  C   UNL     1      42.977   5.264  12.162  0.00  0.00    +0.000 A 
ATOM      7  C   UNL     1      42.970   4.213  11.240  0.00  0.00    +0.000 A 
ATOM      8  C   UNL     1      44.081   3.382  11.131  0.00  0.00    +0.000 A 
ATOM      9  C   UNL     1      45.202   3.611  11.935  0.00  0.00    +0.000 A 
BRANCH   8  10
ATOM     10  O   UNL     1      44.211   2.348  10.240  0.00  0.00    +0.000 OA
BRANCH  10  11
ATOM     11  C   UNL     1      44.513   2.631   8.857  0.00  0.00    +0.000 C 
ATOM     12  C   UNL     1      45.915   2.218   8.338  0.00  0.00    +0.000 C 
ATOM     13  C   UNL     1      46.009   3.579   7.628  0.00  0.00    +0.000 C 
ATOM     14  C   UNL     1      44.939   4.101   8.599  0.00  0.00    +0.000 C 
ENDBRANCH  10  11
ENDBRANCH   8  10
ENDBRANCH   1   4
BRANCH   1  15
ATOM     15  C   UNL     1      46.744   6.482  13.668  0.00  0.00    +0.000 C 
BRANCH  15  20
ATOM     16  C   UNL     1      51.305   8.407  12.289  0.00  0.00    +0.000 A 
ATOM     17  C   UNL     1      50.203   8.029  11.534  0.00  0.00    +0.000 A 
ATOM     18  C   UNL     1      49.078   7.517  12.182  0.00  0.00    +0.000 A 
ATOM     19  C   UNL     1      49.071   7.388  13.569  0.00  0.00    +0.000 A 
ATOM     20  N   UNL     1      48.016   6.874  14.269  0.00  0.00    +0.000 N 
ATOM     21  N   UNL     1      50.136   7.758  14.307  0.00  0.00    +0.000 NA
ATOM     22  C   UNL     1      51.222   8.258  13.663  0.00  0.00    +0.000 A 
ATOM     23  H   UNL     1      48.131   6.855  15.277  0.00  0.00    +0.000 HD
BRANCH  16  25
ATOM     24  N   UNL     1      53.438   9.363  11.178  0.00  0.00    +0.000 NA
ATOM     25  C   UNL     1      52.482   8.929  11.674  0.00  0.00    +0.000 C 
ENDBRANCH  16  25
ENDBRANCH  15  20
ENDBRANCH   1  15
TORSDOF 6
ENDMDL
MODEL 9
REMARK VINA RESULT:    -5.999      4.582      7.984
REMARK INTER + INTRA:          -9.182
REMARK INTER:                  -8.335
REMARK INTRA:                  -0.848
REMARK UNBOUND:                -1.079
REMARK  Name = 
REMARK  6 active torsions:
REMARK  status: ('A' for Active; 'I' for Inactive)
REMARK    1  A    between atoms: C_2  and  C_3
REMARK    2  A    between atoms: N_7  and  C_8
REMARK    3  A    between atoms: C_8  and  C_9
REMARK    4  A    between atoms: C_9  and  C_12
REMARK    5  A    between atoms: C_16  and  O_17
REMARK    6  A    between atoms: O_17  and  C_18
REMARK                            x       y       z     vdW  Elec       q    Type
REMARK                         _______ _______ _______ _____ _____    ______ ____
ROOT
ATOM      1  C   UNL     1      46.429   6.711  12.595  0.00  0.00    +0.000 C 
ATOM      2  F   UNL     1      46.023   7.737  13.400  0.00  0.00    +0.000 F 
ATOM      3  F   UNL     1      47.110   7.306  11.570  0.00  0.00    +0.000 F 
ENDROOT
BRANCH   1   4
ATOM      4  C   UNL     1      45.266   5.872  12.098  0.00  0.00    +0.000 A 
ATOM      5  C   UNL     1      44.096   5.751  12.861  0.00  0.00    +0.000 A 
ATOM      6  C   UNL     1      43.000   5.042  12.366  0.00  0.00    +0.000 A 
ATOM      7  C   UNL     1      43.057   4.442  11.105  0.00  0.00    +0.000 A 
ATOM      8  C   UNL     1      44.216   4.545  10.342  0.00  0.00    +0.000 A 
ATOM      9  C   UNL     1      45.312   5.259  10.836  0.00  0.00    +0.000 A 
BRANCH   8  10
ATOM     10  O   UNL     1      44.379   4.038   9.078  0.00  0.00    +0.000 OA
BRANCH  10  11
ATOM     11  C   UNL     1      45.668   3.529   8.674  0.00  0.00    +0.000 C 
ATOM     12  C   UNL     1      45.968   3.486   7.153  0.00  0.00    +0.000 C 
ATOM     13  C   UNL     1      46.557   2.078   7.350  0.00  0.00    +0.000 C 
ATOM     14  C   UNL     1      45.748   1.979   8.652  0.00  0.00    +0.000 C 
ENDBRANCH  10  11
ENDBRANCH   8  10
ENDBRANCH   1   4
BRANCH   1  15
ATOM     15  C   UNL     1      47.409   5.812  13.387  0.00  0.00    +0.000 C 
BRANCH  15  20
ATOM     16  C   UNL     1      51.038   8.677  15.631  0.00  0.00    +0.000 A 
ATOM     17  C   UNL     1      50.898   8.233  14.324  0.00  0.00    +0.000 A 
ATOM     18  C   UNL     1      49.798   7.443  13.987  0.00  0.00    +0.000 A 
ATOM     19  C   UNL     1      48.857   7.108  14.958  0.00  0.00    +0.000 A 
ATOM     20  N   UNL     1      47.768   6.321  14.708  0.00  0.00    +0.000 N 
ATOM     21  N   UNL     1      48.985   7.542  16.228  0.00  0.00    +0.000 NA
ATOM     22  C   UNL     1      50.058   8.312  16.539  0.00  0.00    +0.000 A 
ATOM     23  H   UNL     1      47.149   6.172  15.497  0.00  0.00    +0.000 HD
BRANCH  16  25
ATOM     24  N   UNL     1      53.046  10.139  16.357  0.00  0.00    +0.000 NA
ATOM     25  C   UNL     1      52.149   9.480  16.028  0.00  0.00    +0.000 C 
ENDBRANCH  16  25
ENDBRANCH  15  20
ENDBRANCH   1  15
TORSDOF 6
ENDMDL
