MODEL 1
REMARK VINA RESULT:    -7.990      0.000      0.000
REMARK INTER + INTRA:          -9.813
REMARK INTER:                  -9.391
REMARK INTRA:                  -0.423
REMARK UNBOUND:                -0.423
REMARK  Name = 
REMARK  3 active torsions:
REMARK  status: ('A' for Active; 'I' for Inactive)
REMARK    1  A    between atoms: C_2  and  C_4
REMARK    2  A    between atoms: N_8  and  C_9
REMARK    3  A    between atoms: C_9  and  C_10
REMARK                            x       y       z     vdW  Elec       q    Type
REMARK                         _______ _______ _______ _____ _____    ______ ____
ROOT
ATOM      1  C   UNL     1      46.275   2.086   7.902  0.00  0.00    +0.000 A 
ATOM      2  C   UNL     1      46.393   3.421   7.528  0.00  0.00    +0.000 A 
ATOM      3  C   UNL     1      45.581   4.365   8.152  0.00  0.00    +0.000 A 
ATOM      4  C   UNL     1      44.702   3.969   9.160  0.00  0.00    +0.000 A 
ATOM      5  N   UNL     1      43.932   4.971   9.755  0.00  0.00    +0.000 N 
ATOM      6  N   UNL     1      44.573   2.680   9.525  0.00  0.00    +0.000 NA
ATOM      7  C   UNL     1      45.342   1.765   8.877  0.00  0.00    +0.000 A 
ATOM      8  H   UNL     1      43.254   5.289   9.067  0.00  0.00    +0.000 HD
ENDROOT
BRANCH   1  10
ATOM      9  N   UNL     1      46.788  -0.274   7.665  0.00  0.00    +0.000 N 
ATOM     10  C   UNL     1      47.078   1.011   7.292  0.00  0.00    +0.000 C 
ATOM     11  O   UNL     1      47.943   1.249   6.460  0.00  0.00    +0.000 OA
ATOM     12  H   UNL     1      47.272  -1.007   7.160  0.00  0.00    +0.000 HD
ATOM     13  H   UNL     1      45.932  -0.522   8.138  0.00  0.00    +0.000 HD
ENDBRANCH   1  10
BRANCH   5  14
ATOM     14  C   UNL     1      43.317   4.660  11.041  0.00  0.00    +0.000 C 
BRANCH  14  15
ATOM     15  C   UNL     1      44.182   5.248  12.182  0.00  0.00    +0.000 C 
ATOM     16  C   UNL     1      44.891   6.547  11.758  0.00  0.00    +0.000 C 
ATOM     17  C   UNL     1      45.803   7.095  12.852  0.00  0.00    +0.000 C 
ATOM     18  C   UNL     1      46.808   6.045  13.316  0.00  0.00    +0.000 C 
ATOM     19  C   UNL     1      46.100   4.784  13.797  0.00  0.00    +0.000 C 
ATOM     20  C   UNL     1      45.188   4.209  12.717  0.00  0.00    +0.000 C 
ENDBRANCH  14  15
ENDBRANCH   5  14
TORSDOF 3
ENDMDL
MODEL 2
REMARK VINA RESULT:    -7.448      2.927      6.426
REMARK INTER + INTRA:          -9.177
REMARK INTER:                  -8.856
REMARK INTRA:                  -0.321
REMARK UNBOUND:                -0.423
REMARK  Name = 
REMARK  3 active torsions:
REMARK  status: ('A' for Active; 'I' for Inactive)
REMARK    1  A    between atoms: C_2  and  C_4
REMARK    2  A    between atoms: N_8  and  C_9
REMARK    3  A    between atoms: C_9  and  C_10
REMARK                            x       y       z     vdW  Elec       q    Type
REMARK                         _______ _______ _______ _____ _____    ______ ____
ROOT
ATOM      1  C   UNL     1      45.577   6.623  12.489  0.00  0.00    +0.000 A 
ATOM      2  C   UNL     1      46.092   5.529  13.177  0.00  0.00    +0.000 A 
ATOM      3  C   UNL     1      45.816   4.249  12.701  0.00  0.00    +0.000 A 
ATOM      4  C   UNL     1      45.071   4.087  11.532  0.00  0.00    +0.000 A 
ATOM      5  N   UNL     1      44.849   2.777  11.104  0.00  0.00    +0.000 N 
ATOM      6  N   UNL     1      44.561   5.137  10.863  0.00  0.00    +0.000 NA
ATOM      7  C   UNL     1      44.803   6.377  11.364  0.00  0.00    +0.000 A 
ATOM      8  H   UNL     1      44.210   2.340  11.764  0.00  0.00    +0.000 HD
ENDROOT
BRANCH   1  10
ATOM      9  N   UNL     1      44.836   8.932  12.595  0.00  0.00    +0.000 N 
ATOM     10  C   UNL     1      45.800   8.015  12.920  0.00  0.00    +0.000 C 
ATOM     11  O   UNL     1      46.785   8.336  13.570  0.00  0.00    +0.000 OA
ATOM     12  H   UNL     1      44.949   9.859  12.988  0.00  0.00    +0.000 HD
ATOM     13  H   UNL     1      43.911   8.664  12.294  0.00  0.00    +0.000 HD
ENDBRANCH   1  10
BRANCH   5  14
ATOM     14  C   UNL     1      44.431   2.594   9.718  0.00  0.00    +0.000 C 
BRANCH  14  15
ATOM     15  C   UNL     1      45.674   2.613   8.797  0.00  0.00    +0.000 C 
ATOM     16  C   UNL     1      45.531   3.636   7.654  0.00  0.00    +0.000 C 
ATOM     17  C   UNL     1      46.721   3.610   6.699  0.00  0.00    +0.000 C 
ATOM     18  C   UNL     1      46.966   2.207   6.154  0.00  0.00    +0.000 C 
ATOM     19  C   UNL     1      47.172   1.207   7.286  0.00  0.00    +0.000 C 
ATOM     20  C   UNL     1      45.991   1.206   8.252  0.00  0.00    +0.000 C 
ENDBRANCH  14  15
ENDBRANCH   5  14
TORSDOF 3
ENDMDL
MODEL 3
REMARK VINA RESULT:    -7.426      3.134      6.197
REMARK INTER + INTRA:          -9.151
REMARK INTER:                  -8.825
REMARK INTRA:                  -0.326
REMARK UNBOUND:                -0.423
REMARK  Name = 
REMARK  3 active torsions:
REMARK  status: ('A' for Active; 'I' for Inactive)
REMARK    1  A    between atoms: C_2  and  C_4
REMARK    2  A    between atoms: N_8  and  C_9
REMARK    3  A    between atoms: C_9  and  C_10
REMARK                            x       y       z     vdW  Elec       q    Type
REMARK                         _______ _______ _______ _____ _____    ______ ____
ROOT
ATOM      1  C   UNL     1      46.605   4.956  13.667  0.00  0.00    +0.000 A 
ATOM      2  C   UNL     1      46.712   6.149  12.960  0.00  0.00    +0.000 A 
ATOM      3  C   UNL     1      46.248   6.193  11.648  0.00  0.00    +0.000 A 
ATOM      4  C   UNL     1      45.651   5.065  11.083  0.00  0.00    +0.000 A 
ATOM      5  N   UNL     1      45.192   5.186   9.769  0.00  0.00    +0.000 N 
ATOM      6  N   UNL     1      45.550   3.903  11.754  0.00  0.00    +0.000 NA
ATOM      7  C   UNL     1      46.046   3.864  13.018  0.00  0.00    +0.000 A 
ATOM      8  H   UNL     1      46.005   5.259   9.163  0.00  0.00    +0.000 HD
ENDROOT
BRANCH   1  10
ATOM      9  N   UNL     1      47.827   5.825  15.576  0.00  0.00    +0.000 N 
ATOM     10  C   UNL     1      47.080   4.803  15.054  0.00  0.00    +0.000 C 
ATOM     11  O   UNL     1      46.791   3.823  15.728  0.00  0.00    +0.000 OA
ATOM     12  H   UNL     1      48.054   5.757  16.561  0.00  0.00    +0.000 HD
ATOM     13  H   UNL     1      47.866   6.740  15.152  0.00  0.00    +0.000 HD
ENDBRANCH   1  10
BRANCH   5  14
ATOM     14  C   UNL     1      44.238   4.185   9.305  0.00  0.00    +0.000 C 
BRANCH  14  15
ATOM     15  C   UNL     1      44.927   3.248   8.285  0.00  0.00    +0.000 C 
ATOM     16  C   UNL     1      45.448   1.958   8.947  0.00  0.00    +0.000 C 
ATOM     17  C   UNL     1      46.193   1.061   7.962  0.00  0.00    +0.000 C 
ATOM     18  C   UNL     1      47.319   1.816   7.264  0.00  0.00    +0.000 C 
ATOM     19  C   UNL     1      46.791   3.057   6.556  0.00  0.00    +0.000 C 
ATOM     20  C   UNL     1      46.049   3.978   7.520  0.00  0.00    +0.000 C 
ENDBRANCH  14  15
ENDBRANCH   5  14
TORSDOF 3
ENDMDL
MODEL 4
REMARK VINA RESULT:    -7.179      3.041      6.342
REMARK INTER + INTRA:          -8.860
REMARK INTER:                  -8.544
REMARK INTRA:                  -0.316
REMARK UNBOUND:                -0.423
REMARK  Name = 
REMARK  3 active torsions:
REMARK  status: ('A' for Active; 'I' for Inactive)
REMARK    1  A    between atoms: C_2  and  C_4
REMARK    2  A    between atoms: N_8  and  C_9
REMARK    3  A    between atoms: C_9  and  C_10
REMARK                            x       y       z     vdW  Elec       q    Type
REMARK                         _______ _______ _______ _____ _____    ______ ____
ROOT
ATOM      1  C   UNL     1      46.650   5.841  12.889  0.00  0.00    +0.000 A 
ATOM      2  C   UNL     1      46.148   4.574  13.173  0.00  0.00    +0.000 A 
ATOM      3  C   UNL     1      45.386   3.924  12.206  0.00  0.00    +0.000 A 
ATOM      4  C   UNL     1      45.174   4.527  10.966  0.00  0.00    +0.000 A 
ATOM      5  N   UNL     1      44.415   3.809  10.038  0.00  0.00    +0.000 N 
ATOM      6  N   UNL     1      45.646   5.755  10.682  0.00  0.00    +0.000 NA
ATOM      7  C   UNL     1      46.352   6.394  11.652  0.00  0.00    +0.000 A 
ATOM      8  H   UNL     1      43.455   3.788  10.373  0.00  0.00    +0.000 HD
ENDROOT
BRANCH   1  10
ATOM      9  N   UNL     1      47.809   5.992  15.015  0.00  0.00    +0.000 N 
ATOM     10  C   UNL     1      47.454   6.616  13.850  0.00  0.00    +0.000 C 
ATOM     11  O   UNL     1      47.822   7.757  13.605  0.00  0.00    +0.000 OA
ATOM     12  H   UNL     1      48.450   6.496  15.617  0.00  0.00    +0.000 HD
ATOM     13  H   UNL     1      47.747   4.992  15.137  0.00  0.00    +0.000 HD
ENDBRANCH   1  10
BRANCH   5  14
ATOM     14  C   UNL     1      44.510   4.224   8.642  0.00  0.00    +0.000 C 
BRANCH  14  15
ATOM     15  C   UNL     1      45.196   3.108   7.818  0.00  0.00    +0.000 C 
ATOM     16  C   UNL     1      45.657   1.936   8.704  0.00  0.00    +0.000 C 
ATOM     17  C   UNL     1      46.399   0.864   7.910  0.00  0.00    +0.000 C 
ATOM     18  C   UNL     1      47.567   1.458   7.131  0.00  0.00    +0.000 C 
ATOM     19  C   UNL     1      47.098   2.574   6.206  0.00  0.00    +0.000 C 
ATOM     20  C   UNL     1      46.361   3.666   6.977  0.00  0.00    +0.000 C 
ENDBRANCH  14  15
ENDBRANCH   5  14
TORSDOF 3
ENDMDL
MODEL 5
REMARK VINA RESULT:    -6.064      3.490      6.444
REMARK INTER + INTRA:          -7.550
REMARK INTER:                  -7.242
REMARK INTRA:                  -0.308
REMARK UNBOUND:                -0.423
REMARK  Name = 
REMARK  3 active torsions:
REMARK  status: ('A' for Active; 'I' for Inactive)
REMARK    1  A    between atoms: C_2  and  C_4
REMARK    2  A    between atoms: N_8  and  C_9
REMARK    3  A    between atoms: C_9  and  C_10
REMARK                            x       y       z     vdW  Elec       q    Type
REMARK                         _______ _______ _______ _____ _____    ______ ____
ROOT
ATOM      1  C   UNL     1      47.451   7.086  13.599  0.00  0.00    +0.000 A 
ATOM      2  C   UNL     1      47.030   8.085  12.727  0.00  0.00    +0.000 A 
ATOM      3  C   UNL     1      46.134   7.756  11.713  0.00  0.00    +0.000 A 
ATOM      4  C   UNL     1      45.645   6.453  11.613  0.00  0.00    +0.000 A 
ATOM      5  N   UNL     1      44.736   6.199  10.584  0.00  0.00    +0.000 N 
ATOM      6  N   UNL     1      46.050   5.476  12.445  0.00  0.00    +0.000 NA
ATOM      7  C   UNL     1      46.957   5.804  13.403  0.00  0.00    +0.000 A 
ATOM      8  H   UNL     1      45.244   6.247   9.704  0.00  0.00    +0.000 HD
ENDROOT
BRANCH   1  10
ATOM      9  N   UNL     1      48.338   6.499  15.780  0.00  0.00    +0.000 N 
ATOM     10  C   UNL     1      48.406   7.330  14.694  0.00  0.00    +0.000 C 
ATOM     11  O   UNL     1      49.250   8.213  14.625  0.00  0.00    +0.000 OA
ATOM     12  H   UNL     1      49.067   6.609  16.475  0.00  0.00    +0.000 HD
ATOM     13  H   UNL     1      47.842   5.621  15.761  0.00  0.00    +0.000 HD
ENDBRANCH   1  10
BRANCH   5  14
ATOM     14  C   UNL     1      43.929   4.988  10.696  0.00  0.00    +0.000 C 
BRANCH  14  15
ATOM     15  C   UNL     1      44.275   4.027   9.534  0.00  0.00    +0.000 C 
ATOM     16  C   UNL     1      44.493   2.583  10.025  0.00  0.00    +0.000 C 
ATOM     17  C   UNL     1      44.906   1.642   8.896  0.00  0.00    +0.000 C 
ATOM     18  C   UNL     1      46.134   2.164   8.158  0.00  0.00    +0.000 C 
ATOM     19  C   UNL     1      45.893   3.569   7.617  0.00  0.00    +0.000 C 
ATOM     20  C   UNL     1      45.488   4.534   8.728  0.00  0.00    +0.000 C 
ENDBRANCH  14  15
ENDBRANCH   5  14
TORSDOF 3
ENDMDL
MODEL 6
REMARK VINA RESULT:    -5.687      4.965      7.415
REMARK INTER + INTRA:          -7.106
REMARK INTER:                  -6.857
REMARK INTRA:                  -0.250
REMARK UNBOUND:                -0.423
REMARK  Name = 
REMARK  3 active torsions:
REMARK  status: ('A' for Active; 'I' for Inactive)
REMARK    1  A    between atoms: C_2  and  C_4
REMARK    2  A    between atoms: N_8  and  C_9
REMARK    3  A    between atoms: C_9  and  C_10
REMARK                            x       y       z     vdW  Elec       q    Type
REMARK                         _______ _______ _______ _____ _____    ______ ____
ROOT
ATOM      1  C   UNL     1      48.506   4.436  17.064  0.00  0.00    +0.000 A 
ATOM      2  C   UNL     1      48.791   5.686  16.524  0.00  0.00    +0.000 A 
ATOM      3  C   UNL     1      48.125   6.084  15.368  0.00  0.00    +0.000 A 
ATOM      4  C   UNL     1      47.163   5.250  14.798  0.00  0.00    +0.000 A 
ATOM      5  N   UNL     1      46.522   5.721  13.650  0.00  0.00    +0.000 N 
ATOM      6  N   UNL     1      46.883   4.036  15.305  0.00  0.00    +0.000 NA
ATOM      7  C   UNL     1      47.572   3.645  16.410  0.00  0.00    +0.000 A 
ATOM      8  H   UNL     1      47.203   5.721  12.894  0.00  0.00    +0.000 HD
ENDROOT
BRANCH   1  10
ATOM      9  N   UNL     1      48.386   3.233  19.169  0.00  0.00    +0.000 N 
ATOM     10  C   UNL     1      49.166   3.918  18.276  0.00  0.00    +0.000 C 
ATOM     11  O   UNL     1      50.366   4.060  18.464  0.00  0.00    +0.000 OA
ATOM     12  H   UNL     1      48.871   2.791  19.941  0.00  0.00    +0.000 HD
ATOM     13  H   UNL     1      47.471   2.880  18.931  0.00  0.00    +0.000 HD
ENDBRANCH   1  10
BRANCH   5  14
ATOM     14  C   UNL     1      45.271   5.070  13.274  0.00  0.00    +0.000 C 
BRANCH  14  15
ATOM     15  C   UNL     1      45.406   4.471  11.854  0.00  0.00    +0.000 C 
ATOM     16  C   UNL     1      45.548   5.563  10.778  0.00  0.00    +0.000 C 
ATOM     17  C   UNL     1      45.609   4.984   9.367  0.00  0.00    +0.000 C 
ATOM     18  C   UNL     1      44.411   4.083   9.083  0.00  0.00    +0.000 C 
ATOM     19  C   UNL     1      44.312   2.964  10.113  0.00  0.00    +0.000 C 
ATOM     20  C   UNL     1      44.239   3.516  11.534  0.00  0.00    +0.000 C 
ENDBRANCH  14  15
ENDBRANCH   5  14
TORSDOF 3
ENDMDL
MODEL 7
REMARK VINA RESULT:    -5.484      5.780      8.148
REMARK INTER + INTRA:          -6.869
REMARK INTER:                  -6.612
REMARK INTRA:                  -0.256
REMARK UNBOUND:                -0.423
REMARK  Name = 
REMARK  3 active torsions:
REMARK  status: ('A' for Active; 'I' for Inactive)
REMARK    1  A    between atoms: C_2  and  C_4
REMARK    2  A    between atoms: N_8  and  C_9
REMARK    3  A    between atoms: C_9  and  C_10
REMARK                            x       y       z     vdW  Elec       q    Type
REMARK                         _______ _______ _______ _____ _____    ______ ____
ROOT
ATOM      1  C   UNL     1      49.299   4.351  17.904  0.00  0.00    +0.000 A 
ATOM      2  C   UNL     1      48.361   3.333  17.759  0.00  0.00    +0.000 A 
ATOM      3  C   UNL     1      47.434   3.420  16.723  0.00  0.00    +0.000 A 
ATOM      4  C   UNL     1      47.484   4.492  15.832  0.00  0.00    +0.000 A 
ATOM      5  N   UNL     1      46.535   4.504  14.808  0.00  0.00    +0.000 N 
ATOM      6  N   UNL     1      48.380   5.487  15.966  0.00  0.00    +0.000 NA
ATOM      7  C   UNL     1      49.251   5.409  17.007  0.00  0.00    +0.000 A 
ATOM      8  H   UNL     1      45.628   4.688  15.229  0.00  0.00    +0.000 HD
ENDROOT
BRANCH   1  10
ATOM      9  N   UNL     1      51.433   3.599  18.780  0.00  0.00    +0.000 N 
ATOM     10  C   UNL     1      50.311   4.359  18.974  0.00  0.00    +0.000 C 
ATOM     11  O   UNL     1      50.177   5.042  19.980  0.00  0.00    +0.000 OA
ATOM     12  H   UNL     1      52.167   3.697  19.471  0.00  0.00    +0.000 HD
ATOM     13  H   UNL     1      51.693   3.236  17.874  0.00  0.00    +0.000 HD
ENDBRANCH   1  10
BRANCH   5  14
ATOM     14  C   UNL     1      46.805   5.370  13.664  0.00  0.00    +0.000 C 
BRANCH  14  15
ATOM     15  C   UNL     1      45.778   5.081  12.543  0.00  0.00    +0.000 C 
ATOM     16  C   UNL     1      44.529   5.974  12.661  0.00  0.00    +0.000 C 
ATOM     17  C   UNL     1      43.479   5.646  11.603  0.00  0.00    +0.000 C 
ATOM     18  C   UNL     1      43.104   4.168  11.631  0.00  0.00    +0.000 C 
ATOM     19  C   UNL     1      44.334   3.287  11.450  0.00  0.00    +0.000 C 
ATOM     20  C   UNL     1      45.398   3.588  12.502  0.00  0.00    +0.000 C 
ENDBRANCH  14  15
ENDBRANCH   5  14
TORSDOF 3
ENDMDL
MODEL 8
REMARK VINA RESULT:    -5.380      2.575      4.051
REMARK INTER + INTRA:          -6.746
REMARK INTER:                  -6.413
REMARK INTRA:                  -0.333
REMARK UNBOUND:                -0.423
REMARK  Name = 
REMARK  3 active torsions:
REMARK  status: ('A' for Active; 'I' for Inactive)
REMARK    1  A    between atoms: C_2  and  C_4
REMARK    2  A    between atoms: N_8  and  C_9
REMARK    3  A    between atoms: C_9  and  C_10
REMARK                            x       y       z     vdW  Elec       q    Type
REMARK                         _______ _______ _______ _____ _____    ______ ____
ROOT
ATOM      1  C   UNL     1      44.834   3.746  10.188  0.00  0.00    +0.000 A 
ATOM      2  C   UNL     1      44.553   3.394  11.505  0.00  0.00    +0.000 A 
ATOM      3  C   UNL     1      44.848   4.302  12.518  0.00  0.00    +0.000 A 
ATOM      4  C   UNL     1      45.378   5.552  12.199  0.00  0.00    +0.000 A 
ATOM      5  N   UNL     1      45.633   6.418  13.265  0.00  0.00    +0.000 N 
ATOM      6  N   UNL     1      45.663   5.902  10.931  0.00  0.00    +0.000 NA
ATOM      7  C   UNL     1      45.408   4.988   9.957  0.00  0.00    +0.000 A 
ATOM      8  H   UNL     1      46.418   6.041  13.789  0.00  0.00    +0.000 HD
ENDROOT
BRANCH   1  10
ATOM      9  N   UNL     1      44.413   3.434   7.819  0.00  0.00    +0.000 N 
ATOM     10  C   UNL     1      44.572   2.851   9.047  0.00  0.00    +0.000 C 
ATOM     11  O   UNL     1      44.532   1.635   9.180  0.00  0.00    +0.000 OA
ATOM     12  H   UNL     1      44.342   2.803   7.029  0.00  0.00    +0.000 HD
ATOM     13  H   UNL     1      44.690   4.386   7.630  0.00  0.00    +0.000 HD
ENDBRANCH   1  10
BRANCH   5  14
ATOM     14  C   UNL     1      45.805   7.832  12.944  0.00  0.00    +0.000 C 
BRANCH  14  15
ATOM     15  C   UNL     1      47.274   8.245  13.199  0.00  0.00    +0.000 C 
ATOM     16  C   UNL     1      47.935   8.836  11.940  0.00  0.00    +0.000 C 
ATOM     17  C   UNL     1      49.406   9.180  12.162  0.00  0.00    +0.000 C 
ATOM     18  C   UNL     1      50.186   7.975  12.679  0.00  0.00    +0.000 C 
ATOM     19  C   UNL     1      49.567   7.431  13.962  0.00  0.00    +0.000 C 
ATOM     20  C   UNL     1      48.097   7.070  13.765  0.00  0.00    +0.000 C 
ENDBRANCH  14  15
ENDBRANCH   5  14
TORSDOF 3
ENDMDL
