MODEL 1
REMARK VINA RESULT:    -6.567      0.000      0.000
REMARK INTER + INTRA:          -9.281
REMARK INTER:                  -8.487
REMARK INTRA:                  -0.795
REMARK UNBOUND:                -0.795
REMARK  Name = 
REMARK  8 active torsions:
REMARK  status: ('A' for Active; 'I' for Inactive)
REMARK    1  A    between atoms: C_1  and  C_2
REMARK    2  A    between atoms: C_2  and  C_3
REMARK    3  A    between atoms: C_2  and  C_4
REMARK    4  A    between atoms: C_2  and  O_5
REMARK    5  A    between atoms: O_5  and  C_6
REMARK    6  A    between atoms: C_6  and  C_7
REMARK    7  A    between atoms: C_10  and  C_11
REMARK    8  A    between atoms: C_11  and  N_12
REMARK                            x       y       z     vdW  Elec       q    Type
REMARK                         _______ _______ _______ _____ _____    ______ ____
ROOT
ATOM      1  C   UNL     1      47.799   7.421  13.641  0.00  0.00    +0.000 A 
ATOM      2  C   UNL     1      47.580   6.097  13.235  0.00  0.00    +0.000 A 
ATOM      3  C   UNL     1      46.412   5.747  12.554  0.00  0.00    +0.000 A 
ATOM      4  C   UNL     1      45.440   6.714  12.260  0.00  0.00    +0.000 A 
ATOM      5  C   UNL     1      45.668   8.040  12.653  0.00  0.00    +0.000 A 
ATOM      6  C   UNL     1      46.834   8.389  13.336  0.00  0.00    +0.000 A 
ENDROOT
BRANCH   1   7
ATOM      7  C   UNL     1      49.008   7.779  14.466  0.00  0.00    +0.000 C 
BRANCH   7   8
ATOM      8  O   UNL     1      49.602   6.601  15.004  0.00  0.00    +0.000 OA
BRANCH   8  10
ATOM      9  C   UNL     1      48.502   5.268  16.749  0.00  0.00    +0.000 C 
ATOM     10  C   UNL     1      49.468   6.414  16.424  0.00  0.00    +0.000 C 
ATOM     11  C   UNL     1      49.041   7.708  17.128  0.00  0.00    +0.000 C 
ATOM     12  C   UNL     1      50.867   6.025  16.925  0.00  0.00    +0.000 C 
ENDBRANCH   8  10
ENDBRANCH   7   8
ENDBRANCH   1   7
BRANCH   4  13
ATOM     13  C   UNL     1      44.163   6.337  11.554  0.00  0.00    +0.000 C 
BRANCH  13  14
ATOM     14  N   UNL     1      44.101   4.909  11.258  0.00  0.00    +0.000 N 
ATOM     15  C   UNL     1      43.389   3.995  12.001  0.00  0.00    +0.000 A 
ATOM     16  C   UNL     1      43.471   2.774  11.370  0.00  0.00    +0.000 A 
ATOM     17  C   UNL     1      44.246   2.952  10.201  0.00  0.00    +0.000 A 
ATOM     18  N   UNL     1      44.575   2.036   9.258  0.00  0.00    +0.000 NA
ATOM     19  C   UNL     1      45.327   2.513   8.246  0.00  0.00    +0.000 A 
ATOM     20  C   UNL     1      45.776   3.820   8.120  0.00  0.00    +0.000 A 
ATOM     21  C   UNL     1      45.435   4.754   9.094  0.00  0.00    +0.000 A 
ATOM     22  C   UNL     1      44.644   4.289  10.149  0.00  0.00    +0.000 A 
ENDBRANCH  13  14
ENDBRANCH   4  13
TORSDOF 5
ENDMDL
MODEL 2
REMARK VINA RESULT:    -6.045      1.401      2.304
REMARK INTER + INTRA:          -8.607
REMARK INTER:                  -7.799
REMARK INTRA:                  -0.808
REMARK UNBOUND:                -0.795
REMARK  Name = 
REMARK  8 active torsions:
REMARK  status: ('A' for Active; 'I' for Inactive)
REMARK    1  A    between atoms: C_1  and  C_2
REMARK    2  A    between atoms: C_2  and  C_3
REMARK    3  A    between atoms: C_2  and  C_4
REMARK    4  A    between atoms: C_2  and  O_5
REMARK    5  A    between atoms: O_5  and  C_6
REMARK    6  A    between atoms: C_6  and  C_7
REMARK    7  A    between atoms: C_10  and  C_11
REMARK    8  A    between atoms: C_11  and  N_12
REMARK                            x       y       z     vdW  Elec       q    Type
REMARK                         _______ _______ _______ _____ _____    ______ ____
ROOT
ATOM      1  C   UNL     1      47.714   7.452  13.659  0.00  0.00    +0.000 A 
ATOM      2  C   UNL     1      47.421   6.095  13.468  0.00  0.00    +0.000 A 
ATOM      3  C   UNL     1      46.233   5.704  12.845  0.00  0.00    +0.000 A 
ATOM      4  C   UNL     1      45.313   6.664  12.397  0.00  0.00    +0.000 A 
ATOM      5  C   UNL     1      45.615   8.022  12.576  0.00  0.00    +0.000 A 
ATOM      6  C   UNL     1      46.801   8.411  13.200  0.00  0.00    +0.000 A 
ENDROOT
BRANCH   1   7
ATOM      7  C   UNL     1      48.944   7.870  14.423  0.00  0.00    +0.000 C 
BRANCH   7   8
ATOM      8  O   UNL     1      50.112   7.616  13.649  0.00  0.00    +0.000 OA
BRANCH   8  10
ATOM      9  C   UNL     1      50.310   9.062  11.674  0.00  0.00    +0.000 C 
ATOM     10  C   UNL     1      50.777   8.769  13.105  0.00  0.00    +0.000 C 
ATOM     11  C   UNL     1      52.303   8.624  13.164  0.00  0.00    +0.000 C 
ATOM     12  C   UNL     1      50.365   9.947  14.000  0.00  0.00    +0.000 C 
ENDBRANCH   8  10
ENDBRANCH   7   8
ENDBRANCH   1   7
BRANCH   4  13
ATOM     13  C   UNL     1      44.015   6.250  11.755  0.00  0.00    +0.000 C 
BRANCH  13  14
ATOM     14  N   UNL     1      44.011   4.837  11.388  0.00  0.00    +0.000 N 
ATOM     15  C   UNL     1      43.320   3.862  12.071  0.00  0.00    +0.000 A 
ATOM     16  C   UNL     1      43.458   2.677  11.383  0.00  0.00    +0.000 A 
ATOM     17  C   UNL     1      44.247   2.941  10.240  0.00  0.00    +0.000 A 
ATOM     18  N   UNL     1      44.625   2.085   9.261  0.00  0.00    +0.000 NA
ATOM     19  C   UNL     1      45.378   2.638   8.287  0.00  0.00    +0.000 A 
ATOM     20  C   UNL     1      45.781   3.964   8.234  0.00  0.00    +0.000 A 
ATOM     21  C   UNL     1      45.389   4.836   9.245  0.00  0.00    +0.000 A 
ATOM     22  C   UNL     1      44.596   4.292  10.261  0.00  0.00    +0.000 A 
ENDBRANCH  13  14
ENDBRANCH   4  13
TORSDOF 5
ENDMDL
MODEL 3
REMARK VINA RESULT:    -5.607      3.869      8.141
REMARK INTER + INTRA:          -8.040
REMARK INTER:                  -7.100
REMARK INTRA:                  -0.940
REMARK UNBOUND:                -0.795
REMARK  Name = 
REMARK  8 active torsions:
REMARK  status: ('A' for Active; 'I' for Inactive)
REMARK    1  A    between atoms: C_1  and  C_2
REMARK    2  A    between atoms: C_2  and  C_3
REMARK    3  A    between atoms: C_2  and  C_4
REMARK    4  A    between atoms: C_2  and  O_5
REMARK    5  A    between atoms: O_5  and  C_6
REMARK    6  A    between atoms: C_6  and  C_7
REMARK    7  A    between atoms: C_10  and  C_11
REMARK    8  A    between atoms: C_11  and  N_12
REMARK                            x       y       z     vdW  Elec       q    Type
REMARK                         _______ _______ _______ _____ _____    ______ ____
ROOT
ATOM      1  C   UNL     1      47.203   5.558  13.677  0.00  0.00    +0.000 A 
ATOM      2  C   UNL     1      48.083   6.472  14.271  0.00  0.00    +0.000 A 
ATOM      3  C   UNL     1      48.532   6.280  15.580  0.00  0.00    +0.000 A 
ATOM      4  C   UNL     1      48.112   5.165  16.322  0.00  0.00    +0.000 A 
ATOM      5  C   UNL     1      47.244   4.244  15.720  0.00  0.00    +0.000 A 
ATOM      6  C   UNL     1      46.794   4.438  14.413  0.00  0.00    +0.000 A 
ENDROOT
BRANCH   1   7
ATOM      7  C   UNL     1      46.638   5.820  12.305  0.00  0.00    +0.000 C 
BRANCH   7   8
ATOM      8  O   UNL     1      45.596   4.892  12.018  0.00  0.00    +0.000 OA
BRANCH   8  10
ATOM      9  C   UNL     1      43.650   4.752  10.525  0.00  0.00    +0.000 C 
ATOM     10  C   UNL     1      44.307   5.457  11.718  0.00  0.00    +0.000 C 
ATOM     11  C   UNL     1      44.393   6.970  11.482  0.00  0.00    +0.000 C 
ATOM     12  C   UNL     1      43.445   5.207  12.965  0.00  0.00    +0.000 C 
ENDBRANCH   8  10
ENDBRANCH   7   8
ENDBRANCH   1   7
BRANCH   4  13
ATOM     13  C   UNL     1      48.566   4.968  17.745  0.00  0.00    +0.000 C 
BRANCH  13  14
ATOM     14  N   UNL     1      50.013   4.799  17.841  0.00  0.00    +0.000 N 
ATOM     15  C   UNL     1      50.887   5.800  18.201  0.00  0.00    +0.000 A 
ATOM     16  C   UNL     1      52.148   5.255  18.290  0.00  0.00    +0.000 A 
ATOM     17  C   UNL     1      52.037   3.879  17.987  0.00  0.00    +0.000 A 
ATOM     18  N   UNL     1      53.011   2.937  17.970  0.00  0.00    +0.000 NA
ATOM     19  C   UNL     1      52.592   1.696  17.647  0.00  0.00    +0.000 A 
ATOM     20  C   UNL     1      51.288   1.341  17.332  0.00  0.00    +0.000 A 
ATOM     21  C   UNL     1      50.294   2.315  17.351  0.00  0.00    +0.000 A 
ATOM     22  C   UNL     1      50.699   3.609  17.696  0.00  0.00    +0.000 A 
ENDBRANCH  13  14
ENDBRANCH   4  13
TORSDOF 5
ENDMDL
MODEL 4
REMARK VINA RESULT:    -5.556      2.832      3.553
REMARK INTER + INTRA:          -7.975
REMARK INTER:                  -7.313
REMARK INTRA:                  -0.662
REMARK UNBOUND:                -0.795
REMARK  Name = 
REMARK  8 active torsions:
REMARK  status: ('A' for Active; 'I' for Inactive)
REMARK    1  A    between atoms: C_1  and  C_2
REMARK    2  A    between atoms: C_2  and  C_3
REMARK    3  A    between atoms: C_2  and  C_4
REMARK    4  A    between atoms: C_2  and  O_5
REMARK    5  A    between atoms: O_5  and  C_6
REMARK    6  A    between atoms: C_6  and  C_7
REMARK    7  A    between atoms: C_10  and  C_11
REMARK    8  A    between atoms: C_11  and  N_12
REMARK                            x       y       z     vdW  Elec       q    Type
REMARK                         _______ _______ _______ _____ _____    ______ ____
ROOT
ATOM      1  C   UNL     1      49.117   7.977  12.264  0.00  0.00    +0.000 A 
ATOM      2  C   UNL     1      48.831   6.698  12.758  0.00  0.00    +0.000 A 
ATOM      3  C   UNL     1      47.508   6.266  12.891  0.00  0.00    +0.000 A 
ATOM      4  C   UNL     1      46.444   7.105  12.528  0.00  0.00    +0.000 A 
ATOM      5  C   UNL     1      46.734   8.379  12.019  0.00  0.00    +0.000 A 
ATOM      6  C   UNL     1      48.055   8.810  11.890  0.00  0.00    +0.000 A 
ENDROOT
BRANCH   1   7
ATOM      7  C   UNL     1      50.537   8.481  12.220  0.00  0.00    +0.000 C 
BRANCH   7   8
ATOM      8  O   UNL     1      51.031   8.443  10.885  0.00  0.00    +0.000 OA
BRANCH   8  10
ATOM      9  C   UNL     1      53.154   8.236  12.101  0.00  0.00    +0.000 C 
ATOM     10  C   UNL     1      52.455   8.307  10.738  0.00  0.00    +0.000 C 
ATOM     11  C   UNL     1      53.046   9.430   9.876  0.00  0.00    +0.000 C 
ATOM     12  C   UNL     1      52.671   6.970  10.012  0.00  0.00    +0.000 C 
ENDBRANCH   8  10
ENDBRANCH   7   8
ENDBRANCH   1   7
BRANCH   4  13
ATOM     13  C   UNL     1      45.015   6.659  12.698  0.00  0.00    +0.000 C 
BRANCH  13  14
ATOM     14  N   UNL     1      44.813   5.284  12.250  0.00  0.00    +0.000 N 
ATOM     15  C   UNL     1      44.266   4.290  13.029  0.00  0.00    +0.000 A 
ATOM     16  C   UNL     1      44.129   3.163  12.250  0.00  0.00    +0.000 A 
ATOM     17  C   UNL     1      44.596   3.484  10.955  0.00  0.00    +0.000 A 
ATOM     18  N   UNL     1      44.634   2.697   9.852  0.00  0.00    +0.000 NA
ATOM     19  C   UNL     1      45.132   3.294   8.750  0.00  0.00    +0.000 A 
ATOM     20  C   UNL     1      45.598   4.599   8.679  0.00  0.00    +0.000 A 
ATOM     21  C   UNL     1      45.556   5.399   9.817  0.00  0.00    +0.000 A 
ATOM     22  C   UNL     1      45.032   4.810  10.972  0.00  0.00    +0.000 A 
ENDBRANCH  13  14
ENDBRANCH   4  13
TORSDOF 5
ENDMDL
MODEL 5
REMARK VINA RESULT:    -5.325      1.493      2.154
REMARK INTER + INTRA:          -7.676
REMARK INTER:                  -7.734
REMARK INTRA:                   0.058
REMARK UNBOUND:                -0.795
REMARK  Name = 
REMARK  8 active torsions:
REMARK  status: ('A' for Active; 'I' for Inactive)
REMARK    1  A    between atoms: C_1  and  C_2
REMARK    2  A    between atoms: C_2  and  C_3
REMARK    3  A    between atoms: C_2  and  C_4
REMARK    4  A    between atoms: C_2  and  O_5
REMARK    5  A    between atoms: O_5  and  C_6
REMARK    6  A    between atoms: C_6  and  C_7
REMARK    7  A    between atoms: C_10  and  C_11
REMARK    8  A    between atoms: C_11  and  N_12
REMARK                            x       y       z     vdW  Elec       q    Type
REMARK                         _______ _______ _______ _____ _____    ______ ____
ROOT
ATOM      1  C   UNL     1      48.251   5.756  15.592  0.00  0.00    +0.000 A 
ATOM      2  C   UNL     1      47.299   4.767  15.311  0.00  0.00    +0.000 A 
ATOM      3  C   UNL     1      46.451   4.890  14.207  0.00  0.00    +0.000 A 
ATOM      4  C   UNL     1      46.540   6.003  13.359  0.00  0.00    +0.000 A 
ATOM      5  C   UNL     1      47.503   6.984  13.634  0.00  0.00    +0.000 A 
ATOM      6  C   UNL     1      48.348   6.863  14.738  0.00  0.00    +0.000 A 
ENDROOT
BRANCH   1   7
ATOM      7  C   UNL     1      49.094   5.676  16.839  0.00  0.00    +0.000 C 
BRANCH   7   8
ATOM      8  O   UNL     1      49.662   4.376  16.966  0.00  0.00    +0.000 OA
BRANCH   8  10
ATOM      9  C   UNL     1      50.632   4.578  19.213  0.00  0.00    +0.000 C 
ATOM     10  C   UNL     1      50.879   4.287  17.728  0.00  0.00    +0.000 C 
ATOM     11  C   UNL     1      51.970   5.205  17.163  0.00  0.00    +0.000 C 
ATOM     12  C   UNL     1      51.347   2.830  17.590  0.00  0.00    +0.000 C 
ENDBRANCH   8  10
ENDBRANCH   7   8
ENDBRANCH   1   7
BRANCH   4  13
ATOM     13  C   UNL     1      45.607   6.158  12.187  0.00  0.00    +0.000 C 
BRANCH  13  14
ATOM     14  N   UNL     1      45.034   4.882  11.769  0.00  0.00    +0.000 N 
ATOM     15  C   UNL     1      44.272   4.073  12.583  0.00  0.00    +0.000 A 
ATOM     16  C   UNL     1      43.815   3.016  11.828  0.00  0.00    +0.000 A 
ATOM     17  C   UNL     1      44.304   3.192  10.513  0.00  0.00    +0.000 A 
ATOM     18  N   UNL     1      44.094   2.414   9.424  0.00  0.00    +0.000 NA
ATOM     19  C   UNL     1      44.693   2.850   8.296  0.00  0.00    +0.000 A 
ATOM     20  C   UNL     1      45.483   3.984   8.188  0.00  0.00    +0.000 A 
ATOM     21  C   UNL     1      45.694   4.777   9.312  0.00  0.00    +0.000 A 
ATOM     22  C   UNL     1      45.074   4.356  10.493  0.00  0.00    +0.000 A 
ENDBRANCH  13  14
ENDBRANCH   4  13
TORSDOF 5
ENDMDL
MODEL 6
REMARK VINA RESULT:    -5.294      3.230      7.709
REMARK INTER + INTRA:          -7.636
REMARK INTER:                  -6.664
REMARK INTRA:                  -0.972
REMARK UNBOUND:                -0.795
REMARK  Name = 
REMARK  8 active torsions:
REMARK  status: ('A' for Active; 'I' for Inactive)
REMARK    1  A    between atoms: C_1  and  C_2
REMARK    2  A    between atoms: C_2  and  C_3
REMARK    3  A    between atoms: C_2  and  C_4
REMARK    4  A    between atoms: C_2  and  O_5
REMARK    5  A    between atoms: O_5  and  C_6
REMARK    6  A    between atoms: C_6  and  C_7
REMARK    7  A    between atoms: C_10  and  C_11
REMARK    8  A    between atoms: C_11  and  N_12
REMARK                            x       y       z     vdW  Elec       q    Type
REMARK                         _______ _______ _______ _____ _____    ______ ____
ROOT
ATOM      1  C   UNL     1      46.170   6.975  12.455  0.00  0.00    +0.000 A 
ATOM      2  C   UNL     1      47.033   5.970  12.912  0.00  0.00    +0.000 A 
ATOM      3  C   UNL     1      48.035   6.261  13.840  0.00  0.00    +0.000 A 
ATOM      4  C   UNL     1      48.192   7.564  14.335  0.00  0.00    +0.000 A 
ATOM      5  C   UNL     1      47.317   8.565  13.889  0.00  0.00    +0.000 A 
ATOM      6  C   UNL     1      46.319   8.274  12.959  0.00  0.00    +0.000 A 
ENDROOT
BRANCH   1   7
ATOM      7  C   UNL     1      45.158   6.684  11.376  0.00  0.00    +0.000 C 
BRANCH   7   8
ATOM      8  O   UNL     1      45.540   5.523  10.645  0.00  0.00    +0.000 OA
BRANCH   8  10
ATOM      9  C   UNL     1      44.877   3.302  11.456  0.00  0.00    +0.000 C 
ATOM     10  C   UNL     1      44.549   4.486  10.538  0.00  0.00    +0.000 C 
ATOM     11  C   UNL     1      44.369   4.022   9.087  0.00  0.00    +0.000 C 
ATOM     12  C   UNL     1      43.233   5.119  11.015  0.00  0.00    +0.000 C 
ENDBRANCH   8  10
ENDBRANCH   7   8
ENDBRANCH   1   7
BRANCH   4  13
ATOM     13  C   UNL     1      49.291   7.893  15.313  0.00  0.00    +0.000 C 
BRANCH  13  14
ATOM     14  N   UNL     1      48.871   7.697  16.697  0.00  0.00    +0.000 N 
ATOM     15  C   UNL     1      48.269   8.667  17.467  0.00  0.00    +0.000 A 
ATOM     16  C   UNL     1      47.916   8.099  18.671  0.00  0.00    +0.000 A 
ATOM     17  C   UNL     1      48.304   6.741  18.628  0.00  0.00    +0.000 A 
ATOM     18  N   UNL     1      48.140   5.786  19.576  0.00  0.00    +0.000 NA
ATOM     19  C   UNL     1      48.612   4.568  19.238  0.00  0.00    +0.000 A 
ATOM     20  C   UNL     1      49.237   4.248  18.042  0.00  0.00    +0.000 A 
ATOM     21  C   UNL     1      49.403   5.235  17.075  0.00  0.00    +0.000 A 
ATOM     22  C   UNL     1      48.910   6.505  17.393  0.00  0.00    +0.000 A 
ENDBRANCH  13  14
ENDBRANCH   4  13
TORSDOF 5
ENDMDL
MODEL 7
REMARK VINA RESULT:    -5.285      2.060      2.674
REMARK INTER + INTRA:          -7.624
REMARK INTER:                  -6.857
REMARK INTRA:                  -0.767
REMARK UNBOUND:                -0.795
REMARK  Name = 
REMARK  8 active torsions:
REMARK  status: ('A' for Active; 'I' for Inactive)
REMARK    1  A    between atoms: C_1  and  C_2
REMARK    2  A    between atoms: C_2  and  C_3
REMARK    3  A    between atoms: C_2  and  C_4
REMARK    4  A    between atoms: C_2  and  O_5
REMARK    5  A    between atoms: O_5  and  C_6
REMARK    6  A    between atoms: C_6  and  C_7
REMARK    7  A    between atoms: C_10  and  C_11
REMARK    8  A    between atoms: C_11  and  N_12
REMARK                            x       y       z     vdW  Elec       q    Type
REMARK                         _______ _______ _______ _____ _____    ______ ____
ROOT
ATOM      1  C   UNL     1      49.170   7.825  12.338  0.00  0.00    +0.000 A 
ATOM      2  C   UNL     1      48.839   6.596  12.924  0.00  0.00    +0.000 A 
ATOM      3  C   UNL     1      47.504   6.202  13.044  0.00  0.00    +0.000 A 
ATOM      4  C   UNL     1      46.471   7.028  12.576  0.00  0.00    +0.000 A 
ATOM      5  C   UNL     1      46.806   8.250  11.975  0.00  0.00    +0.000 A 
ATOM      6  C   UNL     1      48.139   8.644  11.859  0.00  0.00    +0.000 A 
ENDROOT
BRANCH   1   7
ATOM      7  C   UNL     1      50.601   8.297  12.304  0.00  0.00    +0.000 C 
BRANCH   7   8
ATOM      8  O   UNL     1      51.144   8.314  13.621  0.00  0.00    +0.000 OA
BRANCH   8  10
ATOM      9  C   UNL     1      51.161  10.738  13.225  0.00  0.00    +0.000 C 
ATOM     10  C   UNL     1      51.685   9.569  14.068  0.00  0.00    +0.000 C 
ATOM     11  C   UNL     1      53.219   9.550  14.086  0.00  0.00    +0.000 C 
ATOM     12  C   UNL     1      51.183   9.747  15.509  0.00  0.00    +0.000 C 
ENDBRANCH   8  10
ENDBRANCH   7   8
ENDBRANCH   1   7
BRANCH   4  13
ATOM     13  C   UNL     1      45.028   6.624  12.730  0.00  0.00    +0.000 C 
BRANCH  13  14
ATOM     14  N   UNL     1      44.784   5.266  12.255  0.00  0.00    +0.000 N 
ATOM     15  C   UNL     1      44.187   4.279  13.007  0.00  0.00    +0.000 A 
ATOM     16  C   UNL     1      44.024   3.171  12.206  0.00  0.00    +0.000 A 
ATOM     17  C   UNL     1      44.527   3.496  10.925  0.00  0.00    +0.000 A 
ATOM     18  N   UNL     1      44.558   2.727   9.810  0.00  0.00    +0.000 NA
ATOM     19  C   UNL     1      45.098   3.324   8.728  0.00  0.00    +0.000 A 
ATOM     20  C   UNL     1      45.612   4.611   8.688  0.00  0.00    +0.000 A 
ATOM     21  C   UNL     1      45.578   5.394   9.838  0.00  0.00    +0.000 A 
ATOM     22  C   UNL     1      45.010   4.805  10.973  0.00  0.00    +0.000 A 
ENDBRANCH  13  14
ENDBRANCH   4  13
TORSDOF 5
ENDMDL
MODEL 8
REMARK VINA RESULT:    -5.038      1.224      2.538
REMARK INTER + INTRA:          -7.305
REMARK INTER:                  -6.606
REMARK INTRA:                  -0.699
REMARK UNBOUND:                -0.795
REMARK  Name = 
REMARK  8 active torsions:
REMARK  status: ('A' for Active; 'I' for Inactive)
REMARK    1  A    between atoms: C_1  and  C_2
REMARK    2  A    between atoms: C_2  and  C_3
REMARK    3  A    between atoms: C_2  and  C_4
REMARK    4  A    between atoms: C_2  and  O_5
REMARK    5  A    between atoms: O_5  and  C_6
REMARK    6  A    between atoms: C_6  and  C_7
REMARK    7  A    between atoms: C_10  and  C_11
REMARK    8  A    between atoms: C_11  and  N_12
REMARK                            x       y       z     vdW  Elec       q    Type
REMARK                         _______ _______ _______ _____ _____    ______ ____
ROOT
ATOM      1  C   UNL     1      48.670   7.474  14.527  0.00  0.00    +0.000 A 
ATOM      2  C   UNL     1      48.053   6.286  14.113  0.00  0.00    +0.000 A 
ATOM      3  C   UNL     1      46.992   6.314  13.204  0.00  0.00    +0.000 A 
ATOM      4  C   UNL     1      46.529   7.532  12.686  0.00  0.00    +0.000 A 
ATOM      5  C   UNL     1      47.158   8.719  13.089  0.00  0.00    +0.000 A 
ATOM      6  C   UNL     1      48.215   8.690  13.999  0.00  0.00    +0.000 A 
ENDROOT
BRANCH   1   7
ATOM      7  C   UNL     1      49.742   7.452  15.585  0.00  0.00    +0.000 C 
BRANCH   7   8
ATOM      8  O   UNL     1      50.131   6.111  15.863  0.00  0.00    +0.000 OA
BRANCH   8  10
ATOM      9  C   UNL     1      49.497   6.817  18.128  0.00  0.00    +0.000 C 
ATOM     10  C   UNL     1      50.007   5.683  17.231  0.00  0.00    +0.000 C 
ATOM     11  C   UNL     1      51.324   5.108  17.767  0.00  0.00    +0.000 C 
ATOM     12  C   UNL     1      48.955   4.563  17.220  0.00  0.00    +0.000 C 
ENDBRANCH   8  10
ENDBRANCH   7   8
ENDBRANCH   1   7
BRANCH   4  13
ATOM     13  C   UNL     1      45.365   7.573  11.730  0.00  0.00    +0.000 C 
BRANCH  13  14
ATOM     14  N   UNL     1      45.164   6.294  11.056  0.00  0.00    +0.000 N 
ATOM     15  C   UNL     1      45.752   5.948   9.860  0.00  0.00    +0.000 A 
ATOM     16  C   UNL     1      45.425   4.639   9.585  0.00  0.00    +0.000 A 
ATOM     17  C   UNL     1      44.623   4.170  10.650  0.00  0.00    +0.000 A 
ATOM     18  N   UNL     1      44.086   2.938  10.824  0.00  0.00    +0.000 NA
ATOM     19  C   UNL     1      43.367   2.790  11.956  0.00  0.00    +0.000 A 
ATOM     20  C   UNL     1      43.141   3.777  12.904  0.00  0.00    +0.000 A 
ATOM     21  C   UNL     1      43.695   5.040  12.717  0.00  0.00    +0.000 A 
ATOM     22  C   UNL     1      44.457   5.218  11.557  0.00  0.00    +0.000 A 
ENDBRANCH  13  14
ENDBRANCH   4  13
TORSDOF 5
ENDMDL
MODEL 9
REMARK VINA RESULT:    -4.901      3.729      4.958
REMARK INTER + INTRA:          -7.128
REMARK INTER:                  -6.558
REMARK INTRA:                  -0.570
REMARK UNBOUND:                -0.795
REMARK  Name = 
REMARK  8 active torsions:
REMARK  status: ('A' for Active; 'I' for Inactive)
REMARK    1  A    between atoms: C_1  and  C_2
REMARK    2  A    between atoms: C_2  and  C_3
REMARK    3  A    between atoms: C_2  and  C_4
REMARK    4  A    between atoms: C_2  and  O_5
REMARK    5  A    between atoms: O_5  and  C_6
REMARK    6  A    between atoms: C_6  and  C_7
REMARK    7  A    between atoms: C_10  and  C_11
REMARK    8  A    between atoms: C_11  and  N_12
REMARK                            x       y       z     vdW  Elec       q    Type
REMARK                         _______ _______ _______ _____ _____    ______ ____
ROOT
ATOM      1  C   UNL     1      50.316   9.077  11.625  0.00  0.00    +0.000 A 
ATOM      2  C   UNL     1      49.369   9.968  12.146  0.00  0.00    +0.000 A 
ATOM      3  C   UNL     1      48.060   9.547  12.398  0.00  0.00    +0.000 A 
ATOM      4  C   UNL     1      47.673   8.224  12.138  0.00  0.00    +0.000 A 
ATOM      5  C   UNL     1      48.627   7.330  11.631  0.00  0.00    +0.000 A 
ATOM      6  C   UNL     1      49.933   7.752  11.376  0.00  0.00    +0.000 A 
ENDROOT
BRANCH   1   7
ATOM      7  C   UNL     1      51.696   9.556  11.254  0.00  0.00    +0.000 C 
BRANCH   7   8
ATOM      8  O   UNL     1      52.015   9.155   9.925  0.00  0.00    +0.000 OA
BRANCH   8  10
ATOM      9  C   UNL     1      53.889   8.106  11.118  0.00  0.00    +0.000 C 
ATOM     10  C   UNL     1      53.222   8.387   9.767  0.00  0.00    +0.000 C 
ATOM     11  C   UNL     1      54.202   9.066   8.802  0.00  0.00    +0.000 C 
ATOM     12  C   UNL     1      52.784   7.048   9.154  0.00  0.00    +0.000 C 
ENDBRANCH   8  10
ENDBRANCH   7   8
ENDBRANCH   1   7
BRANCH   4  13
ATOM     13  C   UNL     1      46.256   7.772  12.377  0.00  0.00    +0.000 C 
BRANCH  13  14
ATOM     14  N   UNL     1      46.182   6.350  12.700  0.00  0.00    +0.000 N 
ATOM     15  C   UNL     1      46.853   5.759  13.747  0.00  0.00    +0.000 A 
ATOM     16  C   UNL     1      46.463   4.440  13.814  0.00  0.00    +0.000 A 
ATOM     17  C   UNL     1      45.518   4.225  12.785  0.00  0.00    +0.000 A 
ATOM     18  N   UNL     1      44.846   3.088  12.481  0.00  0.00    +0.000 NA
ATOM     19  C   UNL     1      43.996   3.197  11.439  0.00  0.00    +0.000 A 
ATOM     20  C   UNL     1      43.786   4.341  10.685  0.00  0.00    +0.000 A 
ATOM     21  C   UNL     1      44.482   5.504  11.003  0.00  0.00    +0.000 A 
ATOM     22  C   UNL     1      45.360   5.424  12.089  0.00  0.00    +0.000 A 
ENDBRANCH  13  14
ENDBRANCH   4  13
TORSDOF 5
ENDMDL
