MODEL 1
REMARK VINA RESULT:    -8.224      0.000      0.000
REMARK INTER + INTRA:         -11.758
REMARK INTER:                 -11.109
REMARK INTRA:                  -0.649
REMARK UNBOUND:                -0.649
REMARK  Name = 
REMARK  6 active torsions:
REMARK  status: ('A' for Active; 'I' for Inactive)
REMARK    1  A    between atoms: C_2  and  C_18
REMARK    2  A    between atoms: N_3  and  C_4
REMARK    3  A    between atoms: C_4  and  C_5
REMARK    4  A    between atoms: C_8  and  O_9
REMARK    5  A    between atoms: O_9  and  C_10
REMARK    6  A    between atoms: C_10  and  C_11
REMARK                            x       y       z     vdW  Elec       q    Type
REMARK                         _______ _______ _______ _____ _____    ______ ____
ROOT
ATOM      1  O   UNL     1      47.004   3.231  13.847  0.00  0.00    +0.000 OA
ATOM      2  C   UNL     1      46.672   4.314  14.317  0.00  0.00    +0.000 C 
ATOM      3  N   UNL     1      45.414   4.843  14.134  0.00  0.00    +0.000 N 
ATOM      4  H   UNL     1      45.255   5.821  14.354  0.00  0.00    +0.000 HD
ENDROOT
BRANCH   2   5
ATOM      5  C   UNL     1      47.583   5.103  15.152  0.00  0.00    +0.000 A 
ATOM      6  C   UNL     1      48.289   6.172  14.618  0.00  0.00    +0.000 A 
ATOM      7  S   UNL     1      49.299   6.951  15.757  0.00  0.00    +0.000 S 
ATOM      8  C   UNL     1      48.789   5.911  17.005  0.00  0.00    +0.000 A 
ATOM      9  N   UNL     1      49.258   6.045  18.275  0.00  0.00    +0.000 NA
ATOM     10  C   UNL     1      48.754   5.209  19.118  0.00  0.00    +0.000 A 
ATOM     11  N   UNL     1      47.828   4.245  18.813  0.00  0.00    +0.000 N 
ATOM     12  C   UNL     1      47.366   4.035  17.534  0.00  0.00    +0.000 A 
ATOM     13  O   UNL     1      46.614   3.098  17.287  0.00  0.00    +0.000 OA
ATOM     14  C   UNL     1      47.882   4.970  16.555  0.00  0.00    +0.000 A 
ATOM     15  H   UNL     1      47.496   3.600  19.514  0.00  0.00    +0.000 HD
ENDBRANCH   2   5
BRANCH   3  16
ATOM     16  C   UNL     1      44.475   4.202  13.252  0.00  0.00    +0.000 C 
BRANCH  16  17
ATOM     17  C   UNL     1      44.865   4.289  11.804  0.00  0.00    +0.000 A 
ATOM     18  C   UNL     1      45.480   5.425  11.273  0.00  0.00    +0.000 A 
ATOM     19  C   UNL     1      45.710   5.511   9.898  0.00  0.00    +0.000 A 
ATOM     20  C   UNL     1      45.342   4.441   9.097  0.00  0.00    +0.000 A 
ATOM     21  N   UNL     1      44.800   3.306   9.585  0.00  0.00    +0.000 NA
ATOM     22  C   UNL     1      44.573   3.258  10.918  0.00  0.00    +0.000 A 
BRANCH  20  23
ATOM     23  O   UNL     1      45.530   4.575   7.734  0.00  0.00    +0.000 OA
BRANCH  23  24
ATOM     24  C   UNL     1      46.781   4.030   7.290  0.00  0.00    +0.000 C 
BRANCH  24  25
ATOM     25  C   UNL     1      46.514   2.907   6.274  0.00  0.00    +0.000 C 
ATOM     26  C   UNL     1      46.211   1.577   6.938  0.00  0.00    +0.000 C 
ATOM     27  C   UNL     1      47.596   1.096   7.322  0.00  0.00    +0.000 C 
ATOM     28  O   UNL     1      48.485   1.584   6.303  0.00  0.00    +0.000 OA
ATOM     29  C   UNL     1      47.772   2.542   5.502  0.00  0.00    +0.000 C 
ENDBRANCH  24  25
ENDBRANCH  23  24
ENDBRANCH  20  23
ENDBRANCH  16  17
ENDBRANCH   3  16
TORSDOF 6
ENDMDL
MODEL 2
REMARK VINA RESULT:    -7.395      1.851      2.663
REMARK INTER + INTRA:         -10.637
REMARK INTER:                  -9.637
REMARK INTRA:                  -1.001
REMARK UNBOUND:                -0.649
REMARK  Name = 
REMARK  6 active torsions:
REMARK  status: ('A' for Active; 'I' for Inactive)
REMARK    1  A    between atoms: C_2  and  C_18
REMARK    2  A    between atoms: N_3  and  C_4
REMARK    3  A    between atoms: C_4  and  C_5
REMARK    4  A    between atoms: C_8  and  O_9
REMARK    5  A    between atoms: O_9  and  C_10
REMARK    6  A    between atoms: C_10  and  C_11
REMARK                            x       y       z     vdW  Elec       q    Type
REMARK                         _______ _______ _______ _____ _____    ______ ____
ROOT
ATOM      1  O   UNL     1      48.854   6.210  13.320  0.00  0.00    +0.000 OA
ATOM      2  C   UNL     1      48.319   6.654  14.330  0.00  0.00    +0.000 C 
ATOM      3  N   UNL     1      47.224   7.488  14.279  0.00  0.00    +0.000 N 
ATOM      4  H   UNL     1      46.952   7.995  15.115  0.00  0.00    +0.000 HD
ENDROOT
BRANCH   2   5
ATOM      5  C   UNL     1      48.781   6.287  15.671  0.00  0.00    +0.000 A 
ATOM      6  C   UNL     1      49.697   7.079  16.349  0.00  0.00    +0.000 A 
ATOM      7  S   UNL     1      50.108   6.469  17.893  0.00  0.00    +0.000 S 
ATOM      8  C   UNL     1      49.042   5.153  17.718  0.00  0.00    +0.000 A 
ATOM      9  N   UNL     1      48.885   4.231  18.707  0.00  0.00    +0.000 NA
ATOM     10  C   UNL     1      48.018   3.314  18.446  0.00  0.00    +0.000 A 
ATOM     11  N   UNL     1      47.293   3.223  17.285  0.00  0.00    +0.000 N 
ATOM     12  C   UNL     1      47.456   4.098  16.235  0.00  0.00    +0.000 A 
ATOM     13  O   UNL     1      46.861   3.923  15.177  0.00  0.00    +0.000 OA
ATOM     14  C   UNL     1      48.401   5.165  16.493  0.00  0.00    +0.000 A 
ATOM     15  H   UNL     1      46.651   2.461  17.129  0.00  0.00    +0.000 HD
ENDBRANCH   2   5
BRANCH   3  16
ATOM     16  C   UNL     1      46.750   7.992  13.017  0.00  0.00    +0.000 C 
BRANCH  16  17
ATOM     17  C   UNL     1      45.949   6.988  12.238  0.00  0.00    +0.000 A 
ATOM     18  C   UNL     1      44.834   6.350  12.785  0.00  0.00    +0.000 A 
ATOM     19  C   UNL     1      44.196   5.332  12.071  0.00  0.00    +0.000 A 
ATOM     20  C   UNL     1      44.679   5.005  10.814  0.00  0.00    +0.000 A 
ATOM     21  N   UNL     1      45.716   5.640  10.232  0.00  0.00    +0.000 NA
ATOM     22  C   UNL     1      46.325   6.609  10.954  0.00  0.00    +0.000 A 
BRANCH  20  23
ATOM     23  O   UNL     1      44.064   3.958  10.152  0.00  0.00    +0.000 OA
BRANCH  23  24
ATOM     24  C   UNL     1      44.928   2.826   9.979  0.00  0.00    +0.000 C 
BRANCH  24  25
ATOM     25  C   UNL     1      44.820   2.323   8.530  0.00  0.00    +0.000 C 
ATOM     26  C   UNL     1      46.126   1.753   8.009  0.00  0.00    +0.000 C 
ATOM     27  C   UNL     1      46.903   3.008   7.667  0.00  0.00    +0.000 C 
ATOM     28  O   UNL     1      45.930   3.973   7.233  0.00  0.00    +0.000 OA
ATOM     29  C   UNL     1      44.620   3.472   7.553  0.00  0.00    +0.000 C 
ENDBRANCH  24  25
ENDBRANCH  23  24
ENDBRANCH  20  23
ENDBRANCH  16  17
ENDBRANCH   3  16
TORSDOF 6
ENDMDL
MODEL 3
REMARK VINA RESULT:    -7.310      2.187      3.348
REMARK INTER + INTRA:         -10.523
REMARK INTER:                  -9.419
REMARK INTRA:                  -1.103
REMARK UNBOUND:                -0.649
REMARK  Name = 
REMARK  6 active torsions:
REMARK  status: ('A' for Active; 'I' for Inactive)
REMARK    1  A    between atoms: C_2  and  C_18
REMARK    2  A    between atoms: N_3  and  C_4
REMARK    3  A    between atoms: C_4  and  C_5
REMARK    4  A    between atoms: C_8  and  O_9
REMARK    5  A    between atoms: O_9  and  C_10
REMARK    6  A    between atoms: C_10  and  C_11
REMARK                            x       y       z     vdW  Elec       q    Type
REMARK                         _______ _______ _______ _____ _____    ______ ____
ROOT
ATOM      1  O   UNL     1      46.628   4.068  14.518  0.00  0.00    +0.000 OA
ATOM      2  C   UNL     1      46.738   5.254  14.225  0.00  0.00    +0.000 C 
ATOM      3  N   UNL     1      45.726   5.960  13.614  0.00  0.00    +0.000 N 
ATOM      4  H   UNL     1      45.935   6.863  13.202  0.00  0.00    +0.000 HD
ENDROOT
BRANCH   2   5
ATOM      5  C   UNL     1      47.945   6.019  14.550  0.00  0.00    +0.000 A 
ATOM      6  C   UNL     1      48.500   5.965  15.822  0.00  0.00    +0.000 A 
ATOM      7  S   UNL     1      49.896   6.937  15.992  0.00  0.00    +0.000 S 
ATOM      8  C   UNL     1      49.825   7.423  14.362  0.00  0.00    +0.000 A 
ATOM      9  N   UNL     1      50.760   8.257  13.830  0.00  0.00    +0.000 NA
ATOM     10  C   UNL     1      50.596   8.508  12.575  0.00  0.00    +0.000 A 
ATOM     11  N   UNL     1      49.582   8.008  11.799  0.00  0.00    +0.000 N 
ATOM     12  C   UNL     1      48.584   7.206  12.304  0.00  0.00    +0.000 A 
ATOM     13  O   UNL     1      47.641   6.862  11.598  0.00  0.00    +0.000 OA
ATOM     14  C   UNL     1      48.741   6.873  13.705  0.00  0.00    +0.000 A 
ATOM     15  H   UNL     1      49.491   8.267  10.828  0.00  0.00    +0.000 HD
ENDBRANCH   2   5
BRANCH   3  16
ATOM     16  C   UNL     1      44.539   5.286  13.160  0.00  0.00    +0.000 C 
BRANCH  16  17
ATOM     17  C   UNL     1      44.714   4.596  11.837  0.00  0.00    +0.000 A 
ATOM     18  C   UNL     1      44.825   5.312  10.642  0.00  0.00    +0.000 A 
ATOM     19  C   UNL     1      44.860   4.628   9.424  0.00  0.00    +0.000 A 
ATOM     20  C   UNL     1      44.813   3.243   9.442  0.00  0.00    +0.000 A 
ATOM     21  N   UNL     1      44.765   2.520  10.579  0.00  0.00    +0.000 NA
ATOM     22  C   UNL     1      44.715   3.209  11.743  0.00  0.00    +0.000 A 
BRANCH  20  23
ATOM     23  O   UNL     1      44.794   2.594   8.221  0.00  0.00    +0.000 OA
BRANCH  23  24
ATOM     24  C   UNL     1      45.974   1.811   7.990  0.00  0.00    +0.000 C 
BRANCH  24  25
ATOM     25  C   UNL     1      47.103   2.730   7.492  0.00  0.00    +0.000 C 
ATOM     26  C   UNL     1      46.710   3.526   6.262  0.00  0.00    +0.000 C 
ATOM     27  C   UNL     1      46.866   2.498   5.160  0.00  0.00    +0.000 C 
ATOM     28  O   UNL     1      47.954   1.647   5.557  0.00  0.00    +0.000 OA
ATOM     29  C   UNL     1      48.268   1.928   6.933  0.00  0.00    +0.000 C 
ENDBRANCH  24  25
ENDBRANCH  23  24
ENDBRANCH  20  23
ENDBRANCH  16  17
ENDBRANCH   3  16
TORSDOF 6
ENDMDL
MODEL 4
REMARK VINA RESULT:    -7.254      1.876      2.353
REMARK INTER + INTRA:         -10.447
REMARK INTER:                  -9.849
REMARK INTRA:                  -0.598
REMARK UNBOUND:                -0.649
REMARK  Name = 
REMARK  6 active torsions:
REMARK  status: ('A' for Active; 'I' for Inactive)
REMARK    1  A    between atoms: C_2  and  C_18
REMARK    2  A    between atoms: N_3  and  C_4
REMARK    3  A    between atoms: C_4  and  C_5
REMARK    4  A    between atoms: C_8  and  O_9
REMARK    5  A    between atoms: O_9  and  C_10
REMARK    6  A    between atoms: C_10  and  C_11
REMARK                            x       y       z     vdW  Elec       q    Type
REMARK                         _______ _______ _______ _____ _____    ______ ____
ROOT
ATOM      1  O   UNL     1      48.544   5.971  13.990  0.00  0.00    +0.000 OA
ATOM      2  C   UNL     1      47.616   5.523  14.655  0.00  0.00    +0.000 C 
ATOM      3  N   UNL     1      46.314   5.533  14.205  0.00  0.00    +0.000 N 
ATOM      4  H   UNL     1      45.564   5.353  14.865  0.00  0.00    +0.000 HD
ENDROOT
BRANCH   2   5
ATOM      5  C   UNL     1      47.836   4.899  15.963  0.00  0.00    +0.000 A 
ATOM      6  C   UNL     1      47.579   3.549  16.159  0.00  0.00    +0.000 A 
ATOM      7  S   UNL     1      47.894   3.025  17.755  0.00  0.00    +0.000 S 
ATOM      8  C   UNL     1      48.423   4.575  18.220  0.00  0.00    +0.000 A 
ATOM      9  N   UNL     1      48.866   4.824  19.482  0.00  0.00    +0.000 NA
ATOM     10  C   UNL     1      49.267   6.034  19.675  0.00  0.00    +0.000 A 
ATOM     11  N   UNL     1      49.263   7.026  18.727  0.00  0.00    +0.000 N 
ATOM     12  C   UNL     1      48.775   6.837  17.455  0.00  0.00    +0.000 A 
ATOM     13  O   UNL     1      48.697   7.776  16.669  0.00  0.00    +0.000 OA
ATOM     14  C   UNL     1      48.338   5.483  17.181  0.00  0.00    +0.000 A 
ATOM     15  H   UNL     1      49.563   7.962  18.951  0.00  0.00    +0.000 HD
ENDBRANCH   2   5
BRANCH   3  16
ATOM     16  C   UNL     1      45.970   6.209  12.983  0.00  0.00    +0.000 C 
BRANCH  16  17
ATOM     17  C   UNL     1      45.617   5.272  11.863  0.00  0.00    +0.000 A 
ATOM     18  C   UNL     1      45.541   5.703  10.537  0.00  0.00    +0.000 A 
ATOM     19  C   UNL     1      45.087   4.829   9.547  0.00  0.00    +0.000 A 
ATOM     20  C   UNL     1      44.751   3.534   9.912  0.00  0.00    +0.000 A 
ATOM     21  N   UNL     1      44.867   3.068  11.172  0.00  0.00    +0.000 NA
ATOM     22  C   UNL     1      45.293   3.943  12.113  0.00  0.00    +0.000 A 
BRANCH  20  23
ATOM     23  O   UNL     1      44.253   2.707   8.923  0.00  0.00    +0.000 OA
BRANCH  23  24
ATOM     24  C   UNL     1      45.012   2.774   7.707  0.00  0.00    +0.000 C 
BRANCH  24  25
ATOM     25  C   UNL     1      46.476   2.406   8.002  0.00  0.00    +0.000 C 
ATOM     26  C   UNL     1      47.454   3.120   7.089  0.00  0.00    +0.000 C 
ATOM     27  C   UNL     1      47.354   2.301   5.819  0.00  0.00    +0.000 C 
ATOM     28  O   UNL     1      47.099   0.948   6.234  0.00  0.00    +0.000 OA
ATOM     29  C   UNL     1      46.772   0.960   7.635  0.00  0.00    +0.000 C 
ENDBRANCH  24  25
ENDBRANCH  23  24
ENDBRANCH  20  23
ENDBRANCH  16  17
ENDBRANCH   3  16
TORSDOF 6
ENDMDL
MODEL 5
REMARK VINA RESULT:    -7.239      4.187      9.058
REMARK INTER + INTRA:         -10.427
REMARK INTER:                  -9.562
REMARK INTRA:                  -0.865
REMARK UNBOUND:                -0.649
REMARK  Name = 
REMARK  6 active torsions:
REMARK  status: ('A' for Active; 'I' for Inactive)
REMARK    1  A    between atoms: C_2  and  C_18
REMARK    2  A    between atoms: N_3  and  C_4
REMARK    3  A    between atoms: C_4  and  C_5
REMARK    4  A    between atoms: C_8  and  O_9
REMARK    5  A    between atoms: O_9  and  C_10
REMARK    6  A    between atoms: C_10  and  C_11
REMARK                            x       y       z     vdW  Elec       q    Type
REMARK                         _______ _______ _______ _____ _____    ______ ____
ROOT
ATOM      1  O   UNL     1      47.183   3.240  13.942  0.00  0.00    +0.000 OA
ATOM      2  C   UNL     1      46.726   4.282  14.400  0.00  0.00    +0.000 C 
ATOM      3  N   UNL     1      46.762   4.575  15.745  0.00  0.00    +0.000 N 
ATOM      4  H   UNL     1      46.190   5.335  16.099  0.00  0.00    +0.000 HD
ENDROOT
BRANCH   2   5
ATOM      5  C   UNL     1      46.150   5.316  13.535  0.00  0.00    +0.000 A 
ATOM      6  C   UNL     1      46.870   6.459  13.216  0.00  0.00    +0.000 A 
ATOM      7  S   UNL     1      46.013   7.538  12.205  0.00  0.00    +0.000 S 
ATOM      8  C   UNL     1      44.673   6.490  12.128  0.00  0.00    +0.000 A 
ATOM      9  N   UNL     1      43.571   6.802  11.392  0.00  0.00    +0.000 NA
ATOM     10  C   UNL     1      42.653   5.896  11.401  0.00  0.00    +0.000 A 
ATOM     11  N   UNL     1      42.726   4.707  12.081  0.00  0.00    +0.000 N 
ATOM     12  C   UNL     1      43.795   4.372  12.882  0.00  0.00    +0.000 A 
ATOM     13  O   UNL     1      43.776   3.345  13.551  0.00  0.00    +0.000 OA
ATOM     14  C   UNL     1      44.866   5.347  12.881  0.00  0.00    +0.000 A 
ATOM     15  H   UNL     1      41.959   4.053  12.072  0.00  0.00    +0.000 HD
ENDBRANCH   2   5
BRANCH   3  16
ATOM     16  C   UNL     1      47.214   3.592  16.693  0.00  0.00    +0.000 C 
BRANCH  16  17
ATOM     17  C   UNL     1      48.696   3.634  16.935  0.00  0.00    +0.000 A 
ATOM     18  C   UNL     1      49.458   2.469  17.039  0.00  0.00    +0.000 A 
ATOM     19  C   UNL     1      50.809   2.551  17.389  0.00  0.00    +0.000 A 
ATOM     20  C   UNL     1      51.362   3.805  17.595  0.00  0.00    +0.000 A 
ATOM     21  N   UNL     1      50.669   4.952  17.446  0.00  0.00    +0.000 NA
ATOM     22  C   UNL     1      49.360   4.841  17.124  0.00  0.00    +0.000 A 
BRANCH  20  23
ATOM     23  O   UNL     1      52.685   3.856  17.993  0.00  0.00    +0.000 OA
BRANCH  23  24
ATOM     24  C   UNL     1      53.054   2.755  18.837  0.00  0.00    +0.000 C 
BRANCH  24  25
ATOM     25  C   UNL     1      54.403   2.186  18.367  0.00  0.00    +0.000 C 
ATOM     26  C   UNL     1      54.249   1.135  17.284  0.00  0.00    +0.000 C 
ATOM     27  C   UNL     1      53.850  -0.087  18.086  0.00  0.00    +0.000 C 
ATOM     28  O   UNL     1      54.523   0.028  19.351  0.00  0.00    +0.000 OA
ATOM     29  C   UNL     1      55.067   1.355  19.455  0.00  0.00    +0.000 C 
ENDBRANCH  24  25
ENDBRANCH  23  24
ENDBRANCH  20  23
ENDBRANCH  16  17
ENDBRANCH   3  16
TORSDOF 6
ENDMDL
MODEL 6
REMARK VINA RESULT:    -6.965      3.285      4.588
REMARK INTER + INTRA:         -10.057
REMARK INTER:                  -8.865
REMARK INTRA:                  -1.191
REMARK UNBOUND:                -0.649
REMARK  Name = 
REMARK  6 active torsions:
REMARK  status: ('A' for Active; 'I' for Inactive)
REMARK    1  A    between atoms: C_2  and  C_18
REMARK    2  A    between atoms: N_3  and  C_4
REMARK    3  A    between atoms: C_4  and  C_5
REMARK    4  A    between atoms: C_8  and  O_9
REMARK    5  A    between atoms: O_9  and  C_10
REMARK    6  A    between atoms: C_10  and  C_11
REMARK                            x       y       z     vdW  Elec       q    Type
REMARK                         _______ _______ _______ _____ _____    ______ ____
ROOT
ATOM      1  O   UNL     1      50.294   7.041  14.864  0.00  0.00    +0.000 OA
ATOM      2  C   UNL     1      49.377   6.956  15.673  0.00  0.00    +0.000 C 
ATOM      3  N   UNL     1      48.176   7.608  15.498  0.00  0.00    +0.000 N 
ATOM      4  H   UNL     1      47.538   7.683  16.284  0.00  0.00    +0.000 HD
ENDROOT
BRANCH   2   5
ATOM      5  C   UNL     1      49.478   6.111  16.866  0.00  0.00    +0.000 A 
ATOM      6  C   UNL     1      50.340   6.443  17.902  0.00  0.00    +0.000 A 
ATOM      7  S   UNL     1      50.311   5.323  19.193  0.00  0.00    +0.000 S 
ATOM      8  C   UNL     1      49.114   4.386  18.426  0.00  0.00    +0.000 A 
ATOM      9  N   UNL     1      48.606   3.267  19.012  0.00  0.00    +0.000 NA
ATOM     10  C   UNL     1      47.682   2.682  18.329  0.00  0.00    +0.000 A 
ATOM     11  N   UNL     1      47.217   3.105  17.110  0.00  0.00    +0.000 N 
ATOM     12  C   UNL     1      47.737   4.198  16.453  0.00  0.00    +0.000 A 
ATOM     13  O   UNL     1      47.362   4.483  15.321  0.00  0.00    +0.000 OA
ATOM     14  C   UNL     1      48.760   4.906  17.195  0.00  0.00    +0.000 A 
ATOM     15  H   UNL     1      46.512   2.585  16.611  0.00  0.00    +0.000 HD
ENDBRANCH   2   5
BRANCH   3  16
ATOM     16  C   UNL     1      48.004   8.541  14.417  0.00  0.00    +0.000 C 
BRANCH  16  17
ATOM     17  C   UNL     1      47.146   8.010  13.304  0.00  0.00    +0.000 A 
ATOM     18  C   UNL     1      45.922   8.596  12.973  0.00  0.00    +0.000 A 
ATOM     19  C   UNL     1      45.100   7.995  12.017  0.00  0.00    +0.000 A 
ATOM     20  C   UNL     1      45.545   6.837  11.397  0.00  0.00    +0.000 A 
ATOM     21  N   UNL     1      46.746   6.278  11.650  0.00  0.00    +0.000 NA
ATOM     22  C   UNL     1      47.513   6.873  12.593  0.00  0.00    +0.000 A 
BRANCH  20  23
ATOM     23  O   UNL     1      44.689   6.233  10.495  0.00  0.00    +0.000 OA
BRANCH  23  24
ATOM     24  C   UNL     1      44.753   4.800  10.543  0.00  0.00    +0.000 C 
BRANCH  24  25
ATOM     25  C   UNL     1      43.361   4.242  10.882  0.00  0.00    +0.000 C 
ATOM     26  C   UNL     1      42.606   5.112  11.870  0.00  0.00    +0.000 C 
ATOM     27  C   UNL     1      43.243   4.717  13.187  0.00  0.00    +0.000 C 
ATOM     28  O   UNL     1      43.592   3.328  13.062  0.00  0.00    +0.000 OA
ATOM     29  C   UNL     1      43.457   2.951  11.680  0.00  0.00    +0.000 C 
ENDBRANCH  24  25
ENDBRANCH  23  24
ENDBRANCH  20  23
ENDBRANCH  16  17
ENDBRANCH   3  16
TORSDOF 6
ENDMDL
MODEL 7
REMARK VINA RESULT:    -6.791      1.854      2.246
REMARK INTER + INTRA:          -9.822
REMARK INTER:                  -8.976
REMARK INTRA:                  -0.846
REMARK UNBOUND:                -0.649
REMARK  Name = 
REMARK  6 active torsions:
REMARK  status: ('A' for Active; 'I' for Inactive)
REMARK    1  A    between atoms: C_2  and  C_18
REMARK    2  A    between atoms: N_3  and  C_4
REMARK    3  A    between atoms: C_4  and  C_5
REMARK    4  A    between atoms: C_8  and  O_9
REMARK    5  A    between atoms: O_9  and  C_10
REMARK    6  A    between atoms: C_10  and  C_11
REMARK                            x       y       z     vdW  Elec       q    Type
REMARK                         _______ _______ _______ _____ _____    ______ ____
ROOT
ATOM      1  O   UNL     1      46.446   8.020  13.452  0.00  0.00    +0.000 OA
ATOM      2  C   UNL     1      47.164   7.086  13.790  0.00  0.00    +0.000 C 
ATOM      3  N   UNL     1      46.757   5.773  13.703  0.00  0.00    +0.000 N 
ATOM      4  H   UNL     1      47.291   5.058  14.187  0.00  0.00    +0.000 HD
ENDROOT
BRANCH   2   5
ATOM      5  C   UNL     1      48.533   7.300  14.269  0.00  0.00    +0.000 A 
ATOM      6  C   UNL     1      49.382   8.186  13.621  0.00  0.00    +0.000 A 
ATOM      7  S   UNL     1      50.933   8.281  14.335  0.00  0.00    +0.000 S 
ATOM      8  C   UNL     1      50.501   7.175  15.555  0.00  0.00    +0.000 A 
ATOM      9  N   UNL     1      51.378   6.820  16.533  0.00  0.00    +0.000 NA
ATOM     10  C   UNL     1      50.898   6.002  17.406  0.00  0.00    +0.000 A 
ATOM     11  N   UNL     1      49.623   5.497  17.394  0.00  0.00    +0.000 N 
ATOM     12  C   UNL     1      48.718   5.783  16.396  0.00  0.00    +0.000 A 
ATOM     13  O   UNL     1      47.623   5.232  16.370  0.00  0.00    +0.000 OA
ATOM     14  C   UNL     1      49.203   6.722  15.406  0.00  0.00    +0.000 A 
ATOM     15  H   UNL     1      49.317   4.835  18.091  0.00  0.00    +0.000 HD
ENDBRANCH   2   5
BRANCH   3  16
ATOM     16  C   UNL     1      45.401   5.453  13.342  0.00  0.00    +0.000 C 
BRANCH  16  17
ATOM     17  C   UNL     1      45.280   4.823  11.983  0.00  0.00    +0.000 A 
ATOM     18  C   UNL     1      45.450   5.562  10.811  0.00  0.00    +0.000 A 
ATOM     19  C   UNL     1      45.204   4.966   9.572  0.00  0.00    +0.000 A 
ATOM     20  C   UNL     1      44.822   3.634   9.544  0.00  0.00    +0.000 A 
ATOM     21  N   UNL     1      44.704   2.876  10.653  0.00  0.00    +0.000 NA
ATOM     22  C   UNL     1      44.933   3.485  11.839  0.00  0.00    +0.000 A 
BRANCH  20  23
ATOM     23  O   UNL     1      44.532   3.084   8.309  0.00  0.00    +0.000 OA
BRANCH  23  24
ATOM     24  C   UNL     1      45.551   3.343   7.332  0.00  0.00    +0.000 C 
BRANCH  24  25
ATOM     25  C   UNL     1      46.853   2.646   7.760  0.00  0.00    +0.000 C 
ATOM     26  C   UNL     1      47.985   2.864   6.774  0.00  0.00    +0.000 C 
ATOM     27  C   UNL     1      47.644   1.872   5.680  0.00  0.00    +0.000 C 
ATOM     28  O   UNL     1      47.021   0.754   6.335  0.00  0.00    +0.000 OA
ATOM     29  C   UNL     1      46.724   1.132   7.690  0.00  0.00    +0.000 C 
ENDBRANCH  24  25
ENDBRANCH  23  24
ENDBRANCH  20  23
ENDBRANCH  16  17
ENDBRANCH   3  16
TORSDOF 6
ENDMDL
MODEL 8
REMARK VINA RESULT:    -6.788      3.705      8.582
REMARK INTER + INTRA:          -9.817
REMARK INTER:                  -8.652
REMARK INTRA:                  -1.165
REMARK UNBOUND:                -0.649
REMARK  Name = 
REMARK  6 active torsions:
REMARK  status: ('A' for Active; 'I' for Inactive)
REMARK    1  A    between atoms: C_2  and  C_18
REMARK    2  A    between atoms: N_3  and  C_4
REMARK    3  A    between atoms: C_4  and  C_5
REMARK    4  A    between atoms: C_8  and  O_9
REMARK    5  A    between atoms: O_9  and  C_10
REMARK    6  A    between atoms: C_10  and  C_11
REMARK                            x       y       z     vdW  Elec       q    Type
REMARK                         _______ _______ _______ _____ _____    ______ ____
ROOT
ATOM      1  O   UNL     1      45.452   7.885  11.783  0.00  0.00    +0.000 OA
ATOM      2  C   UNL     1      46.145   6.925  11.467  0.00  0.00    +0.000 C 
ATOM      3  N   UNL     1      47.493   6.865  11.743  0.00  0.00    +0.000 N 
ATOM      4  H   UNL     1      48.060   6.162  11.281  0.00  0.00    +0.000 HD
ENDROOT
BRANCH   2   5
ATOM      5  C   UNL     1      45.575   5.744  10.812  0.00  0.00    +0.000 A 
ATOM      6  C   UNL     1      45.797   5.502   9.464  0.00  0.00    +0.000 A 
ATOM      7  S   UNL     1      45.037   4.079   8.897  0.00  0.00    +0.000 S 
ATOM      8  C   UNL     1      44.425   3.722  10.446  0.00  0.00    +0.000 A 
ATOM      9  N   UNL     1      43.686   2.603  10.675  0.00  0.00    +0.000 NA
ATOM     10  C   UNL     1      43.323   2.448  11.903  0.00  0.00    +0.000 A 
ATOM     11  N   UNL     1      43.623   3.310  12.927  0.00  0.00    +0.000 N 
ATOM     12  C   UNL     1      44.320   4.481  12.734  0.00  0.00    +0.000 A 
ATOM     13  O   UNL     1      44.481   5.272  13.658  0.00  0.00    +0.000 OA
ATOM     14  C   UNL     1      44.775   4.685  11.374  0.00  0.00    +0.000 A 
ATOM     15  H   UNL     1      43.283   3.148  13.862  0.00  0.00    +0.000 HD
ENDBRANCH   2   5
BRANCH   3  16
ATOM     16  C   UNL     1      48.176   8.007  12.292  0.00  0.00    +0.000 C 
BRANCH  16  17
ATOM     17  C   UNL     1      48.446   7.888  13.764  0.00  0.00    +0.000 A 
ATOM     18  C   UNL     1      48.874   6.690  14.341  0.00  0.00    +0.000 A 
ATOM     19  C   UNL     1      48.991   6.591  15.729  0.00  0.00    +0.000 A 
ATOM     20  C   UNL     1      48.705   7.708  16.499  0.00  0.00    +0.000 A 
ATOM     21  N   UNL     1      48.346   8.896  15.971  0.00  0.00    +0.000 NA
ATOM     22  C   UNL     1      48.224   8.958  14.625  0.00  0.00    +0.000 A 
BRANCH  20  23
ATOM     23  O   UNL     1      48.776   7.566  17.872  0.00  0.00    +0.000 OA
BRANCH  23  24
ATOM     24  C   UNL     1      49.395   6.335  18.272  0.00  0.00    +0.000 C 
BRANCH  24  25
ATOM     25  C   UNL     1      48.467   5.594  19.249  0.00  0.00    +0.000 C 
ATOM     26  C   UNL     1      48.671   4.091  19.224  0.00  0.00    +0.000 C 
ATOM     27  C   UNL     1      47.912   3.692  17.975  0.00  0.00    +0.000 C 
ATOM     28  O   UNL     1      46.806   4.604  17.871  0.00  0.00    +0.000 OA
ATOM     29  C   UNL     1      47.014   5.676  18.808  0.00  0.00    +0.000 C 
ENDBRANCH  24  25
ENDBRANCH  23  24
ENDBRANCH  20  23
ENDBRANCH  16  17
ENDBRANCH   3  16
TORSDOF 6
ENDMDL
MODEL 9
REMARK VINA RESULT:    -6.772      3.894      8.505
REMARK INTER + INTRA:          -9.797
REMARK INTER:                  -8.865
REMARK INTRA:                  -0.932
REMARK UNBOUND:                -0.649
REMARK  Name = 
REMARK  6 active torsions:
REMARK  status: ('A' for Active; 'I' for Inactive)
REMARK    1  A    between atoms: C_2  and  C_18
REMARK    2  A    between atoms: N_3  and  C_4
REMARK    3  A    between atoms: C_4  and  C_5
REMARK    4  A    between atoms: C_8  and  O_9
REMARK    5  A    between atoms: O_9  and  C_10
REMARK    6  A    between atoms: C_10  and  C_11
REMARK                            x       y       z     vdW  Elec       q    Type
REMARK                         _______ _______ _______ _____ _____    ______ ____
ROOT
ATOM      1  O   UNL     1      49.033   6.297  12.947  0.00  0.00    +0.000 OA
ATOM      2  C   UNL     1      47.979   6.618  13.486  0.00  0.00    +0.000 C 
ATOM      3  N   UNL     1      47.940   7.277  14.695  0.00  0.00    +0.000 N 
ATOM      4  H   UNL     1      47.060   7.329  15.198  0.00  0.00    +0.000 HD
ENDROOT
BRANCH   2   5
ATOM      5  C   UNL     1      46.681   6.363  12.854  0.00  0.00    +0.000 A 
ATOM      6  C   UNL     1      45.958   7.396  12.273  0.00  0.00    +0.000 A 
ATOM      7  S   UNL     1      44.471   6.886  11.601  0.00  0.00    +0.000 S 
ATOM      8  C   UNL     1      44.770   5.265  12.028  0.00  0.00    +0.000 A 
ATOM      9  N   UNL     1      43.886   4.277  11.720  0.00  0.00    +0.000 NA
ATOM     10  C   UNL     1      44.265   3.096  12.075  0.00  0.00    +0.000 A 
ATOM     11  N   UNL     1      45.442   2.806  12.715  0.00  0.00    +0.000 N 
ATOM     12  C   UNL     1      46.341   3.777  13.096  0.00  0.00    +0.000 A 
ATOM     13  O   UNL     1      47.333   3.485  13.755  0.00  0.00    +0.000 OA
ATOM     14  C   UNL     1      45.972   5.118  12.694  0.00  0.00    +0.000 A 
ATOM     15  H   UNL     1      45.666   1.863  12.993  0.00  0.00    +0.000 HD
ENDBRANCH   2   5
BRANCH   3  16
ATOM     16  C   UNL     1      49.146   7.488  15.449  0.00  0.00    +0.000 C 
BRANCH  16  17
ATOM     17  C   UNL     1      49.562   6.291  16.255  0.00  0.00    +0.000 A 
ATOM     18  C   UNL     1      50.866   6.139  16.731  0.00  0.00    +0.000 A 
ATOM     19  C   UNL     1      51.240   4.953  17.367  0.00  0.00    +0.000 A 
ATOM     20  C   UNL     1      50.284   3.963  17.535  0.00  0.00    +0.000 A 
ATOM     21  N   UNL     1      49.002   4.100  17.139  0.00  0.00    +0.000 NA
ATOM     22  C   UNL     1      48.673   5.252  16.511  0.00  0.00    +0.000 A 
BRANCH  20  23
ATOM     23  O   UNL     1      50.694   2.778  18.118  0.00  0.00    +0.000 OA
BRANCH  23  24
ATOM     24  C   UNL     1      51.526   1.992  17.253  0.00  0.00    +0.000 C 
BRANCH  24  25
ATOM     25  C   UNL     1      52.651   1.348  18.079  0.00  0.00    +0.000 C 
ATOM     26  C   UNL     1      53.519   2.372  18.786  0.00  0.00    +0.000 C 
ATOM     27  C   UNL     1      54.420   2.847  17.665  0.00  0.00    +0.000 C 
ATOM     28  O   UNL     1      54.622   1.712  16.806  0.00  0.00    +0.000 OA
ATOM     29  C   UNL     1      53.690   0.685  17.187  0.00  0.00    +0.000 C 
ENDBRANCH  24  25
ENDBRANCH  23  24
ENDBRANCH  20  23
ENDBRANCH  16  17
ENDBRANCH   3  16
TORSDOF 6
ENDMDL
