MODEL 1
REMARK VINA RESULT:    -8.309      0.000      0.000
REMARK INTER + INTRA:         -13.737
REMARK INTER:                 -12.196
REMARK INTRA:                  -1.542
REMARK UNBOUND:                -1.542
REMARK  Name = 
REMARK  9 active torsions:
REMARK  status: ('A' for Active; 'I' for Inactive)
REMARK    1  A    between atoms: C_1  and  O_2
REMARK    2  A    between atoms: O_2  and  C_3
REMARK    3  A    between atoms: C_10  and  C_11
REMARK    4  A    between atoms: N_13  and  C_14
REMARK    5  A    between atoms: C_14  and  C_15
REMARK    6  A    between atoms: C_18  and  C_19
REMARK    7  A    between atoms: C_19  and  N_20
REMARK    8  A    between atoms: N_20  and  C_21
REMARK    9  A    between atoms: C_21  and  C_22
REMARK                            x       y       z     vdW  Elec       q    Type
REMARK                         _______ _______ _______ _____ _____    ______ ____
ROOT
ATOM      1  C   UNL     1      47.172   6.223  12.779  0.00  0.00    +0.000 A 
ATOM      2  C   UNL     1      46.853   6.688  11.496  0.00  0.00    +0.000 A 
ATOM      3  C   UNL     1      45.634   6.350  10.897  0.00  0.00    +0.000 A 
ATOM      4  C   UNL     1      44.702   5.541  11.566  0.00  0.00    +0.000 A 
ATOM      5  C   UNL     1      45.023   5.082  12.851  0.00  0.00    +0.000 A 
ATOM      6  C   UNL     1      46.240   5.423  13.452  0.00  0.00    +0.000 A 
ENDROOT
BRANCH   1   7
ATOM      7  C   UNL     1      48.465   6.615  13.444  0.00  0.00    +0.000 C 
BRANCH   7  10
ATOM      8  C   UNL     1      49.227   7.245  15.698  0.00  0.00    +0.000 C 
ATOM      9  O   UNL     1      50.187   7.858  15.233  0.00  0.00    +0.000 OA
ATOM     10  N   UNL     1      48.339   6.602  14.881  0.00  0.00    +0.000 N 
ATOM     11  H   UNL     1      47.580   6.064  15.280  0.00  0.00    +0.000 HD
BRANCH   8  19
ATOM     12  C   UNL     1      48.837   4.641  17.922  0.00  0.00    +0.000 A 
ATOM     13  N   UNL     1      48.668   3.834  18.990  0.00  0.00    +0.000 NA
ATOM     14  C   UNL     1      48.484   4.400  20.184  0.00  0.00    +0.000 A 
ATOM     15  N   UNL     1      48.448   5.702  20.453  0.00  0.00    +0.000 NA
ATOM     16  C   UNL     1      48.631   6.471  19.366  0.00  0.00    +0.000 A 
ATOM     17  S   UNL     1      48.611   8.158  19.525  0.00  0.00    +0.000 S 
ATOM     18  C   UNL     1      48.882   8.367  17.861  0.00  0.00    +0.000 A 
ATOM     19  C   UNL     1      48.998   7.176  17.153  0.00  0.00    +0.000 A 
ATOM     20  C   UNL     1      48.843   6.039  18.058  0.00  0.00    +0.000 A 
BRANCH  12  22
ATOM     21  C   UNL     1      47.935   3.256  16.278  0.00  0.00    +0.000 C 
ATOM     22  O   UNL     1      49.047   4.046  16.695  0.00  0.00    +0.000 OA
ENDBRANCH  12  22
ENDBRANCH   8  19
ENDBRANCH   7  10
ENDBRANCH   1   7
BRANCH   4  23
ATOM     23  C   UNL     1      43.370   5.196  10.933  0.00  0.00    +0.000 C 
BRANCH  23  24
ATOM     24  N   UNL     1      43.547   4.504   9.657  0.00  0.00    +0.000 NA
ATOM     25  H   UNL     1      44.187   5.043   9.075  0.00  0.00    +0.000 HD
BRANCH  24  26
ATOM     26  C   UNL     1      44.090   3.159   9.839  0.00  0.00    +0.000 C 
BRANCH  26  27
ATOM     27  C   UNL     1      45.182   2.875   8.831  0.00  0.00    +0.000 A 
ATOM     28  C   UNL     1      45.752   3.907   8.066  0.00  0.00    +0.000 A 
ATOM     29  C   UNL     1      46.777   3.636   7.153  0.00  0.00    +0.000 A 
ATOM     30  C   UNL     1      47.242   2.332   6.993  0.00  0.00    +0.000 A 
ATOM     31  C   UNL     1      46.677   1.310   7.745  0.00  0.00    +0.000 A 
ATOM     32  F   UNL     1      47.122   0.056   7.590  0.00  0.00    +0.000 F 
ATOM     33  C   UNL     1      45.659   1.568   8.656  0.00  0.00    +0.000 A 
ENDBRANCH  26  27
ENDBRANCH  24  26
ENDBRANCH  23  24
ENDBRANCH   4  23
TORSDOF 8
ENDMDL
MODEL 2
REMARK VINA RESULT:    -7.966      1.797      2.128
REMARK INTER + INTRA:         -13.234
REMARK INTER:                 -12.050
REMARK INTRA:                  -1.184
REMARK UNBOUND:                -1.542
REMARK  Name = 
REMARK  9 active torsions:
REMARK  status: ('A' for Active; 'I' for Inactive)
REMARK    1  A    between atoms: C_1  and  O_2
REMARK    2  A    between atoms: O_2  and  C_3
REMARK    3  A    between atoms: C_10  and  C_11
REMARK    4  A    between atoms: N_13  and  C_14
REMARK    5  A    between atoms: C_14  and  C_15
REMARK    6  A    between atoms: C_18  and  C_19
REMARK    7  A    between atoms: C_19  and  N_20
REMARK    8  A    between atoms: N_20  and  C_21
REMARK    9  A    between atoms: C_21  and  C_22
REMARK                            x       y       z     vdW  Elec       q    Type
REMARK                         _______ _______ _______ _____ _____    ______ ____
ROOT
ATOM      1  C   UNL     1      46.090   6.385  12.988  0.00  0.00    +0.000 A 
ATOM      2  C   UNL     1      46.457   5.036  13.079  0.00  0.00    +0.000 A 
ATOM      3  C   UNL     1      45.595   4.030  12.629  0.00  0.00    +0.000 A 
ATOM      4  C   UNL     1      44.345   4.347  12.074  0.00  0.00    +0.000 A 
ATOM      5  C   UNL     1      43.983   5.698  11.981  0.00  0.00    +0.000 A 
ATOM      6  C   UNL     1      44.846   6.705  12.427  0.00  0.00    +0.000 A 
ENDROOT
BRANCH   1   7
ATOM      7  C   UNL     1      47.028   7.474  13.435  0.00  0.00    +0.000 C 
BRANCH   7  10
ATOM      8  C   UNL     1      48.912   7.670  15.008  0.00  0.00    +0.000 C 
ATOM      9  O   UNL     1      48.640   8.848  15.232  0.00  0.00    +0.000 OA
ATOM     10  N   UNL     1      48.169   6.929  14.131  0.00  0.00    +0.000 N 
ATOM     11  H   UNL     1      48.432   5.974  13.923  0.00  0.00    +0.000 HD
BRANCH   8  19
ATOM     12  C   UNL     1      49.175   5.033  17.212  0.00  0.00    +0.000 A 
ATOM     13  N   UNL     1      49.564   4.049  18.050  0.00  0.00    +0.000 NA
ATOM     14  C   UNL     1      50.867   3.918  18.305  0.00  0.00    +0.000 A 
ATOM     15  N   UNL     1      51.855   4.661  17.816  0.00  0.00    +0.000 NA
ATOM     16  C   UNL     1      51.428   5.622  16.978  0.00  0.00    +0.000 A 
ATOM     17  S   UNL     1      52.556   6.667  16.264  0.00  0.00    +0.000 S 
ATOM     18  C   UNL     1      51.330   7.502  15.436  0.00  0.00    +0.000 A 
ATOM     19  C   UNL     1      50.051   7.010  15.674  0.00  0.00    +0.000 A 
ATOM     20  C   UNL     1      50.112   5.884  16.603  0.00  0.00    +0.000 A 
BRANCH  12  22
ATOM     21  C   UNL     1      47.289   3.960  16.362  0.00  0.00    +0.000 C 
ATOM     22  O   UNL     1      47.828   5.148  16.938  0.00  0.00    +0.000 OA
ENDBRANCH  12  22
ENDBRANCH   8  19
ENDBRANCH   7  10
ENDBRANCH   1   7
BRANCH   4  23
ATOM     23  C   UNL     1      43.421   3.262  11.560  0.00  0.00    +0.000 C 
BRANCH  23  24
ATOM     24  N   UNL     1      44.011   2.545  10.431  0.00  0.00    +0.000 NA
ATOM     25  H   UNL     1      43.346   1.847  10.100  0.00  0.00    +0.000 HD
BRANCH  24  26
ATOM     26  C   UNL     1      44.340   3.447   9.328  0.00  0.00    +0.000 C 
BRANCH  26  27
ATOM     27  C   UNL     1      45.409   2.846   8.440  0.00  0.00    +0.000 A 
ATOM     28  C   UNL     1      46.155   3.645   7.557  0.00  0.00    +0.000 A 
ATOM     29  C   UNL     1      47.156   3.082   6.757  0.00  0.00    +0.000 A 
ATOM     30  C   UNL     1      47.421   1.717   6.831  0.00  0.00    +0.000 A 
ATOM     31  C   UNL     1      46.682   0.924   7.700  0.00  0.00    +0.000 A 
ATOM     32  F   UNL     1      46.935  -0.390   7.769  0.00  0.00    +0.000 F 
ATOM     33  C   UNL     1      45.686   1.473   8.499  0.00  0.00    +0.000 A 
ENDBRANCH  26  27
ENDBRANCH  24  26
ENDBRANCH  23  24
ENDBRANCH   4  23
TORSDOF 8
ENDMDL
MODEL 3
REMARK VINA RESULT:    -7.919      1.573      2.571
REMARK INTER + INTRA:         -13.165
REMARK INTER:                 -11.912
REMARK INTRA:                  -1.253
REMARK UNBOUND:                -1.542
REMARK  Name = 
REMARK  9 active torsions:
REMARK  status: ('A' for Active; 'I' for Inactive)
REMARK    1  A    between atoms: C_1  and  O_2
REMARK    2  A    between atoms: O_2  and  C_3
REMARK    3  A    between atoms: C_10  and  C_11
REMARK    4  A    between atoms: N_13  and  C_14
REMARK    5  A    between atoms: C_14  and  C_15
REMARK    6  A    between atoms: C_18  and  C_19
REMARK    7  A    between atoms: C_19  and  N_20
REMARK    8  A    between atoms: N_20  and  C_21
REMARK    9  A    between atoms: C_21  and  C_22
REMARK                            x       y       z     vdW  Elec       q    Type
REMARK                         _______ _______ _______ _____ _____    ______ ____
ROOT
ATOM      1  C   UNL     1      47.373   6.114  13.151  0.00  0.00    +0.000 A 
ATOM      2  C   UNL     1      47.008   6.690  11.928  0.00  0.00    +0.000 A 
ATOM      3  C   UNL     1      45.913   6.200  11.207  0.00  0.00    +0.000 A 
ATOM      4  C   UNL     1      45.155   5.123  11.692  0.00  0.00    +0.000 A 
ATOM      5  C   UNL     1      45.522   4.551  12.918  0.00  0.00    +0.000 A 
ATOM      6  C   UNL     1      46.614   5.044  13.641  0.00  0.00    +0.000 A 
ENDROOT
BRANCH   1   7
ATOM      7  C   UNL     1      48.526   6.661  13.950  0.00  0.00    +0.000 C 
BRANCH   7  10
ATOM      8  C   UNL     1      49.132   6.354  16.316  0.00  0.00    +0.000 C 
ATOM      9  O   UNL     1      50.266   5.988  16.008  0.00  0.00    +0.000 OA
ATOM     10  N   UNL     1      48.217   6.695  15.359  0.00  0.00    +0.000 N 
ATOM     11  H   UNL     1      47.275   6.951  15.626  0.00  0.00    +0.000 HD
BRANCH   8  19
ATOM     12  C   UNL     1      47.821   8.875  18.266  0.00  0.00    +0.000 A 
ATOM     13  N   UNL     1      47.300   9.656  19.235  0.00  0.00    +0.000 NA
ATOM     14  C   UNL     1      47.130   9.127  20.448  0.00  0.00    +0.000 A 
ATOM     15  N   UNL     1      47.420   7.884  20.824  0.00  0.00    +0.000 NA
ATOM     16  C   UNL     1      47.925   7.136  19.829  0.00  0.00    +0.000 A 
ATOM     17  S   UNL     1      48.355   5.524  20.133  0.00  0.00    +0.000 S 
ATOM     18  C   UNL     1      48.862   5.305  18.527  0.00  0.00    +0.000 A 
ATOM     19  C   UNL     1      48.714   6.434  17.728  0.00  0.00    +0.000 A 
ATOM     20  C   UNL     1      48.155   7.533  18.513  0.00  0.00    +0.000 A 
BRANCH  12  22
ATOM     21  C   UNL     1      49.203  10.136  16.877  0.00  0.00    +0.000 C 
ATOM     22  O   UNL     1      47.974   9.425  17.011  0.00  0.00    +0.000 OA
ENDBRANCH  12  22
ENDBRANCH   8  19
ENDBRANCH   7  10
ENDBRANCH   1   7
BRANCH   4  23
ATOM     23  C   UNL     1      43.953   4.607  10.927  0.00  0.00    +0.000 C 
BRANCH  23  24
ATOM     24  N   UNL     1      44.317   3.509  10.034  0.00  0.00    +0.000 NA
ATOM     25  H   UNL     1      43.541   2.849   9.988  0.00  0.00    +0.000 HD
BRANCH  24  26
ATOM     26  C   UNL     1      44.615   3.983   8.683  0.00  0.00    +0.000 C 
BRANCH  26  27
ATOM     27  C   UNL     1      45.678   3.125   8.032  0.00  0.00    +0.000 A 
ATOM     28  C   UNL     1      46.633   3.682   7.165  0.00  0.00    +0.000 A 
ATOM     29  C   UNL     1      47.625   2.882   6.586  0.00  0.00    +0.000 A 
ATOM     30  C   UNL     1      47.672   1.518   6.866  0.00  0.00    +0.000 A 
ATOM     31  C   UNL     1      46.726   0.964   7.719  0.00  0.00    +0.000 A 
ATOM     32  F   UNL     1      46.770  -0.348   7.987  0.00  0.00    +0.000 F 
ATOM     33  C   UNL     1      45.738   1.749   8.301  0.00  0.00    +0.000 A 
ENDBRANCH  26  27
ENDBRANCH  24  26
ENDBRANCH  23  24
ENDBRANCH   4  23
TORSDOF 8
ENDMDL
MODEL 4
REMARK VINA RESULT:    -7.800      1.889      2.763
REMARK INTER + INTRA:         -12.989
REMARK INTER:                 -11.711
REMARK INTRA:                  -1.279
REMARK UNBOUND:                -1.542
REMARK  Name = 
REMARK  9 active torsions:
REMARK  status: ('A' for Active; 'I' for Inactive)
REMARK    1  A    between atoms: C_1  and  O_2
REMARK    2  A    between atoms: O_2  and  C_3
REMARK    3  A    between atoms: C_10  and  C_11
REMARK    4  A    between atoms: N_13  and  C_14
REMARK    5  A    between atoms: C_14  and  C_15
REMARK    6  A    between atoms: C_18  and  C_19
REMARK    7  A    between atoms: C_19  and  N_20
REMARK    8  A    between atoms: N_20  and  C_21
REMARK    9  A    between atoms: C_21  and  C_22
REMARK                            x       y       z     vdW  Elec       q    Type
REMARK                         _______ _______ _______ _____ _____    ______ ____
ROOT
ATOM      1  C   UNL     1      46.838   4.040  13.875  0.00  0.00    +0.000 A 
ATOM      2  C   UNL     1      45.864   3.356  13.136  0.00  0.00    +0.000 A 
ATOM      3  C   UNL     1      45.277   3.946  12.010  0.00  0.00    +0.000 A 
ATOM      4  C   UNL     1      45.652   5.233  11.593  0.00  0.00    +0.000 A 
ATOM      5  C   UNL     1      46.630   5.912  12.333  0.00  0.00    +0.000 A 
ATOM      6  C   UNL     1      47.219   5.321  13.456  0.00  0.00    +0.000 A 
ENDROOT
BRANCH   1   7
ATOM      7  C   UNL     1      47.500   3.396  15.064  0.00  0.00    +0.000 C 
BRANCH   7  10
ATOM      8  C   UNL     1      47.388   4.390  17.313  0.00  0.00    +0.000 C 
ATOM      9  O   UNL     1      46.561   3.554  17.672  0.00  0.00    +0.000 OA
ATOM     10  N   UNL     1      47.892   4.381  16.042  0.00  0.00    +0.000 N 
ATOM     11  H   UNL     1      48.537   5.103  15.747  0.00  0.00    +0.000 HD
BRANCH   8  19
ATOM     12  C   UNL     1      50.503   5.667  18.051  0.00  0.00    +0.000 A 
ATOM     13  N   UNL     1      51.573   6.345  18.515  0.00  0.00    +0.000 NA
ATOM     14  C   UNL     1      51.372   7.280  19.445  0.00  0.00    +0.000 A 
ATOM     15  N   UNL     1      50.208   7.634  19.981  0.00  0.00    +0.000 NA
ATOM     16  C   UNL     1      49.166   6.945  19.485  0.00  0.00    +0.000 A 
ATOM     17  S   UNL     1      47.604   7.265  20.060  0.00  0.00    +0.000 S 
ATOM     18  C   UNL     1      46.932   6.089  19.035  0.00  0.00    +0.000 A 
ATOM     19  C   UNL     1      47.865   5.437  18.236  0.00  0.00    +0.000 A 
ATOM     20  C   UNL     1      49.206   5.949  18.511  0.00  0.00    +0.000 A 
BRANCH  12  22
ATOM     21  C   UNL     1      51.078   3.450  17.622  0.00  0.00    +0.000 C 
ATOM     22  O   UNL     1      50.718   4.717  17.074  0.00  0.00    +0.000 OA
ENDBRANCH  12  22
ENDBRANCH   8  19
ENDBRANCH   7  10
ENDBRANCH   1   7
BRANCH   4  23
ATOM     23  C   UNL     1      45.040   5.863  10.359  0.00  0.00    +0.000 C 
BRANCH  23  24
ATOM     24  N   UNL     1      45.641   5.339   9.134  0.00  0.00    +0.000 NA
ATOM     25  H   UNL     1      46.554   4.944   9.357  0.00  0.00    +0.000 HD
BRANCH  24  26
ATOM     26  C   UNL     1      44.812   4.300   8.524  0.00  0.00    +0.000 C 
BRANCH  26  27
ATOM     27  C   UNL     1      45.670   3.237   7.872  0.00  0.00    +0.000 A 
ATOM     28  C   UNL     1      45.871   1.988   8.483  0.00  0.00    +0.000 A 
ATOM     29  C   UNL     1      46.648   1.006   7.859  0.00  0.00    +0.000 A 
ATOM     30  C   UNL     1      47.232   1.260   6.620  0.00  0.00    +0.000 A 
ATOM     31  C   UNL     1      47.038   2.496   6.016  0.00  0.00    +0.000 A 
ATOM     32  F   UNL     1      47.602   2.743   4.826  0.00  0.00    +0.000 F 
ATOM     33  C   UNL     1      46.267   3.479   6.626  0.00  0.00    +0.000 A 
ENDBRANCH  26  27
ENDBRANCH  24  26
ENDBRANCH  23  24
ENDBRANCH   4  23
TORSDOF 8
ENDMDL
MODEL 5
REMARK VINA RESULT:    -7.737      2.242      2.767
REMARK INTER + INTRA:         -12.897
REMARK INTER:                 -11.875
REMARK INTRA:                  -1.023
REMARK UNBOUND:                -1.542
REMARK  Name = 
REMARK  9 active torsions:
REMARK  status: ('A' for Active; 'I' for Inactive)
REMARK    1  A    between atoms: C_1  and  O_2
REMARK    2  A    between atoms: O_2  and  C_3
REMARK    3  A    between atoms: C_10  and  C_11
REMARK    4  A    between atoms: N_13  and  C_14
REMARK    5  A    between atoms: C_14  and  C_15
REMARK    6  A    between atoms: C_18  and  C_19
REMARK    7  A    between atoms: C_19  and  N_20
REMARK    8  A    between atoms: N_20  and  C_21
REMARK    9  A    between atoms: C_21  and  C_22
REMARK                            x       y       z     vdW  Elec       q    Type
REMARK                         _______ _______ _______ _____ _____    ______ ____
ROOT
ATOM      1  C   UNL     1      47.513   6.355  14.196  0.00  0.00    +0.000 A 
ATOM      2  C   UNL     1      47.313   4.980  14.375  0.00  0.00    +0.000 A 
ATOM      3  C   UNL     1      46.454   4.268  13.530  0.00  0.00    +0.000 A 
ATOM      4  C   UNL     1      45.776   4.911  12.484  0.00  0.00    +0.000 A 
ATOM      5  C   UNL     1      45.981   6.286  12.305  0.00  0.00    +0.000 A 
ATOM      6  C   UNL     1      46.843   6.998  13.147  0.00  0.00    +0.000 A 
ENDROOT
BRANCH   1   7
ATOM      7  C   UNL     1      48.465   7.120  15.077  0.00  0.00    +0.000 C 
BRANCH   7  10
ATOM      8  C   UNL     1      49.741   6.142  16.941  0.00  0.00    +0.000 C 
ATOM      9  O   UNL     1      49.085   6.780  17.762  0.00  0.00    +0.000 OA
ATOM     10  N   UNL     1      49.499   6.261  15.600  0.00  0.00    +0.000 N 
ATOM     11  H   UNL     1      50.076   5.764  14.934  0.00  0.00    +0.000 HD
BRANCH   8  19
ATOM     12  C   UNL     1      50.073   2.711  16.963  0.00  0.00    +0.000 A 
ATOM     13  N   UNL     1      50.468   1.426  17.074  0.00  0.00    +0.000 NA
ATOM     14  C   UNL     1      51.675   1.181  17.587  0.00  0.00    +0.000 A 
ATOM     15  N   UNL     1      52.560   2.079  18.012  0.00  0.00    +0.000 NA
ATOM     16  C   UNL     1      52.133   3.346  17.874  0.00  0.00    +0.000 A 
ATOM     17  S   UNL     1      53.133   4.621  18.369  0.00  0.00    +0.000 S 
ATOM     18  C   UNL     1      51.974   5.775  17.908  0.00  0.00    +0.000 A 
ATOM     19  C   UNL     1      50.816   5.227  17.367  0.00  0.00    +0.000 A 
ATOM     20  C   UNL     1      50.912   3.769  17.352  0.00  0.00    +0.000 A 
BRANCH  12  22
ATOM     21  C   UNL     1      47.788   2.899  17.382  0.00  0.00    +0.000 C 
ATOM     22  O   UNL     1      48.832   2.956  16.412  0.00  0.00    +0.000 OA
ENDBRANCH  12  22
ENDBRANCH   8  19
ENDBRANCH   7  10
ENDBRANCH   1   7
BRANCH   4  23
ATOM     23  C   UNL     1      44.867   4.138  11.551  0.00  0.00    +0.000 C 
BRANCH  23  24
ATOM     24  N   UNL     1      45.097   4.502  10.154  0.00  0.00    +0.000 NA
ATOM     25  H   UNL     1      46.101   4.541   9.983  0.00  0.00    +0.000 HD
BRANCH  24  26
ATOM     26  C   UNL     1      44.497   3.537   9.234  0.00  0.00    +0.000 C 
BRANCH  26  27
ATOM     27  C   UNL     1      45.557   2.873   8.381  0.00  0.00    +0.000 A 
ATOM     28  C   UNL     1      46.405   3.628   7.554  0.00  0.00    +0.000 A 
ATOM     29  C   UNL     1      47.395   3.005   6.787  0.00  0.00    +0.000 A 
ATOM     30  C   UNL     1      47.548   1.621   6.836  0.00  0.00    +0.000 A 
ATOM     31  C   UNL     1      46.707   0.871   7.649  0.00  0.00    +0.000 A 
ATOM     32  F   UNL     1      46.852  -0.460   7.695  0.00  0.00    +0.000 F 
ATOM     33  C   UNL     1      45.721   1.480   8.417  0.00  0.00    +0.000 A 
ENDBRANCH  26  27
ENDBRANCH  24  26
ENDBRANCH  23  24
ENDBRANCH   4  23
TORSDOF 8
ENDMDL
MODEL 6
REMARK VINA RESULT:    -7.720      1.675      3.115
REMARK INTER + INTRA:         -12.872
REMARK INTER:                 -11.561
REMARK INTRA:                  -1.311
REMARK UNBOUND:                -1.542
REMARK  Name = 
REMARK  9 active torsions:
REMARK  status: ('A' for Active; 'I' for Inactive)
REMARK    1  A    between atoms: C_1  and  O_2
REMARK    2  A    between atoms: O_2  and  C_3
REMARK    3  A    between atoms: C_10  and  C_11
REMARK    4  A    between atoms: N_13  and  C_14
REMARK    5  A    between atoms: C_14  and  C_15
REMARK    6  A    between atoms: C_18  and  C_19
REMARK    7  A    between atoms: C_19  and  N_20
REMARK    8  A    between atoms: N_20  and  C_21
REMARK    9  A    between atoms: C_21  and  C_22
REMARK                            x       y       z     vdW  Elec       q    Type
REMARK                         _______ _______ _______ _____ _____    ______ ____
ROOT
ATOM      1  C   UNL     1      46.325   4.257  13.612  0.00  0.00    +0.000 A 
ATOM      2  C   UNL     1      45.755   3.191  12.904  0.00  0.00    +0.000 A 
ATOM      3  C   UNL     1      44.880   3.429  11.838  0.00  0.00    +0.000 A 
ATOM      4  C   UNL     1      44.555   4.738  11.451  0.00  0.00    +0.000 A 
ATOM      5  C   UNL     1      45.130   5.802  12.159  0.00  0.00    +0.000 A 
ATOM      6  C   UNL     1      46.008   5.565  13.223  0.00  0.00    +0.000 A 
ENDROOT
BRANCH   1   7
ATOM      7  C   UNL     1      47.296   4.008  14.735  0.00  0.00    +0.000 C 
BRANCH   7  10
ATOM      8  C   UNL     1      48.508   5.300  16.445  0.00  0.00    +0.000 C 
ATOM      9  O   UNL     1      49.276   4.361  16.651  0.00  0.00    +0.000 OA
ATOM     10  N   UNL     1      47.505   5.199  15.521  0.00  0.00    +0.000 N 
ATOM     11  H   UNL     1      46.853   5.964  15.395  0.00  0.00    +0.000 HD
BRANCH   8  19
ATOM     12  C   UNL     1      48.683   8.606  15.486  0.00  0.00    +0.000 A 
ATOM     13  N   UNL     1      48.759   9.950  15.397  0.00  0.00    +0.000 NA
ATOM     14  C   UNL     1      48.877  10.650  16.526  0.00  0.00    +0.000 A 
ATOM     15  N   UNL     1      48.928  10.166  17.764  0.00  0.00    +0.000 NA
ATOM     16  C   UNL     1      48.838   8.826  17.810  0.00  0.00    +0.000 A 
ATOM     17  S   UNL     1      48.890   8.038  19.311  0.00  0.00    +0.000 S 
ATOM     18  C   UNL     1      48.737   6.516  18.572  0.00  0.00    +0.000 A 
ATOM     19  C   UNL     1      48.638   6.568  17.186  0.00  0.00    +0.000 A 
ATOM     20  C   UNL     1      48.703   7.955  16.731  0.00  0.00    +0.000 A 
BRANCH  12  22
ATOM     21  C   UNL     1      49.796   7.579  13.714  0.00  0.00    +0.000 C 
ATOM     22  O   UNL     1      48.540   7.892  14.314  0.00  0.00    +0.000 OA
ENDBRANCH  12  22
ENDBRANCH   8  19
ENDBRANCH   7  10
ENDBRANCH   1   7
BRANCH   4  23
ATOM     23  C   UNL     1      43.630   5.000  10.280  0.00  0.00    +0.000 C 
BRANCH  23  24
ATOM     24  N   UNL     1      44.066   4.285   9.082  0.00  0.00    +0.000 NA
ATOM     25  H   UNL     1      43.495   4.584   8.293  0.00  0.00    +0.000 HD
BRANCH  24  26
ATOM     26  C   UNL     1      45.472   4.545   8.776  0.00  0.00    +0.000 C 
BRANCH  26  27
ATOM     27  C   UNL     1      46.057   3.433   7.932  0.00  0.00    +0.000 A 
ATOM     28  C   UNL     1      46.631   3.696   6.677  0.00  0.00    +0.000 A 
ATOM     29  C   UNL     1      47.188   2.663   5.916  0.00  0.00    +0.000 A 
ATOM     30  C   UNL     1      47.177   1.357   6.399  0.00  0.00    +0.000 A 
ATOM     31  C   UNL     1      46.606   1.093   7.638  0.00  0.00    +0.000 A 
ATOM     32  F   UNL     1      46.593  -0.164   8.102  0.00  0.00    +0.000 F 
ATOM     33  C   UNL     1      46.051   2.112   8.403  0.00  0.00    +0.000 A 
ENDBRANCH  26  27
ENDBRANCH  24  26
ENDBRANCH  23  24
ENDBRANCH   4  23
TORSDOF 8
ENDMDL
MODEL 7
REMARK VINA RESULT:    -7.155      1.968      2.282
REMARK INTER + INTRA:         -12.043
REMARK INTER:                 -10.787
REMARK INTRA:                  -1.257
REMARK UNBOUND:                -1.542
REMARK  Name = 
REMARK  9 active torsions:
REMARK  status: ('A' for Active; 'I' for Inactive)
REMARK    1  A    between atoms: C_1  and  O_2
REMARK    2  A    between atoms: O_2  and  C_3
REMARK    3  A    between atoms: C_10  and  C_11
REMARK    4  A    between atoms: N_13  and  C_14
REMARK    5  A    between atoms: C_14  and  C_15
REMARK    6  A    between atoms: C_18  and  C_19
REMARK    7  A    between atoms: C_19  and  N_20
REMARK    8  A    between atoms: N_20  and  C_21
REMARK    9  A    between atoms: C_21  and  C_22
REMARK                            x       y       z     vdW  Elec       q    Type
REMARK                         _______ _______ _______ _____ _____    ______ ____
ROOT
ATOM      1  C   UNL     1      47.122   7.786  12.640  0.00  0.00    +0.000 A 
ATOM      2  C   UNL     1      45.885   8.444  12.652  0.00  0.00    +0.000 A 
ATOM      3  C   UNL     1      44.733   7.807  12.178  0.00  0.00    +0.000 A 
ATOM      4  C   UNL     1      44.787   6.494  11.683  0.00  0.00    +0.000 A 
ATOM      5  C   UNL     1      46.026   5.838  11.676  0.00  0.00    +0.000 A 
ATOM      6  C   UNL     1      47.178   6.473  12.153  0.00  0.00    +0.000 A 
ENDROOT
BRANCH   1   7
ATOM      7  C   UNL     1      48.358   8.452  13.183  0.00  0.00    +0.000 C 
BRANCH   7  10
ATOM      8  C   UNL     1      49.218   7.701  15.364  0.00  0.00    +0.000 C 
ATOM      9  O   UNL     1      48.661   8.636  15.937  0.00  0.00    +0.000 OA
ATOM     10  N   UNL     1      49.121   7.548  14.009  0.00  0.00    +0.000 N 
ATOM     11  H   UNL     1      49.621   6.800  13.545  0.00  0.00    +0.000 HD
BRANCH   8  19
ATOM     12  C   UNL     1      48.495   4.637  16.765  0.00  0.00    +0.000 A 
ATOM     13  N   UNL     1      48.495   3.436  17.382  0.00  0.00    +0.000 NA
ATOM     14  C   UNL     1      49.632   3.014  17.939  0.00  0.00    +0.000 A 
ATOM     15  N   UNL     1      50.798   3.654  17.957  0.00  0.00    +0.000 NA
ATOM     16  C   UNL     1      50.759   4.839  17.323  0.00  0.00    +0.000 A 
ATOM     17  S   UNL     1      52.159   5.792  17.252  0.00  0.00    +0.000 S 
ATOM     18  C   UNL     1      51.350   7.002  16.376  0.00  0.00    +0.000 A 
ATOM     19  C   UNL     1      50.015   6.712  16.113  0.00  0.00    +0.000 A 
ATOM     20  C   UNL     1      49.662   5.416  16.687  0.00  0.00    +0.000 A 
BRANCH  12  22
ATOM     21  C   UNL     1      46.963   4.251  15.052  0.00  0.00    +0.000 C 
ATOM     22  O   UNL     1      47.321   5.055  16.175  0.00  0.00    +0.000 OA
ENDBRANCH  12  22
ENDBRANCH   8  19
ENDBRANCH   7  10
ENDBRANCH   1   7
BRANCH   4  23
ATOM     23  C   UNL     1      43.537   5.791  11.195  0.00  0.00    +0.000 C 
BRANCH  23  24
ATOM     24  N   UNL     1      43.751   5.157   9.896  0.00  0.00    +0.000 NA
ATOM     25  H   UNL     1      44.615   5.515   9.492  0.00  0.00    +0.000 HD
BRANCH  24  26
ATOM     26  C   UNL     1      43.850   3.702  10.012  0.00  0.00    +0.000 C 
BRANCH  26  27
ATOM     27  C   UNL     1      44.865   3.150   9.034  0.00  0.00    +0.000 A 
ATOM     28  C   UNL     1      45.238   1.795   9.060  0.00  0.00    +0.000 A 
ATOM     29  C   UNL     1      46.161   1.292   8.137  0.00  0.00    +0.000 A 
ATOM     30  C   UNL     1      46.721   2.134   7.180  0.00  0.00    +0.000 A 
ATOM     31  C   UNL     1      46.357   3.475   7.155  0.00  0.00    +0.000 A 
ATOM     32  F   UNL     1      46.897   4.287   6.236  0.00  0.00    +0.000 F 
ATOM     33  C   UNL     1      45.440   3.986   8.066  0.00  0.00    +0.000 A 
ENDBRANCH  26  27
ENDBRANCH  24  26
ENDBRANCH  23  24
ENDBRANCH   4  23
TORSDOF 8
ENDMDL
MODEL 8
REMARK VINA RESULT:    -6.933      3.798      8.188
REMARK INTER + INTRA:         -11.717
REMARK INTER:                  -9.831
REMARK INTRA:                  -1.886
REMARK UNBOUND:                -1.542
REMARK  Name = 
REMARK  9 active torsions:
REMARK  status: ('A' for Active; 'I' for Inactive)
REMARK    1  A    between atoms: C_1  and  O_2
REMARK    2  A    between atoms: O_2  and  C_3
REMARK    3  A    between atoms: C_10  and  C_11
REMARK    4  A    between atoms: N_13  and  C_14
REMARK    5  A    between atoms: C_14  and  C_15
REMARK    6  A    between atoms: C_18  and  C_19
REMARK    7  A    between atoms: C_19  and  N_20
REMARK    8  A    between atoms: N_20  and  C_21
REMARK    9  A    between atoms: C_21  and  C_22
REMARK                            x       y       z     vdW  Elec       q    Type
REMARK                         _______ _______ _______ _____ _____    ______ ____
ROOT
ATOM      1  C   UNL     1      48.466   7.918  13.449  0.00  0.00    +0.000 A 
ATOM      2  C   UNL     1      49.066   6.788  14.020  0.00  0.00    +0.000 A 
ATOM      3  C   UNL     1      49.170   6.661  15.410  0.00  0.00    +0.000 A 
ATOM      4  C   UNL     1      48.675   7.659  16.264  0.00  0.00    +0.000 A 
ATOM      5  C   UNL     1      48.072   8.786  15.689  0.00  0.00    +0.000 A 
ATOM      6  C   UNL     1      47.965   8.912  14.300  0.00  0.00    +0.000 A 
ENDROOT
BRANCH   1   7
ATOM      7  C   UNL     1      48.317   8.043  11.956  0.00  0.00    +0.000 C 
BRANCH   7  10
ATOM      8  C   UNL     1      46.229   6.883  11.361  0.00  0.00    +0.000 C 
ATOM      9  O   UNL     1      45.554   7.811  11.803  0.00  0.00    +0.000 OA
ATOM     10  N   UNL     1      47.595   6.921  11.407  0.00  0.00    +0.000 N 
ATOM     11  H   UNL     1      48.136   6.131  11.081  0.00  0.00    +0.000 HD
BRANCH   8  19
ATOM     12  C   UNL     1      44.436   4.246  12.670  0.00  0.00    +0.000 A 
ATOM     13  N   UNL     1      43.712   3.132  12.904  0.00  0.00    +0.000 NA
ATOM     14  C   UNL     1      43.400   2.354  11.866  0.00  0.00    +0.000 A 
ATOM     15  N   UNL     1      43.726   2.554  10.592  0.00  0.00    +0.000 NA
ATOM     16  C   UNL     1      44.437   3.678  10.399  0.00  0.00    +0.000 A 
ATOM     17  S   UNL     1      44.941   4.088   8.833  0.00  0.00    +0.000 S 
ATOM     18  C   UNL     1      45.706   5.497   9.396  0.00  0.00    +0.000 A 
ATOM     19  C   UNL     1      45.593   5.692  10.768  0.00  0.00    +0.000 A 
ATOM     20  C   UNL     1      44.834   4.597  11.368  0.00  0.00    +0.000 A 
BRANCH  12  22
ATOM     21  C   UNL     1      46.039   4.800  14.268  0.00  0.00    +0.000 C 
ATOM     22  O   UNL     1      44.736   5.055  13.746  0.00  0.00    +0.000 OA
ENDBRANCH  12  22
ENDBRANCH   8  19
ENDBRANCH   7  10
ENDBRANCH   1   7
BRANCH   4  23
ATOM     23  C   UNL     1      48.762   7.512  17.769  0.00  0.00    +0.000 C 
BRANCH  23  24
ATOM     24  N   UNL     1      47.602   6.801  18.306  0.00  0.00    +0.000 NA
ATOM     25  H   UNL     1      47.043   6.448  17.531  0.00  0.00    +0.000 HD
BRANCH  24  26
ATOM     26  C   UNL     1      47.999   5.678  19.155  0.00  0.00    +0.000 C 
BRANCH  26  27
ATOM     27  C   UNL     1      48.443   4.498  18.317  0.00  0.00    +0.000 A 
ATOM     28  C   UNL     1      47.533   3.791  17.514  0.00  0.00    +0.000 A 
ATOM     29  C   UNL     1      47.960   2.717  16.727  0.00  0.00    +0.000 A 
ATOM     30  C   UNL     1      49.300   2.336  16.734  0.00  0.00    +0.000 A 
ATOM     31  C   UNL     1      50.202   3.030  17.531  0.00  0.00    +0.000 A 
ATOM     32  F   UNL     1      51.490   2.663  17.540  0.00  0.00    +0.000 F 
ATOM     33  C   UNL     1      49.789   4.101  18.316  0.00  0.00    +0.000 A 
ENDBRANCH  26  27
ENDBRANCH  24  26
ENDBRANCH  23  24
ENDBRANCH   4  23
TORSDOF 8
ENDMDL
MODEL 9
REMARK VINA RESULT:    -6.923      1.706      2.770
REMARK INTER + INTRA:         -11.702
REMARK INTER:                 -10.882
REMARK INTRA:                  -0.820
REMARK UNBOUND:                -1.542
REMARK  Name = 
REMARK  9 active torsions:
REMARK  status: ('A' for Active; 'I' for Inactive)
REMARK    1  A    between atoms: C_1  and  O_2
REMARK    2  A    between atoms: O_2  and  C_3
REMARK    3  A    between atoms: C_10  and  C_11
REMARK    4  A    between atoms: N_13  and  C_14
REMARK    5  A    between atoms: C_14  and  C_15
REMARK    6  A    between atoms: C_18  and  C_19
REMARK    7  A    between atoms: C_19  and  N_20
REMARK    8  A    between atoms: N_20  and  C_21
REMARK    9  A    between atoms: C_21  and  C_22
REMARK                            x       y       z     vdW  Elec       q    Type
REMARK                         _______ _______ _______ _____ _____    ______ ____
ROOT
ATOM      1  C   UNL     1      46.603   6.875  12.697  0.00  0.00    +0.000 A 
ATOM      2  C   UNL     1      45.352   6.612  13.270  0.00  0.00    +0.000 A 
ATOM      3  C   UNL     1      44.351   5.970  12.533  0.00  0.00    +0.000 A 
ATOM      4  C   UNL     1      44.576   5.572  11.206  0.00  0.00    +0.000 A 
ATOM      5  C   UNL     1      45.830   5.834  10.637  0.00  0.00    +0.000 A 
ATOM      6  C   UNL     1      46.833   6.472  11.375  0.00  0.00    +0.000 A 
ENDROOT
BRANCH   1   7
ATOM      7  C   UNL     1      47.698   7.531  13.497  0.00  0.00    +0.000 C 
BRANCH   7  10
ATOM      8  C   UNL     1      48.794   7.307  15.690  0.00  0.00    +0.000 C 
ATOM      9  O   UNL     1      49.469   8.314  15.487  0.00  0.00    +0.000 OA
ATOM     10  N   UNL     1      47.904   6.855  14.755  0.00  0.00    +0.000 N 
ATOM     11  H   UNL     1      47.388   5.999  14.917  0.00  0.00    +0.000 HD
BRANCH   8  19
ATOM     12  C   UNL     1      49.114   8.215  19.000  0.00  0.00    +0.000 A 
ATOM     13  N   UNL     1      49.233   8.284  20.342  0.00  0.00    +0.000 NA
ATOM     14  C   UNL     1      49.308   7.141  21.027  0.00  0.00    +0.000 A 
ATOM     15  N   UNL     1      49.278   5.909  20.529  0.00  0.00    +0.000 NA
ATOM     16  C   UNL     1      49.148   5.883  19.191  0.00  0.00    +0.000 A 
ATOM     17  S   UNL     1      49.095   4.392  18.387  0.00  0.00    +0.000 S 
ATOM     18  C   UNL     1      48.939   5.155  16.878  0.00  0.00    +0.000 A 
ATOM     19  C   UNL     1      48.918   6.545  16.947  0.00  0.00    +0.000 A 
ATOM     20  C   UNL     1      49.047   6.978  18.336  0.00  0.00    +0.000 A 
BRANCH  12  22
ATOM     21  C   UNL     1      50.142  10.249  18.514  0.00  0.00    +0.000 C 
ATOM     22  O   UNL     1      49.015   9.401  18.302  0.00  0.00    +0.000 OA
ENDBRANCH  12  22
ENDBRANCH   8  19
ENDBRANCH   7  10
ENDBRANCH   1   7
BRANCH   4  23
ATOM     23  C   UNL     1      43.504   4.853  10.414  0.00  0.00    +0.000 C 
BRANCH  23  24
ATOM     24  N   UNL     1      44.033   4.314   9.162  0.00  0.00    +0.000 NA
ATOM     25  H   UNL     1      44.860   4.846   8.896  0.00  0.00    +0.000 HD
BRANCH  24  26
ATOM     26  C   UNL     1      44.397   2.903   9.289  0.00  0.00    +0.000 C 
BRANCH  26  27
ATOM     27  C   UNL     1      45.436   2.519   8.258  0.00  0.00    +0.000 A 
ATOM     28  C   UNL     1      46.121   1.295   8.336  0.00  0.00    +0.000 A 
ATOM     29  C   UNL     1      47.064   0.940   7.365  0.00  0.00    +0.000 A 
ATOM     30  C   UNL     1      47.332   1.805   6.306  0.00  0.00    +0.000 A 
ATOM     31  C   UNL     1      46.660   3.018   6.228  0.00  0.00    +0.000 A 
ATOM     32  F   UNL     1      46.920   3.851   5.211  0.00  0.00    +0.000 F 
ATOM     33  C   UNL     1      45.721   3.379   7.187  0.00  0.00    +0.000 A 
ENDBRANCH  26  27
ENDBRANCH  24  26
ENDBRANCH  23  24
ENDBRANCH   4  23
TORSDOF 8
ENDMDL
