MODEL 1
REMARK VINA RESULT:    -8.526      0.000      0.000
REMARK INTER + INTRA:         -13.875
REMARK INTER:                 -12.514
REMARK INTRA:                  -1.361
REMARK UNBOUND:                -1.361
REMARK  Name = 
REMARK  9 active torsions:
REMARK  status: ('A' for Active; 'I' for Inactive)
REMARK    1  A    between atoms: C_1  and  O_2
REMARK    2  A    between atoms: O_2  and  C_3
REMARK    3  A    between atoms: C_10  and  C_11
REMARK    4  A    between atoms: N_13  and  C_14
REMARK    5  A    between atoms: C_14  and  C_15
REMARK    6  A    between atoms: C_18  and  N_19
REMARK    7  A    between atoms: N_19  and  C_20
REMARK    8  A    between atoms: C_20  and  C_21
REMARK    9  A    between atoms: C_21  and  C_22
REMARK                            x       y       z     vdW  Elec       q    Type
REMARK                         _______ _______ _______ _____ _____    ______ ____
ROOT
ATOM      1  C   UNL     1      47.219   8.242  13.383  0.00  0.00    +0.000 C 
ENDROOT
BRANCH   1   2
ATOM      2  C   UNL     1      46.365   7.475  12.410  0.00  0.00    +0.000 A 
ATOM      3  C   UNL     1      46.873   6.359  11.740  0.00  0.00    +0.000 A 
ATOM      4  C   UNL     1      46.035   5.567  10.950  0.00  0.00    +0.000 A 
ATOM      5  C   UNL     1      44.669   5.849  10.847  0.00  0.00    +0.000 A 
ATOM      6  C   UNL     1      44.201   7.045  11.399  0.00  0.00    +0.000 A 
ATOM      7  C   UNL     1      45.036   7.849  12.179  0.00  0.00    +0.000 A 
BRANCH   5   8
ATOM      8  N   UNL     1      43.746   5.015  10.200  0.00  0.00    +0.000 N 
ATOM      9  H   UNL     1      43.169   5.558   9.561  0.00  0.00    +0.000 HD
BRANCH   8  10
ATOM     10  C   UNL     1      44.252   3.782   9.582  0.00  0.00    +0.000 C 
BRANCH  10  11
ATOM     11  C   UNL     1      44.734   4.029   8.142  0.00  0.00    +0.000 C 
BRANCH  11  12
ATOM     12  C   UNL     1      45.812   3.065   7.725  0.00  0.00    +0.000 A 
ATOM     13  C   UNL     1      46.814   3.460   6.833  0.00  0.00    +0.000 A 
ATOM     14  C   UNL     1      47.781   2.536   6.470  0.00  0.00    +0.000 A 
ATOM     15  N   UNL     1      47.812   1.266   6.923  0.00  0.00    +0.000 NA
ATOM     16  C   UNL     1      46.837   0.906   7.786  0.00  0.00    +0.000 A 
ATOM     17  C   UNL     1      45.828   1.756   8.209  0.00  0.00    +0.000 A 
ENDBRANCH  11  12
ENDBRANCH  10  11
ENDBRANCH   8  10
ENDBRANCH   5   8
ENDBRANCH   1   2
BRANCH   1  20
ATOM     18  C   UNL     1      48.786   6.949  14.738  0.00  0.00    +0.000 C 
ATOM     19  O   UNL     1      49.664   7.108  13.895  0.00  0.00    +0.000 OA
ATOM     20  N   UNL     1      47.533   7.475  14.558  0.00  0.00    +0.000 N 
ATOM     21  H   UNL     1      46.806   7.332  15.246  0.00  0.00    +0.000 HD
BRANCH  18  29
ATOM     22  C   UNL     1      47.261   4.237  16.231  0.00  0.00    +0.000 A 
ATOM     23  N   UNL     1      46.854   3.236  17.038  0.00  0.00    +0.000 NA
ATOM     24  C   UNL     1      47.542   3.011  18.160  0.00  0.00    +0.000 A 
ATOM     25  N   UNL     1      48.608   3.677  18.588  0.00  0.00    +0.000 NA
ATOM     26  C   UNL     1      48.971   4.676  17.766  0.00  0.00    +0.000 A 
ATOM     27  S   UNL     1      50.317   5.630  18.160  0.00  0.00    +0.000 S 
ATOM     28  C   UNL     1      50.121   6.571  16.763  0.00  0.00    +0.000 A 
ATOM     29  C   UNL     1      49.043   6.189  15.972  0.00  0.00    +0.000 A 
ATOM     30  C   UNL     1      48.360   5.046  16.571  0.00  0.00    +0.000 A 
BRANCH  22  32
ATOM     31  C   UNL     1      47.019   3.603  14.004  0.00  0.00    +0.000 C 
ATOM     32  O   UNL     1      46.558   4.446  15.061  0.00  0.00    +0.000 OA
ENDBRANCH  22  32
ENDBRANCH  18  29
ENDBRANCH   1  20
TORSDOF 8
ENDMDL
MODEL 2
REMARK VINA RESULT:    -7.985      1.500      2.075
REMARK INTER + INTRA:         -13.081
REMARK INTER:                 -11.987
REMARK INTRA:                  -1.094
REMARK UNBOUND:                -1.361
REMARK  Name = 
REMARK  9 active torsions:
REMARK  status: ('A' for Active; 'I' for Inactive)
REMARK    1  A    between atoms: C_1  and  O_2
REMARK    2  A    between atoms: O_2  and  C_3
REMARK    3  A    between atoms: C_10  and  C_11
REMARK    4  A    between atoms: N_13  and  C_14
REMARK    5  A    between atoms: C_14  and  C_15
REMARK    6  A    between atoms: C_18  and  N_19
REMARK    7  A    between atoms: N_19  and  C_20
REMARK    8  A    between atoms: C_20  and  C_21
REMARK    9  A    between atoms: C_21  and  C_22
REMARK                            x       y       z     vdW  Elec       q    Type
REMARK                         _______ _______ _______ _____ _____    ______ ____
ROOT
ATOM      1  C   UNL     1      48.123   6.650  13.360  0.00  0.00    +0.000 C 
ENDROOT
BRANCH   1   2
ATOM      2  C   UNL     1      46.865   6.097  12.747  0.00  0.00    +0.000 A 
ATOM      3  C   UNL     1      46.181   6.809  11.757  0.00  0.00    +0.000 A 
ATOM      4  C   UNL     1      45.098   6.229  11.091  0.00  0.00    +0.000 A 
ATOM      5  C   UNL     1      44.704   4.916  11.369  0.00  0.00    +0.000 A 
ATOM      6  C   UNL     1      45.296   4.269  12.457  0.00  0.00    +0.000 A 
ATOM      7  C   UNL     1      46.371   4.848  13.136  0.00  0.00    +0.000 A 
BRANCH   5   8
ATOM      8  N   UNL     1      43.730   4.222  10.638  0.00  0.00    +0.000 N 
ATOM      9  H   UNL     1      43.079   4.877  10.209  0.00  0.00    +0.000 HD
BRANCH   8  10
ATOM     10  C   UNL     1      44.185   3.191   9.695  0.00  0.00    +0.000 C 
BRANCH  10  11
ATOM     11  C   UNL     1      44.848   3.815   8.454  0.00  0.00    +0.000 C 
BRANCH  11  12
ATOM     12  C   UNL     1      45.876   2.905   7.836  0.00  0.00    +0.000 A 
ATOM     13  C   UNL     1      45.989   1.575   8.250  0.00  0.00    +0.000 A 
ATOM     14  C   UNL     1      46.956   0.776   7.659  0.00  0.00    +0.000 A 
ATOM     15  N   UNL     1      47.807   1.210   6.706  0.00  0.00    +0.000 NA
ATOM     16  C   UNL     1      47.678   2.497   6.320  0.00  0.00    +0.000 A 
ATOM     17  C   UNL     1      46.743   3.373   6.848  0.00  0.00    +0.000 A 
ENDBRANCH  11  12
ENDBRANCH  10  11
ENDBRANCH   8  10
ENDBRANCH   5   8
ENDBRANCH   1   2
BRANCH   1  20
ATOM     18  C   UNL     1      49.164   7.031  15.536  0.00  0.00    +0.000 C 
ATOM     19  O   UNL     1      50.228   7.307  14.991  0.00  0.00    +0.000 OA
ATOM     20  N   UNL     1      48.063   6.683  14.796  0.00  0.00    +0.000 N 
ATOM     21  H   UNL     1      47.190   6.443  15.246  0.00  0.00    +0.000 HD
BRANCH  18  29
ATOM     22  C   UNL     1      48.924   4.587  17.961  0.00  0.00    +0.000 A 
ATOM     23  N   UNL     1      48.778   3.864  19.090  0.00  0.00    +0.000 NA
ATOM     24  C   UNL     1      48.660   4.519  20.247  0.00  0.00    +0.000 A 
ATOM     25  N   UNL     1      48.666   5.836  20.423  0.00  0.00    +0.000 NA
ATOM     26  C   UNL     1      48.795   6.519  19.274  0.00  0.00    +0.000 A 
ATOM     27  S   UNL     1      48.824   8.215  19.314  0.00  0.00    +0.000 S 
ATOM     28  C   UNL     1      48.989   8.302  17.628  0.00  0.00    +0.000 A 
ATOM     29  C   UNL     1      49.027   7.062  17.001  0.00  0.00    +0.000 A 
ATOM     30  C   UNL     1      48.920   5.994  17.991  0.00  0.00    +0.000 A 
BRANCH  22  32
ATOM     31  C   UNL     1      47.839   3.325  16.333  0.00  0.00    +0.000 C 
ATOM     32  O   UNL     1      49.070   3.902  16.772  0.00  0.00    +0.000 OA
ENDBRANCH  22  32
ENDBRANCH  18  29
ENDBRANCH   1  20
TORSDOF 8
ENDMDL
MODEL 3
REMARK VINA RESULT:    -7.871      2.067      3.433
REMARK INTER + INTRA:         -12.914
REMARK INTER:                 -11.884
REMARK INTRA:                  -1.029
REMARK UNBOUND:                -1.361
REMARK  Name = 
REMARK  9 active torsions:
REMARK  status: ('A' for Active; 'I' for Inactive)
REMARK    1  A    between atoms: C_1  and  O_2
REMARK    2  A    between atoms: O_2  and  C_3
REMARK    3  A    between atoms: C_10  and  C_11
REMARK    4  A    between atoms: N_13  and  C_14
REMARK    5  A    between atoms: C_14  and  C_15
REMARK    6  A    between atoms: C_18  and  N_19
REMARK    7  A    between atoms: N_19  and  C_20
REMARK    8  A    between atoms: C_20  and  C_21
REMARK    9  A    between atoms: C_21  and  C_22
REMARK                            x       y       z     vdW  Elec       q    Type
REMARK                         _______ _______ _______ _____ _____    ______ ____
ROOT
ATOM      1  C   UNL     1      47.150   3.539  14.840  0.00  0.00    +0.000 C 
ENDROOT
BRANCH   1   2
ATOM      2  C   UNL     1      46.536   4.246  13.662  0.00  0.00    +0.000 A 
ATOM      3  C   UNL     1      47.000   5.504  13.265  0.00  0.00    +0.000 A 
ATOM      4  C   UNL     1      46.527   6.090  12.088  0.00  0.00    +0.000 A 
ATOM      5  C   UNL     1      45.617   5.417  11.265  0.00  0.00    +0.000 A 
ATOM      6  C   UNL     1      45.052   4.232  11.743  0.00  0.00    +0.000 A 
ATOM      7  C   UNL     1      45.510   3.646  12.925  0.00  0.00    +0.000 A 
BRANCH   5   8
ATOM      8  N   UNL     1      45.220   5.877  10.002  0.00  0.00    +0.000 N 
ATOM      9  H   UNL     1      45.260   6.893   9.969  0.00  0.00    +0.000 HD
BRANCH   8  10
ATOM     10  C   UNL     1      45.835   5.256   8.821  0.00  0.00    +0.000 C 
BRANCH  10  11
ATOM     11  C   UNL     1      45.092   3.973   8.407  0.00  0.00    +0.000 C 
BRANCH  11  12
ATOM     12  C   UNL     1      46.005   2.968   7.757  0.00  0.00    +0.000 A 
ATOM     13  C   UNL     1      46.042   1.645   8.208  0.00  0.00    +0.000 A 
ATOM     14  C   UNL     1      46.904   0.756   7.586  0.00  0.00    +0.000 A 
ATOM     15  N   UNL     1      47.721   1.092   6.567  0.00  0.00    +0.000 NA
ATOM     16  C   UNL     1      47.667   2.374   6.145  0.00  0.00    +0.000 A 
ATOM     17  C   UNL     1      46.839   3.336   6.701  0.00  0.00    +0.000 A 
ENDBRANCH  11  12
ENDBRANCH  10  11
ENDBRANCH   8  10
ENDBRANCH   5   8
ENDBRANCH   1   2
BRANCH   1  20
ATOM     18  C   UNL     1      47.306   4.233  17.176  0.00  0.00    +0.000 C 
ATOM     19  O   UNL     1      46.644   3.260  17.522  0.00  0.00    +0.000 OA
ATOM     20  N   UNL     1      47.598   4.454  15.855  0.00  0.00    +0.000 N 
ATOM     21  H   UNL     1      48.132   5.264  15.569  0.00  0.00    +0.000 HD
BRANCH  18  29
ATOM     22  C   UNL     1      50.465   5.282  18.090  0.00  0.00    +0.000 A 
ATOM     23  N   UNL     1      51.552   5.839  18.662  0.00  0.00    +0.000 NA
ATOM     24  C   UNL     1      51.365   6.734  19.634  0.00  0.00    +0.000 A 
ATOM     25  N   UNL     1      50.201   7.152  20.120  0.00  0.00    +0.000 NA
ATOM     26  C   UNL     1      49.145   6.562  19.537  0.00  0.00    +0.000 A 
ATOM     27  S   UNL     1      47.578   6.981  20.036  0.00  0.00    +0.000 S 
ATOM     28  C   UNL     1      46.883   5.898  18.930  0.00  0.00    +0.000 A 
ATOM     29  C   UNL     1      47.811   5.201  18.163  0.00  0.00    +0.000 A 
ATOM     30  C   UNL     1      49.167   5.608  18.523  0.00  0.00    +0.000 A 
BRANCH  22  32
ATOM     31  C   UNL     1      50.828   3.044  17.561  0.00  0.00    +0.000 C 
ATOM     32  O   UNL     1      50.667   4.375  17.069  0.00  0.00    +0.000 OA
ENDBRANCH  22  32
ENDBRANCH  18  29
ENDBRANCH   1  20
TORSDOF 8
ENDMDL
MODEL 4
REMARK VINA RESULT:    -7.711      1.933      3.436
REMARK INTER + INTRA:         -12.678
REMARK INTER:                 -11.226
REMARK INTRA:                  -1.452
REMARK UNBOUND:                -1.361
REMARK  Name = 
REMARK  9 active torsions:
REMARK  status: ('A' for Active; 'I' for Inactive)
REMARK    1  A    between atoms: C_1  and  O_2
REMARK    2  A    between atoms: O_2  and  C_3
REMARK    3  A    between atoms: C_10  and  C_11
REMARK    4  A    between atoms: N_13  and  C_14
REMARK    5  A    between atoms: C_14  and  C_15
REMARK    6  A    between atoms: C_18  and  N_19
REMARK    7  A    between atoms: N_19  and  C_20
REMARK    8  A    between atoms: C_20  and  C_21
REMARK    9  A    between atoms: C_21  and  C_22
REMARK                            x       y       z     vdW  Elec       q    Type
REMARK                         _______ _______ _______ _____ _____    ______ ____
ROOT
ATOM      1  C   UNL     1      47.175   4.035  14.703  0.00  0.00    +0.000 C 
ENDROOT
BRANCH   1   2
ATOM      2  C   UNL     1      46.205   4.302  13.585  0.00  0.00    +0.000 A 
ATOM      3  C   UNL     1      45.838   5.611  13.256  0.00  0.00    +0.000 A 
ATOM      4  C   UNL     1      45.052   5.861  12.128  0.00  0.00    +0.000 A 
ATOM      5  C   UNL     1      44.653   4.818  11.285  0.00  0.00    +0.000 A 
ATOM      6  C   UNL     1      44.899   3.507  11.700  0.00  0.00    +0.000 A 
ATOM      7  C   UNL     1      45.673   3.248  12.834  0.00  0.00    +0.000 A 
BRANCH   5   8
ATOM      8  N   UNL     1      43.997   5.012  10.061  0.00  0.00    +0.000 N 
ATOM      9  H   UNL     1      44.081   5.983   9.767  0.00  0.00    +0.000 HD
BRANCH   8  10
ATOM     10  C   UNL     1      44.288   4.072   8.971  0.00  0.00    +0.000 C 
BRANCH  10  11
ATOM     11  C   UNL     1      45.582   4.450   8.230  0.00  0.00    +0.000 C 
BRANCH  11  12
ATOM     12  C   UNL     1      46.290   3.248   7.663  0.00  0.00    +0.000 A 
ATOM     13  C   UNL     1      47.091   3.368   6.523  0.00  0.00    +0.000 A 
ATOM     14  C   UNL     1      47.716   2.233   6.030  0.00  0.00    +0.000 A 
ATOM     15  N   UNL     1      47.593   1.009   6.584  0.00  0.00    +0.000 NA
ATOM     16  C   UNL     1      46.817   0.917   7.685  0.00  0.00    +0.000 A 
ATOM     17  C   UNL     1      46.152   1.992   8.253  0.00  0.00    +0.000 A 
ENDBRANCH  11  12
ENDBRANCH  10  11
ENDBRANCH   8  10
ENDBRANCH   5   8
ENDBRANCH   1   2
BRANCH   1  20
ATOM     18  C   UNL     1      48.406   5.203  16.459  0.00  0.00    +0.000 C 
ATOM     19  O   UNL     1      49.090   4.205  16.660  0.00  0.00    +0.000 OA
ATOM     20  N   UNL     1      47.421   5.203  15.505  0.00  0.00    +0.000 N 
ATOM     21  H   UNL     1      46.849   6.022  15.349  0.00  0.00    +0.000 HD
BRANCH  18  29
ATOM     22  C   UNL     1      48.647   8.540  15.606  0.00  0.00    +0.000 A 
ATOM     23  N   UNL     1      48.812   9.877  15.561  0.00  0.00    +0.000 NA
ATOM     24  C   UNL     1      49.017  10.526  16.709  0.00  0.00    +0.000 A 
ATOM     25  N   UNL     1      49.081   9.995  17.925  0.00  0.00    +0.000 NA
ATOM     26  C   UNL     1      48.930   8.660  17.925  0.00  0.00    +0.000 A 
ATOM     27  S   UNL     1      48.984   7.817  19.397  0.00  0.00    +0.000 S 
ATOM     28  C   UNL     1      48.742   6.333  18.612  0.00  0.00    +0.000 A 
ATOM     29  C   UNL     1      48.615   6.439  17.231  0.00  0.00    +0.000 A 
ATOM     30  C   UNL     1      48.719   7.837  16.822  0.00  0.00    +0.000 A 
BRANCH  22  32
ATOM     31  C   UNL     1      49.624   7.536  13.746  0.00  0.00    +0.000 C 
ATOM     32  O   UNL     1      48.410   7.879  14.416  0.00  0.00    +0.000 OA
ENDBRANCH  22  32
ENDBRANCH  18  29
ENDBRANCH   1  20
TORSDOF 8
ENDMDL
MODEL 5
REMARK VINA RESULT:    -7.693      2.415      3.237
REMARK INTER + INTRA:         -12.652
REMARK INTER:                 -11.392
REMARK INTRA:                  -1.260
REMARK UNBOUND:                -1.361
REMARK  Name = 
REMARK  9 active torsions:
REMARK  status: ('A' for Active; 'I' for Inactive)
REMARK    1  A    between atoms: C_1  and  O_2
REMARK    2  A    between atoms: O_2  and  C_3
REMARK    3  A    between atoms: C_10  and  C_11
REMARK    4  A    between atoms: N_13  and  C_14
REMARK    5  A    between atoms: C_14  and  C_15
REMARK    6  A    between atoms: C_18  and  N_19
REMARK    7  A    between atoms: N_19  and  C_20
REMARK    8  A    between atoms: C_20  and  C_21
REMARK    9  A    between atoms: C_21  and  C_22
REMARK                            x       y       z     vdW  Elec       q    Type
REMARK                         _______ _______ _______ _____ _____    ______ ____
ROOT
ATOM      1  C   UNL     1      48.498   6.976  14.074  0.00  0.00    +0.000 C 
ENDROOT
BRANCH   1   2
ATOM      2  C   UNL     1      47.527   6.235  13.195  0.00  0.00    +0.000 A 
ATOM      3  C   UNL     1      46.964   5.026  13.614  0.00  0.00    +0.000 A 
ATOM      4  C   UNL     1      45.958   4.416  12.860  0.00  0.00    +0.000 A 
ATOM      5  C   UNL     1      45.465   5.021  11.698  0.00  0.00    +0.000 A 
ATOM      6  C   UNL     1      46.132   6.148  11.211  0.00  0.00    +0.000 A 
ATOM      7  C   UNL     1      47.148   6.756  11.953  0.00  0.00    +0.000 A 
BRANCH   5   8
ATOM      8  N   UNL     1      44.359   4.546  10.980  0.00  0.00    +0.000 N 
ATOM      9  H   UNL     1      43.914   5.309  10.474  0.00  0.00    +0.000 HD
BRANCH   8  10
ATOM     10  C   UNL     1      44.546   3.355  10.142  0.00  0.00    +0.000 C 
BRANCH  10  11
ATOM     11  C   UNL     1      44.787   3.733   8.670  0.00  0.00    +0.000 C 
BRANCH  11  12
ATOM     12  C   UNL     1      45.861   2.892   8.031  0.00  0.00    +0.000 A 
ATOM     13  C   UNL     1      45.926   1.517   8.274  0.00  0.00    +0.000 A 
ATOM     14  C   UNL     1      46.937   0.784   7.673  0.00  0.00    +0.000 A 
ATOM     15  N   UNL     1      47.873   1.322   6.864  0.00  0.00    +0.000 NA
ATOM     16  C   UNL     1      47.790   2.651   6.641  0.00  0.00    +0.000 A 
ATOM     17  C   UNL     1      46.818   3.468   7.195  0.00  0.00    +0.000 A 
ENDBRANCH  11  12
ENDBRANCH  10  11
ENDBRANCH   8  10
ENDBRANCH   5   8
ENDBRANCH   1   2
BRANCH   1  20
ATOM     18  C   UNL     1      49.161   6.433  16.360  0.00  0.00    +0.000 C 
ATOM     19  O   UNL     1      50.302   6.185  15.983  0.00  0.00    +0.000 OA
ATOM     20  N   UNL     1      48.194   6.826  15.472  0.00  0.00    +0.000 N 
ATOM     21  H   UNL     1      47.250   7.016  15.781  0.00  0.00    +0.000 HD
BRANCH  18  29
ATOM     22  C   UNL     1      47.713   8.592  18.630  0.00  0.00    +0.000 A 
ATOM     23  N   UNL     1      47.207   9.218  19.712  0.00  0.00    +0.000 NA
ATOM     24  C   UNL     1      47.131   8.536  20.857  0.00  0.00    +0.000 A 
ATOM     25  N   UNL     1      47.507   7.279  21.063  0.00  0.00    +0.000 NA
ATOM     26  C   UNL     1      48.021   6.697  19.966  0.00  0.00    +0.000 A 
ATOM     27  S   UNL     1      48.551   5.087  20.050  0.00  0.00    +0.000 S 
ATOM     28  C   UNL     1      49.018   5.104  18.419  0.00  0.00    +0.000 A 
ATOM     29  C   UNL     1      48.785   6.316  17.779  0.00  0.00    +0.000 A 
ATOM     30  C   UNL     1      48.178   7.267  18.706  0.00  0.00    +0.000 A 
BRANCH  22  32
ATOM     31  C   UNL     1      48.947  10.095  17.348  0.00  0.00    +0.000 C 
ATOM     32  O   UNL     1      47.765   9.298  17.444  0.00  0.00    +0.000 OA
ENDBRANCH  22  32
ENDBRANCH  18  29
ENDBRANCH   1  20
TORSDOF 8
ENDMDL
MODEL 6
REMARK VINA RESULT:    -7.009      1.929      2.607
REMARK INTER + INTRA:         -11.648
REMARK INTER:                 -10.456
REMARK INTRA:                  -1.192
REMARK UNBOUND:                -1.361
REMARK  Name = 
REMARK  9 active torsions:
REMARK  status: ('A' for Active; 'I' for Inactive)
REMARK    1  A    between atoms: C_1  and  O_2
REMARK    2  A    between atoms: O_2  and  C_3
REMARK    3  A    between atoms: C_10  and  C_11
REMARK    4  A    between atoms: N_13  and  C_14
REMARK    5  A    between atoms: C_14  and  C_15
REMARK    6  A    between atoms: C_18  and  N_19
REMARK    7  A    between atoms: N_19  and  C_20
REMARK    8  A    between atoms: C_20  and  C_21
REMARK    9  A    between atoms: C_21  and  C_22
REMARK                            x       y       z     vdW  Elec       q    Type
REMARK                         _______ _______ _______ _____ _____    ______ ____
ROOT
ATOM      1  C   UNL     1      47.988   7.246  14.202  0.00  0.00    +0.000 C 
ENDROOT
BRANCH   1   2
ATOM      2  C   UNL     1      47.097   6.221  13.556  0.00  0.00    +0.000 A 
ATOM      3  C   UNL     1      46.553   6.445  12.287  0.00  0.00    +0.000 A 
ATOM      4  C   UNL     1      45.846   5.433  11.633  0.00  0.00    +0.000 A 
ATOM      5  C   UNL     1      45.705   4.167  12.211  0.00  0.00    +0.000 A 
ATOM      6  C   UNL     1      46.122   3.998  13.534  0.00  0.00    +0.000 A 
ATOM      7  C   UNL     1      46.818   5.011  14.200  0.00  0.00    +0.000 A 
BRANCH   5   8
ATOM      8  N   UNL     1      45.144   3.065  11.550  0.00  0.00    +0.000 N 
ATOM      9  H   UNL     1      44.654   2.469  12.213  0.00  0.00    +0.000 HD
BRANCH   8  10
ATOM     10  C   UNL     1      44.352   3.322  10.340  0.00  0.00    +0.000 C 
BRANCH  10  11
ATOM     11  C   UNL     1      44.429   2.143   9.354  0.00  0.00    +0.000 C 
BRANCH  11  12
ATOM     12  C   UNL     1      45.573   2.280   8.385  0.00  0.00    +0.000 A 
ATOM     13  C   UNL     1      46.361   1.174   8.054  0.00  0.00    +0.000 A 
ATOM     14  C   UNL     1      47.410   1.348   7.165  0.00  0.00    +0.000 A 
ATOM     15  N   UNL     1      47.723   2.532   6.599  0.00  0.00    +0.000 NA
ATOM     16  C   UNL     1      46.948   3.587   6.930  0.00  0.00    +0.000 A 
ATOM     17  C   UNL     1      45.878   3.513   7.808  0.00  0.00    +0.000 A 
ENDBRANCH  11  12
ENDBRANCH  10  11
ENDBRANCH   8  10
ENDBRANCH   5   8
ENDBRANCH   1   2
BRANCH   1  20
ATOM     18  C   UNL     1      49.234   6.652  16.216  0.00  0.00    +0.000 C 
ATOM     19  O   UNL     1      48.371   7.172  16.917  0.00  0.00    +0.000 OA
ATOM     20  N   UNL     1      49.126   6.652  14.850  0.00  0.00    +0.000 N 
ATOM     21  H   UNL     1      49.845   6.237  14.272  0.00  0.00    +0.000 HD
BRANCH  18  29
ATOM     22  C   UNL     1      50.041   3.389  16.998  0.00  0.00    +0.000 A 
ATOM     23  N   UNL     1      50.597   2.239  17.430  0.00  0.00    +0.000 NA
ATOM     24  C   UNL     1      51.818   2.290  17.966  0.00  0.00    +0.000 A 
ATOM     25  N   UNL     1      52.571   3.372  18.131  0.00  0.00    +0.000 NA
ATOM     26  C   UNL     1      51.976   4.498  17.705  0.00  0.00    +0.000 A 
ATOM     27  S   UNL     1      52.799   5.976  17.839  0.00  0.00    +0.000 S 
ATOM     28  C   UNL     1      51.495   6.820  17.156  0.00  0.00    +0.000 A 
ATOM     29  C   UNL     1      50.417   6.012  16.813  0.00  0.00    +0.000 A 
ATOM     30  C   UNL     1      50.712   4.618  17.135  0.00  0.00    +0.000 A 
BRANCH  22  32
ATOM     31  C   UNL     1      47.754   3.217  17.403  0.00  0.00    +0.000 C 
ATOM     32  O   UNL     1      48.788   3.322  16.422  0.00  0.00    +0.000 OA
ENDBRANCH  22  32
ENDBRANCH  18  29
ENDBRANCH   1  20
TORSDOF 8
ENDMDL
MODEL 7
REMARK VINA RESULT:    -6.995      3.231      4.964
REMARK INTER + INTRA:         -11.627
REMARK INTER:                 -10.313
REMARK INTRA:                  -1.314
REMARK UNBOUND:                -1.361
REMARK  Name = 
REMARK  9 active torsions:
REMARK  status: ('A' for Active; 'I' for Inactive)
REMARK    1  A    between atoms: C_1  and  O_2
REMARK    2  A    between atoms: O_2  and  C_3
REMARK    3  A    between atoms: C_10  and  C_11
REMARK    4  A    between atoms: N_13  and  C_14
REMARK    5  A    between atoms: C_14  and  C_15
REMARK    6  A    between atoms: C_18  and  N_19
REMARK    7  A    between atoms: N_19  and  C_20
REMARK    8  A    between atoms: C_20  and  C_21
REMARK    9  A    between atoms: C_21  and  C_22
REMARK                            x       y       z     vdW  Elec       q    Type
REMARK                         _______ _______ _______ _____ _____    ______ ____
ROOT
ATOM      1  C   UNL     1      48.211   6.586  14.490  0.00  0.00    +0.000 C 
ENDROOT
BRANCH   1   2
ATOM      2  C   UNL     1      47.310   6.017  13.429  0.00  0.00    +0.000 A 
ATOM      3  C   UNL     1      46.605   4.830  13.653  0.00  0.00    +0.000 A 
ATOM      4  C   UNL     1      45.661   4.384  12.724  0.00  0.00    +0.000 A 
ATOM      5  C   UNL     1      45.373   5.131  11.577  0.00  0.00    +0.000 A 
ATOM      6  C   UNL     1      46.183   6.234  11.291  0.00  0.00    +0.000 A 
ATOM      7  C   UNL     1      47.137   6.679  12.209  0.00  0.00    +0.000 A 
BRANCH   5   8
ATOM      8  N   UNL     1      44.337   4.823  10.685  0.00  0.00    +0.000 N 
ATOM      9  H   UNL     1      44.115   5.634  10.110  0.00  0.00    +0.000 HD
BRANCH   8  10
ATOM     10  C   UNL     1      44.457   3.593   9.891  0.00  0.00    +0.000 C 
BRANCH  10  11
ATOM     11  C   UNL     1      44.803   3.900   8.424  0.00  0.00    +0.000 C 
BRANCH  11  12
ATOM     12  C   UNL     1      45.867   2.983   7.882  0.00  0.00    +0.000 A 
ATOM     13  C   UNL     1      45.886   1.630   8.233  0.00  0.00    +0.000 A 
ATOM     14  C   UNL     1      46.889   0.825   7.718  0.00  0.00    +0.000 A 
ATOM     15  N   UNL     1      47.861   1.271   6.896  0.00  0.00    +0.000 NA
ATOM     16  C   UNL     1      47.822   2.581   6.567  0.00  0.00    +0.000 A 
ATOM     17  C   UNL     1      46.860   3.465   7.029  0.00  0.00    +0.000 A 
ENDBRANCH  11  12
ENDBRANCH  10  11
ENDBRANCH   8  10
ENDBRANCH   5   8
ENDBRANCH   1   2
BRANCH   1  20
ATOM     18  C   UNL     1      50.251   7.924  14.614  0.00  0.00    +0.000 C 
ATOM     19  O   UNL     1      49.854   8.455  15.647  0.00  0.00    +0.000 OA
ATOM     20  N   UNL     1      49.489   6.986  13.966  0.00  0.00    +0.000 N 
ATOM     21  H   UNL     1      49.810   6.560  13.107  0.00  0.00    +0.000 HD
BRANCH  18  29
ATOM     22  C   UNL     1      51.295   8.766  11.434  0.00  0.00    +0.000 A 
ATOM     23  N   UNL     1      51.975   9.080  10.313  0.00  0.00    +0.000 NA
ATOM     24  C   UNL     1      53.292   9.277  10.408  0.00  0.00    +0.000 A 
ATOM     25  N   UNL     1      54.032   9.195  11.508  0.00  0.00    +0.000 NA
ATOM     26  C   UNL     1      53.321   8.862  12.598  0.00  0.00    +0.000 A 
ATOM     27  S   UNL     1      54.111   8.715  14.093  0.00  0.00    +0.000 S 
ATOM     28  C   UNL     1      52.661   8.307  14.874  0.00  0.00    +0.000 A 
ATOM     29  C   UNL     1      51.556   8.273  14.031  0.00  0.00    +0.000 A 
ATOM     30  C   UNL     1      51.953   8.616  12.667  0.00  0.00    +0.000 A 
BRANCH  22  32
ATOM     31  C   UNL     1      49.218   9.820  11.475  0.00  0.00    +0.000 C 
ATOM     32  O   UNL     1      49.929   8.589  11.330  0.00  0.00    +0.000 OA
ENDBRANCH  22  32
ENDBRANCH  18  29
ENDBRANCH   1  20
TORSDOF 8
ENDMDL
MODEL 8
REMARK VINA RESULT:    -6.762      3.267      7.529
REMARK INTER + INTRA:         -11.286
REMARK INTER:                  -9.571
REMARK INTRA:                  -1.715
REMARK UNBOUND:                -1.361
REMARK  Name = 
REMARK  9 active torsions:
REMARK  status: ('A' for Active; 'I' for Inactive)
REMARK    1  A    between atoms: C_1  and  O_2
REMARK    2  A    between atoms: O_2  and  C_3
REMARK    3  A    between atoms: C_10  and  C_11
REMARK    4  A    between atoms: N_13  and  C_14
REMARK    5  A    between atoms: C_14  and  C_15
REMARK    6  A    between atoms: C_18  and  N_19
REMARK    7  A    between atoms: N_19  and  C_20
REMARK    8  A    between atoms: C_20  and  C_21
REMARK    9  A    between atoms: C_21  and  C_22
REMARK                            x       y       z     vdW  Elec       q    Type
REMARK                         _______ _______ _______ _____ _____    ______ ____
ROOT
ATOM      1  C   UNL     1      48.309   8.067  11.962  0.00  0.00    +0.000 C 
ENDROOT
BRANCH   1   2
ATOM      2  C   UNL     1      48.532   7.945  13.445  0.00  0.00    +0.000 A 
ATOM      3  C   UNL     1      48.162   8.979  14.309  0.00  0.00    +0.000 A 
ATOM      4  C   UNL     1      48.238   8.803  15.694  0.00  0.00    +0.000 A 
ATOM      5  C   UNL     1      48.643   7.581  16.241  0.00  0.00    +0.000 A 
ATOM      6  C   UNL     1      49.147   6.608  15.375  0.00  0.00    +0.000 A 
ATOM      7  C   UNL     1      49.087   6.782  13.990  0.00  0.00    +0.000 A 
BRANCH   5   8
ATOM      8  N   UNL     1      48.596   7.286  17.611  0.00  0.00    +0.000 N 
ATOM      9  H   UNL     1      48.387   8.127  18.145  0.00  0.00    +0.000 HD
BRANCH   8  10
ATOM     10  C   UNL     1      47.785   6.139  18.038  0.00  0.00    +0.000 C 
BRANCH  10  11
ATOM     11  C   UNL     1      48.636   5.090  18.776  0.00  0.00    +0.000 C 
BRANCH  11  12
ATOM     12  C   UNL     1      49.013   3.932  17.890  0.00  0.00    +0.000 A 
ATOM     13  C   UNL     1      48.060   3.333  17.060  0.00  0.00    +0.000 A 
ATOM     14  C   UNL     1      48.449   2.263  16.268  0.00  0.00    +0.000 A 
ATOM     15  N   UNL     1      49.699   1.757  16.253  0.00  0.00    +0.000 NA
ATOM     16  C   UNL     1      50.604   2.353  17.061  0.00  0.00    +0.000 A 
ATOM     17  C   UNL     1      50.313   3.427  17.887  0.00  0.00    +0.000 A 
ENDBRANCH  11  12
ENDBRANCH  10  11
ENDBRANCH   8  10
ENDBRANCH   5   8
ENDBRANCH   1   2
BRANCH   1  20
ATOM     18  C   UNL     1      46.253   6.905  11.340  0.00  0.00    +0.000 C 
ATOM     19  O   UNL     1      45.583   7.848  11.748  0.00  0.00    +0.000 OA
ATOM     20  N   UNL     1      47.622   6.927  11.416  0.00  0.00    +0.000 N 
ATOM     21  H   UNL     1      48.173   6.144  11.092  0.00  0.00    +0.000 HD
BRANCH  18  29
ATOM     22  C   UNL     1      44.439   4.278  12.654  0.00  0.00    +0.000 A 
ATOM     23  N   UNL     1      43.750   3.144  12.889  0.00  0.00    +0.000 NA
ATOM     24  C   UNL     1      43.450   2.361  11.851  0.00  0.00    +0.000 A 
ATOM     25  N   UNL     1      43.761   2.572  10.577  0.00  0.00    +0.000 NA
ATOM     26  C   UNL     1      44.462   3.702  10.386  0.00  0.00    +0.000 A 
ATOM     27  S   UNL     1      44.941   4.129   8.816  0.00  0.00    +0.000 S 
ATOM     28  C   UNL     1      45.706   5.535   9.378  0.00  0.00    +0.000 A 
ATOM     29  C   UNL     1      45.616   5.714  10.754  0.00  0.00    +0.000 A 
ATOM     30  C   UNL     1      44.861   4.618  11.356  0.00  0.00    +0.000 A 
BRANCH  22  32
ATOM     31  C   UNL     1      46.019   4.830  14.274  0.00  0.00    +0.000 C 
ATOM     32  O   UNL     1      44.724   5.094  13.731  0.00  0.00    +0.000 OA
ENDBRANCH  22  32
ENDBRANCH  18  29
ENDBRANCH   1  20
TORSDOF 8
ENDMDL
MODEL 9
REMARK VINA RESULT:    -6.675      2.421      3.833
REMARK INTER + INTRA:         -11.157
REMARK INTER:                 -10.058
REMARK INTRA:                  -1.100
REMARK UNBOUND:                -1.361
REMARK  Name = 
REMARK  9 active torsions:
REMARK  status: ('A' for Active; 'I' for Inactive)
REMARK    1  A    between atoms: C_1  and  O_2
REMARK    2  A    between atoms: O_2  and  C_3
REMARK    3  A    between atoms: C_10  and  C_11
REMARK    4  A    between atoms: N_13  and  C_14
REMARK    5  A    between atoms: C_14  and  C_15
REMARK    6  A    between atoms: C_18  and  N_19
REMARK    7  A    between atoms: N_19  and  C_20
REMARK    8  A    between atoms: C_20  and  C_21
REMARK    9  A    between atoms: C_21  and  C_22
REMARK                            x       y       z     vdW  Elec       q    Type
REMARK                         _______ _______ _______ _____ _____    ______ ____
ROOT
ATOM      1  C   UNL     1      47.555   8.804  13.983  0.00  0.00    +0.000 C 
ENDROOT
BRANCH   1   2
ATOM      2  C   UNL     1      46.702   7.923  13.111  0.00  0.00    +0.000 A 
ATOM      3  C   UNL     1      45.482   8.384  12.607  0.00  0.00    +0.000 A 
ATOM      4  C   UNL     1      44.765   7.618  11.684  0.00  0.00    +0.000 A 
ATOM      5  C   UNL     1      45.270   6.400  11.215  0.00  0.00    +0.000 A 
ATOM      6  C   UNL     1      46.412   5.882  11.832  0.00  0.00    +0.000 A 
ATOM      7  C   UNL     1      47.127   6.636  12.766  0.00  0.00    +0.000 A 
BRANCH   5   8
ATOM      8  N   UNL     1      44.682   5.658  10.182  0.00  0.00    +0.000 N 
ATOM      9  H   UNL     1      43.928   6.189   9.752  0.00  0.00    +0.000 HD
BRANCH   8  10
ATOM     10  C   UNL     1      45.571   5.045   9.186  0.00  0.00    +0.000 C 
BRANCH  10  11
ATOM     11  C   UNL     1      44.890   3.864   8.473  0.00  0.00    +0.000 C 
BRANCH  11  12
ATOM     12  C   UNL     1      45.883   2.937   7.823  0.00  0.00    +0.000 A 
ATOM     13  C   UNL     1      45.975   1.601   8.223  0.00  0.00    +0.000 A 
ATOM     14  C   UNL     1      46.911   0.786   7.605  0.00  0.00    +0.000 A 
ATOM     15  N   UNL     1      47.749   1.208   6.636  0.00  0.00    +0.000 NA
ATOM     16  C   UNL     1      47.641   2.502   6.263  0.00  0.00    +0.000 A 
ATOM     17  C   UNL     1      46.738   3.394   6.820  0.00  0.00    +0.000 A 
ENDBRANCH  11  12
ENDBRANCH  10  11
ENDBRANCH   8  10
ENDBRANCH   5   8
ENDBRANCH   1   2
BRANCH   1  20
ATOM     18  C   UNL     1      49.059   8.060  15.758  0.00  0.00    +0.000 C 
ATOM     19  O   UNL     1      48.325   8.560  16.605  0.00  0.00    +0.000 OA
ATOM     20  N   UNL     1      48.754   8.143  14.424  0.00  0.00    +0.000 N 
ATOM     21  H   UNL     1      49.365   7.743  13.725  0.00  0.00    +0.000 HD
BRANCH  18  29
ATOM     22  C   UNL     1      52.294   8.093  14.557  0.00  0.00    +0.000 A 
ATOM     23  N   UNL     1      53.597   7.880  14.280  0.00  0.00    +0.000 NA
ATOM     24  C   UNL     1      54.268   7.008  15.036  0.00  0.00    +0.000 A 
ATOM     25  N   UNL     1      53.791   6.304  16.055  0.00  0.00    +0.000 NA
ATOM     26  C   UNL     1      52.487   6.530  16.287  0.00  0.00    +0.000 A 
ATOM     27  S   UNL     1      51.714   5.713  17.557  0.00  0.00    +0.000 S 
ATOM     28  C   UNL     1      50.236   6.472  17.212  0.00  0.00    +0.000 A 
ATOM     29  C   UNL     1      50.293   7.354  16.139  0.00  0.00    +0.000 A 
ATOM     30  C   UNL     1      51.646   7.395  15.591  0.00  0.00    +0.000 A 
BRANCH  22  32
ATOM     31  C   UNL     1      51.796   8.779  12.388  0.00  0.00    +0.000 C 
ATOM     32  O   UNL     1      51.614   9.015  13.785  0.00  0.00    +0.000 OA
ENDBRANCH  22  32
ENDBRANCH  18  29
ENDBRANCH   1  20
TORSDOF 8
ENDMDL
