MODEL 1
REMARK VINA RESULT:    -7.754      0.000      0.000
REMARK INTER + INTRA:         -11.505
REMARK INTER:                 -10.700
REMARK INTRA:                  -0.804
REMARK UNBOUND:                -0.804
REMARK  Name = 
REMARK  7 active torsions:
REMARK  status: ('A' for Active; 'I' for Inactive)
REMARK    1  A    between atoms: N_1  and  C_2
REMARK    2  A    between atoms: C_2  and  C_3
REMARK    3  A    between atoms: C_7  and  O_8
REMARK    4  A    between atoms: O_8  and  C_9
REMARK    5  A    between atoms: C_9  and  C_10
REMARK    6  A    between atoms: C_10  and  C_11
REMARK    7  A    between atoms: C_13  and  C_14
REMARK                            x       y       z     vdW  Elec       q    Type
REMARK                         _______ _______ _______ _____ _____    ______ ____
ROOT
ATOM      1  C   UNL     1      43.304   3.500  11.183  0.00  0.00    +0.000 C 
ENDROOT
BRANCH   1   2
ATOM      2  O   UNL     1      43.779   2.452  10.327  0.00  0.00    +0.000 OA
BRANCH   2   7
ATOM      3  C   UNL     1      46.414   2.054   7.823  0.00  0.00    +0.000 A 
ATOM      4  C   UNL     1      46.623   3.380   7.418  0.00  0.00    +0.000 A 
ATOM      5  C   UNL     1      45.888   4.417   7.987  0.00  0.00    +0.000 A 
ATOM      6  C   UNL     1      44.929   4.143   8.961  0.00  0.00    +0.000 A 
ATOM      7  C   UNL     1      44.698   2.831   9.379  0.00  0.00    +0.000 A 
ATOM      8  C   UNL     1      45.449   1.792   8.812  0.00  0.00    +0.000 A 
BRANCH   3   9
ATOM      9  C   UNL     1      47.185   0.936   7.168  0.00  0.00    +0.000 C 
BRANCH   9  10
ATOM     10  N   UNL     1      46.831  -0.367   7.722  0.00  0.00    +0.000 NA
ATOM     11  H   UNL     1      46.238  -0.233   8.537  0.00  0.00    +0.000 HD
ATOM     12  H   UNL     1      47.681  -0.821   8.054  0.00  0.00    +0.000 HD
ENDBRANCH   9  10
ENDBRANCH   3   9
ENDBRANCH   2   7
ENDBRANCH   1   2
BRANCH   1  13
ATOM     13  C   UNL     1      43.822   3.319  12.605  0.00  0.00    +0.000 C 
BRANCH  13  14
ATOM     14  C   UNL     1      44.967   4.244  12.923  0.00  0.00    +0.000 A 
ATOM     15  C   UNL     1      44.945   5.564  12.482  0.00  0.00    +0.000 A 
ATOM     16  C   UNL     1      46.007   6.413  12.808  0.00  0.00    +0.000 A 
ATOM     17  C   UNL     1      47.067   5.897  13.560  0.00  0.00    +0.000 A 
ATOM     18  C   UNL     1      47.014   4.571  13.949  0.00  0.00    +0.000 A 
ATOM     19  N   UNL     1      45.991   3.739  13.650  0.00  0.00    +0.000 NA
BRANCH  16  20
ATOM     20  C   UNL     1      46.012   7.851  12.371  0.00  0.00    +0.000 C 
ATOM     21  F   UNL     1      47.196   8.251  11.827  0.00  0.00    +0.000 F 
ATOM     22  F   UNL     1      45.064   8.111  11.429  0.00  0.00    +0.000 F 
ATOM     23  F   UNL     1      45.765   8.710  13.398  0.00  0.00    +0.000 F 
ENDBRANCH  16  20
ENDBRANCH  13  14
ENDBRANCH   1  13
TORSDOF 7
ENDMDL
MODEL 2
REMARK VINA RESULT:    -7.368      3.752      6.506
REMARK INTER + INTRA:         -10.972
REMARK INTER:                 -10.290
REMARK INTRA:                  -0.682
REMARK UNBOUND:                -0.804
REMARK  Name = 
REMARK  7 active torsions:
REMARK  status: ('A' for Active; 'I' for Inactive)
REMARK    1  A    between atoms: N_1  and  C_2
REMARK    2  A    between atoms: C_2  and  C_3
REMARK    3  A    between atoms: C_7  and  O_8
REMARK    4  A    between atoms: O_8  and  C_9
REMARK    5  A    between atoms: C_9  and  C_10
REMARK    6  A    between atoms: C_10  and  C_11
REMARK    7  A    between atoms: C_13  and  C_14
REMARK                            x       y       z     vdW  Elec       q    Type
REMARK                         _______ _______ _______ _____ _____    ______ ____
ROOT
ATOM      1  C   UNL     1      43.389   3.589  11.879  0.00  0.00    +0.000 C 
ENDROOT
BRANCH   1   2
ATOM      2  O   UNL     1      44.244   3.630  13.030  0.00  0.00    +0.000 OA
BRANCH   2   7
ATOM      3  C   UNL     1      45.486   7.031  12.516  0.00  0.00    +0.000 A 
ATOM      4  C   UNL     1      46.773   6.949  13.065  0.00  0.00    +0.000 A 
ATOM      5  C   UNL     1      47.237   5.752  13.605  0.00  0.00    +0.000 A 
ATOM      6  C   UNL     1      46.418   4.623  13.611  0.00  0.00    +0.000 A 
ATOM      7  C   UNL     1      45.130   4.679  13.073  0.00  0.00    +0.000 A 
ATOM      8  C   UNL     1      44.673   5.884  12.520  0.00  0.00    +0.000 A 
BRANCH   3   9
ATOM      9  C   UNL     1      44.980   8.345  11.975  0.00  0.00    +0.000 C 
BRANCH   9  10
ATOM     10  N   UNL     1      43.764   8.176  11.186  0.00  0.00    +0.000 NA
ATOM     11  H   UNL     1      43.411   9.092  10.918  0.00  0.00    +0.000 HD
ATOM     12  H   UNL     1      43.049   7.752  11.776  0.00  0.00    +0.000 HD
ENDBRANCH   9  10
ENDBRANCH   3   9
ENDBRANCH   2   7
ENDBRANCH   1   2
BRANCH   1  13
ATOM     13  C   UNL     1      43.762   2.424  10.967  0.00  0.00    +0.000 C 
BRANCH  13  14
ATOM     14  C   UNL     1      44.619   2.854   9.805  0.00  0.00    +0.000 A 
ATOM     15  C   UNL     1      45.363   1.915   9.099  0.00  0.00    +0.000 A 
ATOM     16  C   UNL     1      46.134   2.332   8.009  0.00  0.00    +0.000 A 
ATOM     17  C   UNL     1      46.138   3.689   7.675  0.00  0.00    +0.000 A 
ATOM     18  C   UNL     1      45.376   4.557   8.437  0.00  0.00    +0.000 A 
ATOM     19  N   UNL     1      44.619   4.170   9.487  0.00  0.00    +0.000 NA
BRANCH  16  20
ATOM     20  C   UNL     1      46.936   1.348   7.204  0.00  0.00    +0.000 C 
ATOM     21  F   UNL     1      48.283   1.508   7.332  0.00  0.00    +0.000 F 
ATOM     22  F   UNL     1      46.681   0.058   7.558  0.00  0.00    +0.000 F 
ATOM     23  F   UNL     1      46.676   1.429   5.870  0.00  0.00    +0.000 F 
ENDBRANCH  16  20
ENDBRANCH  13  14
ENDBRANCH   1  13
TORSDOF 7
ENDMDL
MODEL 3
REMARK VINA RESULT:    -7.228      1.593      2.096
REMARK INTER + INTRA:         -10.779
REMARK INTER:                 -10.044
REMARK INTRA:                  -0.735
REMARK UNBOUND:                -0.804
REMARK  Name = 
REMARK  7 active torsions:
REMARK  status: ('A' for Active; 'I' for Inactive)
REMARK    1  A    between atoms: N_1  and  C_2
REMARK    2  A    between atoms: C_2  and  C_3
REMARK    3  A    between atoms: C_7  and  O_8
REMARK    4  A    between atoms: O_8  and  C_9
REMARK    5  A    between atoms: C_9  and  C_10
REMARK    6  A    between atoms: C_10  and  C_11
REMARK    7  A    between atoms: C_13  and  C_14
REMARK                            x       y       z     vdW  Elec       q    Type
REMARK                         _______ _______ _______ _____ _____    ______ ____
ROOT
ATOM      1  C   UNL     1      44.159   2.743  11.634  0.00  0.00    +0.000 C 
ENDROOT
BRANCH   1   2
ATOM      2  O   UNL     1      43.764   2.563  10.267  0.00  0.00    +0.000 OA
BRANCH   2   7
ATOM      3  C   UNL     1      46.425   2.060   7.810  0.00  0.00    +0.000 A 
ATOM      4  C   UNL     1      46.674   3.373   7.388  0.00  0.00    +0.000 A 
ATOM      5  C   UNL     1      45.957   4.438   7.929  0.00  0.00    +0.000 A 
ATOM      6  C   UNL     1      44.977   4.203   8.892  0.00  0.00    +0.000 A 
ATOM      7  C   UNL     1      44.707   2.904   9.327  0.00  0.00    +0.000 A 
ATOM      8  C   UNL     1      45.439   1.838   8.788  0.00  0.00    +0.000 A 
BRANCH   3   9
ATOM      9  C   UNL     1      47.177   0.912   7.184  0.00  0.00    +0.000 C 
BRANCH   9  10
ATOM     10  N   UNL     1      46.796  -0.371   7.767  0.00  0.00    +0.000 NA
ATOM     11  H   UNL     1      47.003  -0.360   8.762  0.00  0.00    +0.000 HD
ATOM     12  H   UNL     1      47.379  -1.100   7.357  0.00  0.00    +0.000 HD
ENDBRANCH   9  10
ENDBRANCH   3   9
ENDBRANCH   2   7
ENDBRANCH   1   2
BRANCH   1  13
ATOM     13  C   UNL     1      43.441   3.937  12.255  0.00  0.00    +0.000 C 
BRANCH  13  14
ATOM     14  C   UNL     1      44.299   5.176  12.278  0.00  0.00    +0.000 A 
ATOM     15  C   UNL     1      45.502   5.182  12.976  0.00  0.00    +0.000 A 
ATOM     16  C   UNL     1      46.295   6.334  12.965  0.00  0.00    +0.000 A 
ATOM     17  C   UNL     1      45.838   7.450  12.257  0.00  0.00    +0.000 A 
ATOM     18  C   UNL     1      44.625   7.362  11.599  0.00  0.00    +0.000 A 
ATOM     19  N   UNL     1      43.851   6.254  11.592  0.00  0.00    +0.000 NA
BRANCH  16  20
ATOM     20  C   UNL     1      47.612   6.377  13.687  0.00  0.00    +0.000 C 
ATOM     21  F   UNL     1      47.747   5.406  14.633  0.00  0.00    +0.000 F 
ATOM     22  F   UNL     1      48.671   6.223  12.844  0.00  0.00    +0.000 F 
ATOM     23  F   UNL     1      47.816   7.558  14.332  0.00  0.00    +0.000 F 
ENDBRANCH  16  20
ENDBRANCH  13  14
ENDBRANCH   1  13
TORSDOF 7
ENDMDL
MODEL 4
REMARK VINA RESULT:    -6.831      3.816      6.688
REMARK INTER + INTRA:         -10.231
REMARK INTER:                  -9.572
REMARK INTRA:                  -0.659
REMARK UNBOUND:                -0.804
REMARK  Name = 
REMARK  7 active torsions:
REMARK  status: ('A' for Active; 'I' for Inactive)
REMARK    1  A    between atoms: N_1  and  C_2
REMARK    2  A    between atoms: C_2  and  C_3
REMARK    3  A    between atoms: C_7  and  O_8
REMARK    4  A    between atoms: O_8  and  C_9
REMARK    5  A    between atoms: C_9  and  C_10
REMARK    6  A    between atoms: C_10  and  C_11
REMARK    7  A    between atoms: C_13  and  C_14
REMARK                            x       y       z     vdW  Elec       q    Type
REMARK                         _______ _______ _______ _____ _____    ______ ____
ROOT
ATOM      1  C   UNL     1      44.078   3.498  12.178  0.00  0.00    +0.000 C 
ENDROOT
BRANCH   1   2
ATOM      2  O   UNL     1      45.428   3.241  12.589  0.00  0.00    +0.000 OA
BRANCH   2   7
ATOM      3  C   UNL     1      47.518   5.343  14.730  0.00  0.00    +0.000 A 
ATOM      4  C   UNL     1      47.683   6.485  13.934  0.00  0.00    +0.000 A 
ATOM      5  C   UNL     1      47.088   6.562  12.677  0.00  0.00    +0.000 A 
ATOM      6  C   UNL     1      46.328   5.496  12.196  0.00  0.00    +0.000 A 
ATOM      7  C   UNL     1      46.152   4.346  12.968  0.00  0.00    +0.000 A 
ATOM      8  C   UNL     1      46.744   4.279  14.237  0.00  0.00    +0.000 A 
BRANCH   3   9
ATOM      9  C   UNL     1      48.204   5.254  16.070  0.00  0.00    +0.000 C 
BRANCH   9  10
ATOM     10  N   UNL     1      49.488   5.949  16.071  0.00  0.00    +0.000 NA
ATOM     11  H   UNL     1      49.806   6.063  15.112  0.00  0.00    +0.000 HD
ATOM     12  H   UNL     1      50.177   5.359  16.536  0.00  0.00    +0.000 HD
ENDBRANCH   9  10
ENDBRANCH   3   9
ENDBRANCH   2   7
ENDBRANCH   1   2
BRANCH   1  13
ATOM     13  C   UNL     1      43.732   2.707  10.921  0.00  0.00    +0.000 C 
BRANCH  13  14
ATOM     14  C   UNL     1      44.656   3.020   9.772  0.00  0.00    +0.000 A 
ATOM     15  C   UNL     1      45.355   1.999   9.137  0.00  0.00    +0.000 A 
ATOM     16  C   UNL     1      46.189   2.308   8.058  0.00  0.00    +0.000 A 
ATOM     17  C   UNL     1      46.299   3.645   7.662  0.00  0.00    +0.000 A 
ATOM     18  C   UNL     1      45.576   4.599   8.355  0.00  0.00    +0.000 A 
ATOM     19  N   UNL     1      44.759   4.316   9.394  0.00  0.00    +0.000 NA
BRANCH  16  20
ATOM     20  C   UNL     1      46.946   1.234   7.329  0.00  0.00    +0.000 C 
ATOM     21  F   UNL     1      48.297   1.401   7.363  0.00  0.00    +0.000 F 
ATOM     22  F   UNL     1      46.712  -0.006   7.843  0.00  0.00    +0.000 F 
ATOM     23  F   UNL     1      46.611   1.161   6.012  0.00  0.00    +0.000 F 
ENDBRANCH  16  20
ENDBRANCH  13  14
ENDBRANCH   1  13
TORSDOF 7
ENDMDL
MODEL 5
REMARK VINA RESULT:    -6.800      1.770      2.334
REMARK INTER + INTRA:         -10.188
REMARK INTER:                  -9.598
REMARK INTRA:                  -0.591
REMARK UNBOUND:                -0.804
REMARK  Name = 
REMARK  7 active torsions:
REMARK  status: ('A' for Active; 'I' for Inactive)
REMARK    1  A    between atoms: N_1  and  C_2
REMARK    2  A    between atoms: C_2  and  C_3
REMARK    3  A    between atoms: C_7  and  O_8
REMARK    4  A    between atoms: O_8  and  C_9
REMARK    5  A    between atoms: C_9  and  C_10
REMARK    6  A    between atoms: C_10  and  C_11
REMARK    7  A    between atoms: C_13  and  C_14
REMARK                            x       y       z     vdW  Elec       q    Type
REMARK                         _______ _______ _______ _____ _____    ______ ____
ROOT
ATOM      1  C   UNL     1      43.890   4.420  10.406  0.00  0.00    +0.000 C 
ENDROOT
BRANCH   1   2
ATOM      2  O   UNL     1      44.149   4.379   8.995  0.00  0.00    +0.000 OA
BRANCH   2   7
ATOM      3  C   UNL     1      46.725   2.670   7.044  0.00  0.00    +0.000 A 
ATOM      4  C   UNL     1      46.650   1.366   7.554  0.00  0.00    +0.000 A 
ATOM      5  C   UNL     1      45.730   1.049   8.550  0.00  0.00    +0.000 A 
ATOM      6  C   UNL     1      44.879   2.031   9.055  0.00  0.00    +0.000 A 
ATOM      7  C   UNL     1      44.937   3.338   8.567  0.00  0.00    +0.000 A 
ATOM      8  C   UNL     1      45.857   3.649   7.556  0.00  0.00    +0.000 A 
BRANCH   3   9
ATOM      9  C   UNL     1      47.757   3.010   5.997  0.00  0.00    +0.000 C 
BRANCH   9  10
ATOM     10  N   UNL     1      48.564   1.851   5.631  0.00  0.00    +0.000 NA
ATOM     11  H   UNL     1      48.217   1.467   4.755  0.00  0.00    +0.000 HD
ATOM     12  H   UNL     1      48.432   1.127   6.337  0.00  0.00    +0.000 HD
ENDBRANCH   9  10
ENDBRANCH   3   9
ENDBRANCH   2   7
ENDBRANCH   1   2
BRANCH   1  13
ATOM     13  C   UNL     1      44.209   5.798  10.977  0.00  0.00    +0.000 C 
BRANCH  13  14
ATOM     14  C   UNL     1      45.438   5.789  11.848  0.00  0.00    +0.000 A 
ATOM     15  C   UNL     1      46.472   6.689  11.610  0.00  0.00    +0.000 A 
ATOM     16  C   UNL     1      47.593   6.680  12.445  0.00  0.00    +0.000 A 
ATOM     17  C   UNL     1      47.639   5.752  13.489  0.00  0.00    +0.000 A 
ATOM     18  C   UNL     1      46.572   4.887  13.649  0.00  0.00    +0.000 A 
ATOM     19  N   UNL     1      45.477   4.888  12.857  0.00  0.00    +0.000 NA
BRANCH  16  20
ATOM     20  C   UNL     1      48.723   7.649  12.237  0.00  0.00    +0.000 C 
ATOM     21  F   UNL     1      49.875   7.059  11.811  0.00  0.00    +0.000 F 
ATOM     22  F   UNL     1      48.427   8.599  11.307  0.00  0.00    +0.000 F 
ATOM     23  F   UNL     1      49.047   8.325  13.373  0.00  0.00    +0.000 F 
ENDBRANCH  16  20
ENDBRANCH  13  14
ENDBRANCH   1  13
TORSDOF 7
ENDMDL
MODEL 6
REMARK VINA RESULT:    -6.698      3.334      6.161
REMARK INTER + INTRA:         -10.047
REMARK INTER:                  -9.461
REMARK INTRA:                  -0.586
REMARK UNBOUND:                -0.804
REMARK  Name = 
REMARK  7 active torsions:
REMARK  status: ('A' for Active; 'I' for Inactive)
REMARK    1  A    between atoms: N_1  and  C_2
REMARK    2  A    between atoms: C_2  and  C_3
REMARK    3  A    between atoms: C_7  and  O_8
REMARK    4  A    between atoms: O_8  and  C_9
REMARK    5  A    between atoms: C_9  and  C_10
REMARK    6  A    between atoms: C_10  and  C_11
REMARK    7  A    between atoms: C_13  and  C_14
REMARK                            x       y       z     vdW  Elec       q    Type
REMARK                         _______ _______ _______ _____ _____    ______ ____
ROOT
ATOM      1  C   UNL     1      43.173   4.768  11.138  0.00  0.00    +0.000 C 
ENDROOT
BRANCH   1   2
ATOM      2  O   UNL     1      43.340   5.875  12.035  0.00  0.00    +0.000 OA
BRANCH   2   7
ATOM      3  C   UNL     1      46.511   5.396  13.790  0.00  0.00    +0.000 A 
ATOM      4  C   UNL     1      47.262   6.484  13.322  0.00  0.00    +0.000 A 
ATOM      5  C   UNL     1      46.708   7.390  12.421  0.00  0.00    +0.000 A 
ATOM      6  C   UNL     1      45.400   7.217  11.969  0.00  0.00    +0.000 A 
ATOM      7  C   UNL     1      44.633   6.139  12.417  0.00  0.00    +0.000 A 
ATOM      8  C   UNL     1      45.192   5.237  13.333  0.00  0.00    +0.000 A 
BRANCH   3   9
ATOM      9  C   UNL     1      47.138   4.398  14.731  0.00  0.00    +0.000 C 
BRANCH   9  10
ATOM     10  N   UNL     1      47.288   3.085  14.110  0.00  0.00    +0.000 NA
ATOM     11  H   UNL     1      46.462   2.884  13.552  0.00  0.00    +0.000 HD
ATOM     12  H   UNL     1      47.320   2.380  14.846  0.00  0.00    +0.000 HD
ENDBRANCH   9  10
ENDBRANCH   3   9
ENDBRANCH   2   7
ENDBRANCH   1   2
BRANCH   1  13
ATOM     13  C   UNL     1      43.898   5.022   9.821  0.00  0.00    +0.000 C 
BRANCH  13  14
ATOM     14  C   UNL     1      44.519   3.771   9.256  0.00  0.00    +0.000 A 
ATOM     15  C   UNL     1      45.473   3.856   8.247  0.00  0.00    +0.000 A 
ATOM     16  C   UNL     1      46.055   2.684   7.754  0.00  0.00    +0.000 A 
ATOM     17  C   UNL     1      45.642   1.459   8.287  0.00  0.00    +0.000 A 
ATOM     18  C   UNL     1      44.680   1.464   9.282  0.00  0.00    +0.000 A 
ATOM     19  N   UNL     1      44.115   2.588   9.776  0.00  0.00    +0.000 NA
BRANCH  16  20
ATOM     20  C   UNL     1      47.105   2.731   6.680  0.00  0.00    +0.000 C 
ATOM     21  F   UNL     1      48.190   3.486   7.011  0.00  0.00    +0.000 F 
ATOM     22  F   UNL     1      47.592   1.496   6.375  0.00  0.00    +0.000 F 
ATOM     23  F   UNL     1      46.634   3.247   5.511  0.00  0.00    +0.000 F 
ENDBRANCH  16  20
ENDBRANCH  13  14
ENDBRANCH   1  13
TORSDOF 7
ENDMDL
MODEL 7
REMARK VINA RESULT:    -6.590      3.206      6.469
REMARK INTER + INTRA:          -9.898
REMARK INTER:                  -9.459
REMARK INTRA:                  -0.440
REMARK UNBOUND:                -0.804
REMARK  Name = 
REMARK  7 active torsions:
REMARK  status: ('A' for Active; 'I' for Inactive)
REMARK    1  A    between atoms: N_1  and  C_2
REMARK    2  A    between atoms: C_2  and  C_3
REMARK    3  A    between atoms: C_7  and  O_8
REMARK    4  A    between atoms: O_8  and  C_9
REMARK    5  A    between atoms: C_9  and  C_10
REMARK    6  A    between atoms: C_10  and  C_11
REMARK    7  A    between atoms: C_13  and  C_14
REMARK                            x       y       z     vdW  Elec       q    Type
REMARK                         _______ _______ _______ _____ _____    ______ ____
ROOT
ATOM      1  C   UNL     1      44.567   5.583  12.418  0.00  0.00    +0.000 C 
ENDROOT
BRANCH   1   2
ATOM      2  O   UNL     1      45.835   4.912  12.436  0.00  0.00    +0.000 OA
BRANCH   2   7
ATOM      3  C   UNL     1      47.648   4.668  15.602  0.00  0.00    +0.000 A 
ATOM      4  C   UNL     1      48.389   5.858  15.598  0.00  0.00    +0.000 A 
ATOM      5  C   UNL     1      48.280   6.755  14.537  0.00  0.00    +0.000 A 
ATOM      6  C   UNL     1      47.436   6.471  13.464  0.00  0.00    +0.000 A 
ATOM      7  C   UNL     1      46.691   5.289  13.442  0.00  0.00    +0.000 A 
ATOM      8  C   UNL     1      46.796   4.396  14.517  0.00  0.00    +0.000 A 
BRANCH   3   9
ATOM      9  C   UNL     1      47.810   3.685  16.734  0.00  0.00    +0.000 C 
BRANCH   9  10
ATOM     10  N   UNL     1      46.525   3.309  17.315  0.00  0.00    +0.000 NA
ATOM     11  H   UNL     1      45.783   3.530  16.656  0.00  0.00    +0.000 HD
ATOM     12  H   UNL     1      46.360   3.884  18.141  0.00  0.00    +0.000 HD
ENDBRANCH   9  10
ENDBRANCH   3   9
ENDBRANCH   2   7
ENDBRANCH   1   2
BRANCH   1  13
ATOM     13  C   UNL     1      43.972   5.583  11.014  0.00  0.00    +0.000 C 
BRANCH  13  14
ATOM     14  C   UNL     1      44.353   4.356  10.227  0.00  0.00    +0.000 A 
ATOM     15  C   UNL     1      45.256   4.452   9.173  0.00  0.00    +0.000 A 
ATOM     16  C   UNL     1      45.614   3.297   8.471  0.00  0.00    +0.000 A 
ATOM     17  C   UNL     1      45.036   2.081   8.849  0.00  0.00    +0.000 A 
ATOM     18  C   UNL     1      44.140   2.077   9.903  0.00  0.00    +0.000 A 
ATOM     19  N   UNL     1      43.790   3.182  10.597  0.00  0.00    +0.000 NA
BRANCH  16  20
ATOM     20  C   UNL     1      46.603   3.351   7.340  0.00  0.00    +0.000 C 
ATOM     21  F   UNL     1      47.559   2.383   7.406  0.00  0.00    +0.000 F 
ATOM     22  F   UNL     1      46.008   3.203   6.124  0.00  0.00    +0.000 F 
ATOM     23  F   UNL     1      47.272   4.535   7.288  0.00  0.00    +0.000 F 
ENDBRANCH  16  20
ENDBRANCH  13  14
ENDBRANCH   1  13
TORSDOF 7
ENDMDL
MODEL 8
REMARK VINA RESULT:    -6.542      3.450      6.443
REMARK INTER + INTRA:          -9.832
REMARK INTER:                  -9.129
REMARK INTRA:                  -0.703
REMARK UNBOUND:                -0.804
REMARK  Name = 
REMARK  7 active torsions:
REMARK  status: ('A' for Active; 'I' for Inactive)
REMARK    1  A    between atoms: N_1  and  C_2
REMARK    2  A    between atoms: C_2  and  C_3
REMARK    3  A    between atoms: C_7  and  O_8
REMARK    4  A    between atoms: O_8  and  C_9
REMARK    5  A    between atoms: C_9  and  C_10
REMARK    6  A    between atoms: C_10  and  C_11
REMARK    7  A    between atoms: C_13  and  C_14
REMARK                            x       y       z     vdW  Elec       q    Type
REMARK                         _______ _______ _______ _____ _____    ______ ____
ROOT
ATOM      1  C   UNL     1      43.547   4.923  12.208  0.00  0.00    +0.000 C 
ENDROOT
BRANCH   1   2
ATOM      2  O   UNL     1      43.966   6.045  12.997  0.00  0.00    +0.000 OA
BRANCH   2   7
ATOM      3  C   UNL     1      46.842   8.219  12.390  0.00  0.00    +0.000 A 
ATOM      4  C   UNL     1      47.912   7.333  12.574  0.00  0.00    +0.000 A 
ATOM      5  C   UNL     1      47.677   5.998  12.895  0.00  0.00    +0.000 A 
ATOM      6  C   UNL     1      46.371   5.533  13.045  0.00  0.00    +0.000 A 
ATOM      7  C   UNL     1      45.288   6.397  12.871  0.00  0.00    +0.000 A 
ATOM      8  C   UNL     1      45.530   7.737  12.537  0.00  0.00    +0.000 A 
BRANCH   3   9
ATOM      9  C   UNL     1      47.112   9.672  12.087  0.00  0.00    +0.000 C 
BRANCH   9  10
ATOM     10  N   UNL     1      45.934  10.503  12.316  0.00  0.00    +0.000 NA
ATOM     11  H   UNL     1      45.777  10.591  13.317  0.00  0.00    +0.000 HD
ATOM     12  H   UNL     1      45.118  10.024  11.935  0.00  0.00    +0.000 HD
ENDBRANCH   9  10
ENDBRANCH   3   9
ENDBRANCH   2   7
ENDBRANCH   1   2
BRANCH   1  13
ATOM     13  C   UNL     1      43.669   5.229  10.719  0.00  0.00    +0.000 C 
BRANCH  13  14
ATOM     14  C   UNL     1      44.246   4.076   9.940  0.00  0.00    +0.000 A 
ATOM     15  C   UNL     1      45.184   4.307   8.939  0.00  0.00    +0.000 A 
ATOM     16  C   UNL     1      45.726   3.221   8.244  0.00  0.00    +0.000 A 
ATOM     17  C   UNL     1      45.291   1.934   8.575  0.00  0.00    +0.000 A 
ATOM     18  C   UNL     1      44.347   1.795   9.577  0.00  0.00    +0.000 A 
ATOM     19  N   UNL     1      43.821   2.832  10.264  0.00  0.00    +0.000 NA
BRANCH  16  20
ATOM     20  C   UNL     1      46.758   3.423   7.170  0.00  0.00    +0.000 C 
ATOM     21  F   UNL     1      47.284   4.680   7.149  0.00  0.00    +0.000 F 
ATOM     22  F   UNL     1      47.818   2.579   7.304  0.00  0.00    +0.000 F 
ATOM     23  F   UNL     1      46.261   3.205   5.921  0.00  0.00    +0.000 F 
ENDBRANCH  16  20
ENDBRANCH  13  14
ENDBRANCH   1  13
TORSDOF 7
ENDMDL
MODEL 9
REMARK VINA RESULT:    -6.249      3.432      6.397
REMARK INTER + INTRA:          -9.428
REMARK INTER:                  -8.839
REMARK INTRA:                  -0.590
REMARK UNBOUND:                -0.804
REMARK  Name = 
REMARK  7 active torsions:
REMARK  status: ('A' for Active; 'I' for Inactive)
REMARK    1  A    between atoms: N_1  and  C_2
REMARK    2  A    between atoms: C_2  and  C_3
REMARK    3  A    between atoms: C_7  and  O_8
REMARK    4  A    between atoms: O_8  and  C_9
REMARK    5  A    between atoms: C_9  and  C_10
REMARK    6  A    between atoms: C_10  and  C_11
REMARK    7  A    between atoms: C_13  and  C_14
REMARK                            x       y       z     vdW  Elec       q    Type
REMARK                         _______ _______ _______ _____ _____    ______ ____
ROOT
ATOM      1  C   UNL     1      44.551   5.665  12.009  0.00  0.00    +0.000 C 
ENDROOT
BRANCH   1   2
ATOM      2  O   UNL     1      44.381   7.023  12.438  0.00  0.00    +0.000 OA
BRANCH   2   7
ATOM      3  C   UNL     1      47.946   7.832  12.365  0.00  0.00    +0.000 A 
ATOM      4  C   UNL     1      47.918   9.227  12.230  0.00  0.00    +0.000 A 
ATOM      5  C   UNL     1      46.704   9.908  12.169  0.00  0.00    +0.000 A 
ATOM      6  C   UNL     1      45.503   9.202  12.235  0.00  0.00    +0.000 A 
ATOM      7  C   UNL     1      45.504   7.812  12.366  0.00  0.00    +0.000 A 
ATOM      8  C   UNL     1      46.728   7.134  12.438  0.00  0.00    +0.000 A 
BRANCH   3   9
ATOM      9  C   UNL     1      49.267   7.104  12.384  0.00  0.00    +0.000 C 
BRANCH   9  10
ATOM     10  N   UNL     1      49.840   7.053  13.726  0.00  0.00    +0.000 NA
ATOM     11  H   UNL     1      50.500   6.280  13.776  0.00  0.00    +0.000 HD
ATOM     12  H   UNL     1      49.096   6.842  14.390  0.00  0.00    +0.000 HD
ENDBRANCH   9  10
ENDBRANCH   3   9
ENDBRANCH   2   7
ENDBRANCH   1   2
BRANCH   1  13
ATOM     13  C   UNL     1      43.751   5.391  10.740  0.00  0.00    +0.000 C 
BRANCH  13  14
ATOM     14  C   UNL     1      44.262   4.191   9.985  0.00  0.00    +0.000 A 
ATOM     15  C   UNL     1      45.194   4.351   8.965  0.00  0.00    +0.000 A 
ATOM     16  C   UNL     1      45.673   3.222   8.293  0.00  0.00    +0.000 A 
ATOM     17  C   UNL     1      45.184   1.966   8.666  0.00  0.00    +0.000 A 
ATOM     18  C   UNL     1      44.251   1.899   9.684  0.00  0.00    +0.000 A 
ATOM     19  N   UNL     1      43.784   2.978  10.350  0.00  0.00    +0.000 NA
BRANCH  16  20
ATOM     20  C   UNL     1      46.697   3.346   7.199  0.00  0.00    +0.000 C 
ATOM     21  F   UNL     1      47.317   4.559   7.168  0.00  0.00    +0.000 F 
ATOM     22  F   UNL     1      47.691   2.423   7.312  0.00  0.00    +0.000 F 
ATOM     23  F   UNL     1      46.161   3.169   5.960  0.00  0.00    +0.000 F 
ENDBRANCH  16  20
ENDBRANCH  13  14
ENDBRANCH   1  13
TORSDOF 7
ENDMDL
