MODEL 1
REMARK VINA RESULT:    -8.682      0.000      0.000
REMARK INTER + INTRA:         -12.271
REMARK INTER:                 -11.219
REMARK INTRA:                  -1.052
REMARK UNBOUND:                -1.052
REMARK  Name = 
REMARK  5 active torsions:
REMARK  status: ('A' for Active; 'I' for Inactive)
REMARK    1  A    between atoms: C_2  and  C_3
REMARK    2  A    between atoms: N_7  and  C_8
REMARK    3  A    between atoms: C_8  and  C_9
REMARK    4  A    between atoms: C_9  and  C_12
REMARK    5  A    between atoms: C_16  and  C_17
REMARK                            x       y       z     vdW  Elec       q    Type
REMARK                         _______ _______ _______ _____ _____    ______ ____
ROOT
ATOM      1  C   UNL     1      43.415   5.040  12.268  0.00  0.00    +0.000 C 
ATOM      2  F   UNL     1      42.875   6.224  11.853  0.00  0.00    +0.000 F 
ATOM      3  F   UNL     1      42.695   4.667  13.363  0.00  0.00    +0.000 F 
ENDROOT
BRANCH   1   4
ATOM      4  C   UNL     1      44.901   5.147  12.552  0.00  0.00    +0.000 A 
ATOM      5  C   UNL     1      45.558   4.044  13.114  0.00  0.00    +0.000 A 
ATOM      6  C   UNL     1      46.836   4.185  13.628  0.00  0.00    +0.000 A 
ATOM      7  C   UNL     1      47.496   5.399  13.494  0.00  0.00    +0.000 A 
ATOM      8  C   UNL     1      46.951   6.448  12.726  0.00  0.00    +0.000 A 
ATOM      9  C   UNL     1      45.606   6.350  12.348  0.00  0.00    +0.000 A 
BRANCH   8  10
ATOM     10  C   UNL     1      47.934   7.510  12.212  0.00  0.00    +0.000 C 
ATOM     11  F   UNL     1      48.290   7.218  10.919  0.00  0.00    +0.000 F 
ATOM     12  C   UNL     1      49.247   7.755  12.978  0.00  0.00    +0.000 C 
ATOM     13  C   UNL     1      49.059   8.452  14.330  0.00  0.00    +0.000 C 
ATOM     14  N   UNL     1      48.165   9.612  14.296  0.00  0.00    +0.000 NA
ATOM     15  C   UNL     1      46.906   9.316  13.619  0.00  0.00    +0.000 C 
ATOM     16  C   UNL     1      47.190   8.864  12.189  0.00  0.00    +0.000 C 
ATOM     17  H   UNL     1      48.623  10.389  13.820  0.00  0.00    +0.000 HD
ENDBRANCH   8  10
ENDBRANCH   1   4
BRANCH   1  18
ATOM     18  C   UNL     1      43.234   3.991  11.139  0.00  0.00    +0.000 C 
BRANCH  18  23
ATOM     19  C   UNL     1      46.584   2.574   7.609  0.00  0.00    +0.000 A 
ATOM     20  C   UNL     1      45.792   1.795   8.436  0.00  0.00    +0.000 A 
ATOM     21  C   UNL     1      44.811   2.407   9.209  0.00  0.00    +0.000 A 
ATOM     22  C   UNL     1      44.650   3.789   9.151  0.00  0.00    +0.000 A 
ATOM     23  N   UNL     1      43.647   4.467   9.819  0.00  0.00    +0.000 N 
ATOM     24  N   UNL     1      45.430   4.555   8.365  0.00  0.00    +0.000 NA
ATOM     25  C   UNL     1      46.369   3.941   7.607  0.00  0.00    +0.000 A 
ATOM     26  H   UNL     1      43.827   5.468   9.745  0.00  0.00    +0.000 HD
BRANCH  19  28
ATOM     27  N   UNL     1      48.373   1.532   6.068  0.00  0.00    +0.000 NA
ATOM     28  C   UNL     1      47.571   1.997   6.767  0.00  0.00    +0.000 C 
ENDBRANCH  19  28
ENDBRANCH  18  23
ENDBRANCH   1  18
TORSDOF 5
ENDMDL
MODEL 2
REMARK VINA RESULT:    -7.620      1.536      2.222
REMARK INTER + INTRA:         -10.899
REMARK INTER:                 -10.712
REMARK INTRA:                  -0.186
REMARK UNBOUND:                -1.052
REMARK  Name = 
REMARK  5 active torsions:
REMARK  status: ('A' for Active; 'I' for Inactive)
REMARK    1  A    between atoms: C_2  and  C_3
REMARK    2  A    between atoms: N_7  and  C_8
REMARK    3  A    between atoms: C_8  and  C_9
REMARK    4  A    between atoms: C_9  and  C_12
REMARK    5  A    between atoms: C_16  and  C_17
REMARK                            x       y       z     vdW  Elec       q    Type
REMARK                         _______ _______ _______ _____ _____    ______ ____
ROOT
ATOM      1  C   UNL     1      44.515   4.025  12.140  0.00  0.00    +0.000 C 
ATOM      2  F   UNL     1      43.928   3.564  13.285  0.00  0.00    +0.000 F 
ATOM      3  F   UNL     1      45.543   3.170  11.879  0.00  0.00    +0.000 F 
ENDROOT
BRANCH   1   4
ATOM      4  C   UNL     1      44.967   5.468  12.259  0.00  0.00    +0.000 A 
ATOM      5  C   UNL     1      44.089   6.481  11.849  0.00  0.00    +0.000 A 
ATOM      6  C   UNL     1      44.551   7.778  11.693  0.00  0.00    +0.000 A 
ATOM      7  C   UNL     1      45.861   8.083  12.039  0.00  0.00    +0.000 A 
ATOM      8  C   UNL     1      46.690   7.136  12.675  0.00  0.00    +0.000 A 
ATOM      9  C   UNL     1      46.269   5.801  12.684  0.00  0.00    +0.000 A 
BRANCH   8  10
ATOM     10  C   UNL     1      47.885   7.687  13.466  0.00  0.00    +0.000 C 
ATOM     11  F   UNL     1      47.844   7.207  14.752  0.00  0.00    +0.000 F 
ATOM     12  C   UNL     1      48.078   9.210  13.577  0.00  0.00    +0.000 C 
ATOM     13  C   UNL     1      48.517   9.881  12.271  0.00  0.00    +0.000 C 
ATOM     14  N   UNL     1      49.606   9.194  11.572  0.00  0.00    +0.000 NA
ATOM     15  C   UNL     1      49.351   7.763  11.431  0.00  0.00    +0.000 C 
ATOM     16  C   UNL     1      49.173   7.137  12.811  0.00  0.00    +0.000 C 
ATOM     17  H   UNL     1      50.481   9.326  12.079  0.00  0.00    +0.000 HD
ENDBRANCH   8  10
ENDBRANCH   1   4
BRANCH   1  18
ATOM     18  C   UNL     1      43.475   3.960  10.990  0.00  0.00    +0.000 C 
BRANCH  18  23
ATOM     19  C   UNL     1      46.742   2.657   7.340  0.00  0.00    +0.000 A 
ATOM     20  C   UNL     1      45.875   1.862   8.071  0.00  0.00    +0.000 A 
ATOM     21  C   UNL     1      44.939   2.468   8.904  0.00  0.00    +0.000 A 
ATOM     22  C   UNL     1      44.897   3.857   8.998  0.00  0.00    +0.000 A 
ATOM     23  N   UNL     1      43.946   4.541   9.733  0.00  0.00    +0.000 N 
ATOM     24  N   UNL     1      45.751   4.635   8.307  0.00  0.00    +0.000 NA
ATOM     25  C   UNL     1      46.645   4.029   7.490  0.00  0.00    +0.000 A 
ATOM     26  H   UNL     1      44.212   5.525   9.772  0.00  0.00    +0.000 HD
BRANCH  19  28
ATOM     27  N   UNL     1      48.466   1.645   5.707  0.00  0.00    +0.000 NA
ATOM     28  C   UNL     1      47.689   2.093   6.444  0.00  0.00    +0.000 C 
ENDBRANCH  19  28
ENDBRANCH  18  23
ENDBRANCH   1  18
TORSDOF 5
ENDMDL
MODEL 3
REMARK VINA RESULT:    -6.627      3.244      7.122
REMARK INTER + INTRA:          -9.616
REMARK INTER:                  -8.607
REMARK INTRA:                  -1.009
REMARK UNBOUND:                -1.052
REMARK  Name = 
REMARK  5 active torsions:
REMARK  status: ('A' for Active; 'I' for Inactive)
REMARK    1  A    between atoms: C_2  and  C_3
REMARK    2  A    between atoms: N_7  and  C_8
REMARK    3  A    between atoms: C_8  and  C_9
REMARK    4  A    between atoms: C_9  and  C_12
REMARK    5  A    between atoms: C_16  and  C_17
REMARK                            x       y       z     vdW  Elec       q    Type
REMARK                         _______ _______ _______ _____ _____    ______ ____
ROOT
ATOM      1  C   UNL     1      49.034   8.181  12.196  0.00  0.00    +0.000 C 
ATOM      2  F   UNL     1      49.590   9.188  11.459  0.00  0.00    +0.000 F 
ATOM      3  F   UNL     1      49.763   7.066  11.912  0.00  0.00    +0.000 F 
ENDROOT
BRANCH   1   4
ATOM      4  C   UNL     1      47.554   8.002  11.912  0.00  0.00    +0.000 A 
ATOM      5  C   UNL     1      46.713   9.119  12.014  0.00  0.00    +0.000 A 
ATOM      6  C   UNL     1      45.338   8.953  12.025  0.00  0.00    +0.000 A 
ATOM      7  C   UNL     1      44.801   7.686  11.835  0.00  0.00    +0.000 A 
ATOM      8  C   UNL     1      45.617   6.588  11.495  0.00  0.00    +0.000 A 
ATOM      9  C   UNL     1      47.002   6.734  11.641  0.00  0.00    +0.000 A 
BRANCH   8  10
ATOM     10  C   UNL     1      44.925   5.399  10.814  0.00  0.00    +0.000 C 
ATOM     11  F   UNL     1      45.405   5.258   9.536  0.00  0.00    +0.000 F 
ATOM     12  C   UNL     1      43.389   5.382  10.705  0.00  0.00    +0.000 C 
ATOM     13  C   UNL     1      42.671   5.154  12.040  0.00  0.00    +0.000 C 
ATOM     14  N   UNL     1      43.221   4.061  12.846  0.00  0.00    +0.000 NA
ATOM     15  C   UNL     1      44.672   4.153  12.978  0.00  0.00    +0.000 C 
ATOM     16  C   UNL     1      45.314   4.122  11.595  0.00  0.00    +0.000 C 
ATOM     17  H   UNL     1      42.983   3.164  12.423  0.00  0.00    +0.000 HD
ENDBRANCH   8  10
ENDBRANCH   1   4
BRANCH   1  18
ATOM     18  C   UNL     1      49.176   8.532  13.700  0.00  0.00    +0.000 C 
BRANCH  18  23
ATOM     19  C   UNL     1      47.873   4.518  16.509  0.00  0.00    +0.000 A 
ATOM     20  C   UNL     1      47.317   4.987  15.330  0.00  0.00    +0.000 A 
ATOM     21  C   UNL     1      47.956   6.011  14.639  0.00  0.00    +0.000 A 
ATOM     22  C   UNL     1      49.133   6.555  15.146  0.00  0.00    +0.000 A 
ATOM     23  N   UNL     1      49.877   7.513  14.482  0.00  0.00    +0.000 N 
ATOM     24  N   UNL     1      49.669   6.119  16.302  0.00  0.00    +0.000 NA
ATOM     25  C   UNL     1      49.042   5.111  16.954  0.00  0.00    +0.000 A 
ATOM     26  H   UNL     1      50.599   7.859  15.114  0.00  0.00    +0.000 HD
BRANCH  19  28
ATOM     27  N   UNL     1      46.804   2.564  17.813  0.00  0.00    +0.000 NA
ATOM     28  C   UNL     1      47.286   3.447  17.232  0.00  0.00    +0.000 C 
ENDBRANCH  19  28
ENDBRANCH  18  23
ENDBRANCH   1  18
TORSDOF 5
ENDMDL
MODEL 4
REMARK VINA RESULT:    -6.378      5.404      8.167
REMARK INTER + INTRA:          -9.294
REMARK INTER:                  -8.611
REMARK INTRA:                  -0.683
REMARK UNBOUND:                -1.052
REMARK  Name = 
REMARK  5 active torsions:
REMARK  status: ('A' for Active; 'I' for Inactive)
REMARK    1  A    between atoms: C_2  and  C_3
REMARK    2  A    between atoms: N_7  and  C_8
REMARK    3  A    between atoms: C_8  and  C_9
REMARK    4  A    between atoms: C_9  and  C_12
REMARK    5  A    between atoms: C_16  and  C_17
REMARK                            x       y       z     vdW  Elec       q    Type
REMARK                         _______ _______ _______ _____ _____    ______ ____
ROOT
ATOM      1  C   UNL     1      47.365   4.281  16.798  0.00  0.00    +0.000 C 
ATOM      2  F   UNL     1      46.811   3.048  16.997  0.00  0.00    +0.000 F 
ATOM      3  F   UNL     1      46.769   5.106  17.703  0.00  0.00    +0.000 F 
ENDROOT
BRANCH   1   4
ATOM      4  C   UNL     1      47.207   4.765  15.369  0.00  0.00    +0.000 A 
ATOM      5  C   UNL     1      48.105   5.725  14.883  0.00  0.00    +0.000 A 
ATOM      6  C   UNL     1      47.842   6.381  13.692  0.00  0.00    +0.000 A 
ATOM      7  C   UNL     1      46.735   6.012  12.938  0.00  0.00    +0.000 A 
ATOM      8  C   UNL     1      45.952   4.892  13.286  0.00  0.00    +0.000 A 
ATOM      9  C   UNL     1      46.132   4.340  14.561  0.00  0.00    +0.000 A 
BRANCH   8  10
ATOM     10  C   UNL     1      45.111   4.263  12.167  0.00  0.00    +0.000 C 
ATOM     11  F   UNL     1      45.732   3.128  11.709  0.00  0.00    +0.000 F 
ATOM     12  C   UNL     1      44.766   5.101  10.922  0.00  0.00    +0.000 C 
ATOM     13  C   UNL     1      43.749   6.217  11.183  0.00  0.00    +0.000 C 
ATOM     14  N   UNL     1      42.580   5.803  11.963  0.00  0.00    +0.000 NA
ATOM     15  C   UNL     1      42.956   5.070  13.168  0.00  0.00    +0.000 C 
ATOM     16  C   UNL     1      43.761   3.832  12.783  0.00  0.00    +0.000 C 
ATOM     17  H   UNL     1      41.973   5.214  11.393  0.00  0.00    +0.000 HD
ENDBRANCH   8  10
ENDBRANCH   1   4
BRANCH   1  18
ATOM     18  C   UNL     1      48.886   4.193  17.090  0.00  0.00    +0.000 C 
BRANCH  18  23
ATOM     19  C   UNL     1      53.328   1.851  17.782  0.00  0.00    +0.000 A 
ATOM     20  C   UNL     1      52.978   3.168  18.031  0.00  0.00    +0.000 A 
ATOM     21  C   UNL     1      51.643   3.545  17.929  0.00  0.00    +0.000 A 
ATOM     22  C   UNL     1      50.685   2.601  17.568  0.00  0.00    +0.000 A 
ATOM     23  N   UNL     1      49.329   2.870  17.528  0.00  0.00    +0.000 N 
ATOM     24  N   UNL     1      51.021   1.324  17.305  0.00  0.00    +0.000 NA
ATOM     25  C   UNL     1      52.323   0.971  17.423  0.00  0.00    +0.000 A 
ATOM     26  H   UNL     1      48.855   2.078  17.094  0.00  0.00    +0.000 HD
BRANCH  19  28
ATOM     27  N   UNL     1      55.764   1.037  18.032  0.00  0.00    +0.000 NA
ATOM     28  C   UNL     1      54.669   1.403  17.912  0.00  0.00    +0.000 C 
ENDBRANCH  19  28
ENDBRANCH  18  23
ENDBRANCH   1  18
TORSDOF 5
ENDMDL
MODEL 5
REMARK VINA RESULT:    -6.351      3.470      5.914
REMARK INTER + INTRA:          -9.260
REMARK INTER:                  -7.985
REMARK INTRA:                  -1.274
REMARK UNBOUND:                -1.052
REMARK  Name = 
REMARK  5 active torsions:
REMARK  status: ('A' for Active; 'I' for Inactive)
REMARK    1  A    between atoms: C_2  and  C_3
REMARK    2  A    between atoms: N_7  and  C_8
REMARK    3  A    between atoms: C_8  and  C_9
REMARK    4  A    between atoms: C_9  and  C_12
REMARK    5  A    between atoms: C_16  and  C_17
REMARK                            x       y       z     vdW  Elec       q    Type
REMARK                         _______ _______ _______ _____ _____    ______ ____
ROOT
ATOM      1  C   UNL     1      48.622   8.389  13.664  0.00  0.00    +0.000 C 
ATOM      2  F   UNL     1      49.327   9.492  13.272  0.00  0.00    +0.000 F 
ATOM      3  F   UNL     1      47.370   8.836  13.962  0.00  0.00    +0.000 F 
ENDROOT
BRANCH   1   4
ATOM      4  C   UNL     1      49.278   7.663  14.823  0.00  0.00    +0.000 A 
ATOM      5  C   UNL     1      50.594   8.002  15.169  0.00  0.00    +0.000 A 
ATOM      6  C   UNL     1      51.315   7.195  16.033  0.00  0.00    +0.000 A 
ATOM      7  C   UNL     1      50.693   6.105  16.628  0.00  0.00    +0.000 A 
ATOM      8  C   UNL     1      49.309   5.881  16.481  0.00  0.00    +0.000 A 
ATOM      9  C   UNL     1      48.632   6.603  15.491  0.00  0.00    +0.000 A 
BRANCH   8  10
ATOM     10  C   UNL     1      48.635   5.006  17.548  0.00  0.00    +0.000 C 
ATOM     11  F   UNL     1      48.157   5.802  18.559  0.00  0.00    +0.000 F 
ATOM     12  C   UNL     1      49.444   3.884  18.224  0.00  0.00    +0.000 C 
ATOM     13  C   UNL     1      49.747   2.694  17.308  0.00  0.00    +0.000 C 
ATOM     14  N   UNL     1      48.598   2.214  16.536  0.00  0.00    +0.000 NA
ATOM     15  C   UNL     1      47.900   3.302  15.858  0.00  0.00    +0.000 C 
ATOM     16  C   UNL     1      47.417   4.320  16.888  0.00  0.00    +0.000 C 
ATOM     17  H   UNL     1      47.943   1.733  17.151  0.00  0.00    +0.000 HD
ENDBRANCH   8  10
ENDBRANCH   1   4
BRANCH   1  18
ATOM     18  C   UNL     1      48.556   7.396  12.475  0.00  0.00    +0.000 C 
BRANCH  18  23
ATOM     19  C   UNL     1      44.742   4.132  11.768  0.00  0.00    +0.000 A 
ATOM     20  C   UNL     1      45.521   4.348  12.893  0.00  0.00    +0.000 A 
ATOM     21  C   UNL     1      46.399   5.426  12.913  0.00  0.00    +0.000 A 
ATOM     22  C   UNL     1      46.492   6.261  11.802  0.00  0.00    +0.000 A 
ATOM     23  N   UNL     1      47.273   7.401  11.770  0.00  0.00    +0.000 N 
ATOM     24  N   UNL     1      45.754   6.045  10.697  0.00  0.00    +0.000 NA
ATOM     25  C   UNL     1      44.893   4.999  10.701  0.00  0.00    +0.000 A 
ATOM     26  H   UNL     1      47.295   7.752  10.813  0.00  0.00    +0.000 HD
BRANCH  19  28
ATOM     27  N   UNL     1      43.037   2.198  11.654  0.00  0.00    +0.000 NA
ATOM     28  C   UNL     1      43.799   3.072  11.710  0.00  0.00    +0.000 C 
ENDBRANCH  19  28
ENDBRANCH  18  23
ENDBRANCH   1  18
TORSDOF 5
ENDMDL
MODEL 6
REMARK VINA RESULT:    -6.143      5.275      6.689
REMARK INTER + INTRA:          -8.990
REMARK INTER:                  -8.337
REMARK INTRA:                  -0.653
REMARK UNBOUND:                -1.052
REMARK  Name = 
REMARK  5 active torsions:
REMARK  status: ('A' for Active; 'I' for Inactive)
REMARK    1  A    between atoms: C_2  and  C_3
REMARK    2  A    between atoms: N_7  and  C_8
REMARK    3  A    between atoms: C_8  and  C_9
REMARK    4  A    between atoms: C_9  and  C_12
REMARK    5  A    between atoms: C_16  and  C_17
REMARK                            x       y       z     vdW  Elec       q    Type
REMARK                         _______ _______ _______ _____ _____    ______ ____
ROOT
ATOM      1  C   UNL     1      47.565   3.882  17.246  0.00  0.00    +0.000 C 
ATOM      2  F   UNL     1      47.214   4.757  18.236  0.00  0.00    +0.000 F 
ATOM      3  F   UNL     1      46.777   2.785  17.423  0.00  0.00    +0.000 F 
ENDROOT
BRANCH   1   4
ATOM      4  C   UNL     1      49.045   3.550  17.262  0.00  0.00    +0.000 A 
ATOM      5  C   UNL     1      49.442   2.239  16.965  0.00  0.00    +0.000 A 
ATOM      6  C   UNL     1      50.739   1.831  17.224  0.00  0.00    +0.000 A 
ATOM      7  C   UNL     1      51.667   2.756  17.686  0.00  0.00    +0.000 A 
ATOM      8  C   UNL     1      51.356   4.129  17.766  0.00  0.00    +0.000 A 
ATOM      9  C   UNL     1      50.010   4.500  17.654  0.00  0.00    +0.000 A 
BRANCH   8  10
ATOM     10  C   UNL     1      52.540   5.105  17.777  0.00  0.00    +0.000 C 
ATOM     11  F   UNL     1      52.702   5.645  16.525  0.00  0.00    +0.000 F 
ATOM     12  C   UNL     1      53.928   4.603  18.215  0.00  0.00    +0.000 C 
ATOM     13  C   UNL     1      54.039   4.307  19.715  0.00  0.00    +0.000 C 
ATOM     14  N   UNL     1      53.484   5.349  20.582  0.00  0.00    +0.000 NA
ATOM     15  C   UNL     1      52.142   5.748  20.170  0.00  0.00    +0.000 C 
ATOM     16  C   UNL     1      52.180   6.264  18.734  0.00  0.00    +0.000 C 
ATOM     17  H   UNL     1      54.091   6.168  20.572  0.00  0.00    +0.000 HD
ENDBRANCH   8  10
ENDBRANCH   1   4
BRANCH   1  18
ATOM     18  C   UNL     1      47.253   4.537  15.874  0.00  0.00    +0.000 C 
BRANCH  18  23
ATOM     19  C   UNL     1      45.052   4.400  11.310  0.00  0.00    +0.000 A 
ATOM     20  C   UNL     1      45.658   5.459  11.965  0.00  0.00    +0.000 A 
ATOM     21  C   UNL     1      46.355   5.218  13.144  0.00  0.00    +0.000 A 
ATOM     22  C   UNL     1      46.422   3.923  13.653  0.00  0.00    +0.000 A 
ATOM     23  N   UNL     1      47.163   3.582  14.769  0.00  0.00    +0.000 N 
ATOM     24  N   UNL     1      45.817   2.892  13.034  0.00  0.00    +0.000 NA
ATOM     25  C   UNL     1      45.156   3.143  11.879  0.00  0.00    +0.000 A 
ATOM     26  H   UNL     1      46.933   2.623  15.030  0.00  0.00    +0.000 HD
BRANCH  19  28
ATOM     27  N   UNL     1      43.788   4.732   9.084  0.00  0.00    +0.000 NA
ATOM     28  C   UNL     1      44.363   4.582  10.082  0.00  0.00    +0.000 C 
ENDBRANCH  19  28
ENDBRANCH  18  23
ENDBRANCH   1  18
TORSDOF 5
ENDMDL
MODEL 7
REMARK VINA RESULT:    -6.098      3.255      8.133
REMARK INTER + INTRA:          -8.932
REMARK INTER:                  -7.970
REMARK INTRA:                  -0.962
REMARK UNBOUND:                -1.052
REMARK  Name = 
REMARK  5 active torsions:
REMARK  status: ('A' for Active; 'I' for Inactive)
REMARK    1  A    between atoms: C_2  and  C_3
REMARK    2  A    between atoms: N_7  and  C_8
REMARK    3  A    between atoms: C_8  and  C_9
REMARK    4  A    between atoms: C_9  and  C_12
REMARK    5  A    between atoms: C_16  and  C_17
REMARK                            x       y       z     vdW  Elec       q    Type
REMARK                         _______ _______ _______ _____ _____    ______ ____
ROOT
ATOM      1  C   UNL     1      48.005   7.530  12.730  0.00  0.00    +0.000 C 
ATOM      2  F   UNL     1      47.262   8.643  13.010  0.00  0.00    +0.000 F 
ATOM      3  F   UNL     1      48.435   7.685  11.447  0.00  0.00    +0.000 F 
ENDROOT
BRANCH   1   4
ATOM      4  C   UNL     1      47.226   6.245  12.937  0.00  0.00    +0.000 A 
ATOM      5  C   UNL     1      47.454   5.504  14.105  0.00  0.00    +0.000 A 
ATOM      6  C   UNL     1      46.971   4.211  14.211  0.00  0.00    +0.000 A 
ATOM      7  C   UNL     1      46.180   3.691  13.195  0.00  0.00    +0.000 A 
ATOM      8  C   UNL     1      45.741   4.495  12.123  0.00  0.00    +0.000 A 
ATOM      9  C   UNL     1      46.358   5.741  11.948  0.00  0.00    +0.000 A 
BRANCH   8  10
ATOM     10  C   UNL     1      44.498   4.014  11.363  0.00  0.00    +0.000 C 
ATOM     11  F   UNL     1      44.803   2.877  10.658  0.00  0.00    +0.000 F 
ATOM     12  C   UNL     1      43.804   4.966  10.372  0.00  0.00    +0.000 C 
ATOM     13  C   UNL     1      43.059   6.127  11.040  0.00  0.00    +0.000 C 
ATOM     14  N   UNL     1      42.219   5.737  12.175  0.00  0.00    +0.000 NA
ATOM     15  C   UNL     1      42.936   4.889  13.122  0.00  0.00    +0.000 C 
ATOM     16  C   UNL     1      43.428   3.631  12.412  0.00  0.00    +0.000 C 
ATOM     17  H   UNL     1      41.395   5.237  11.841  0.00  0.00    +0.000 HD
ENDBRANCH   8  10
ENDBRANCH   1   4
BRANCH   1  18
ATOM     18  C   UNL     1      49.222   7.493  13.691  0.00  0.00    +0.000 C 
BRANCH  18  23
ATOM     19  C   UNL     1      48.016   8.367  18.536  0.00  0.00    +0.000 A 
ATOM     20  C   UNL     1      48.558   7.233  17.954  0.00  0.00    +0.000 A 
ATOM     21  C   UNL     1      48.972   7.285  16.626  0.00  0.00    +0.000 A 
ATOM     22  C   UNL     1      48.823   8.466  15.903  0.00  0.00    +0.000 A 
ATOM     23  N   UNL     1      49.285   8.630  14.610  0.00  0.00    +0.000 N 
ATOM     24  N   UNL     1      48.277   9.566  16.457  0.00  0.00    +0.000 NA
ATOM     25  C   UNL     1      47.894   9.502  17.754  0.00  0.00    +0.000 A 
ATOM     26  H   UNL     1      48.926   9.513  14.248  0.00  0.00    +0.000 HD
BRANCH  19  28
ATOM     27  N   UNL     1      47.281   8.405  21.010  0.00  0.00    +0.000 NA
ATOM     28  C   UNL     1      47.616   8.382  19.899  0.00  0.00    +0.000 C 
ENDBRANCH  19  28
ENDBRANCH  18  23
ENDBRANCH   1  18
TORSDOF 5
ENDMDL
MODEL 8
REMARK VINA RESULT:    -5.972      3.341      7.915
REMARK INTER + INTRA:          -8.770
REMARK INTER:                  -8.189
REMARK INTRA:                  -0.581
REMARK UNBOUND:                -1.052
REMARK  Name = 
REMARK  5 active torsions:
REMARK  status: ('A' for Active; 'I' for Inactive)
REMARK    1  A    between atoms: C_2  and  C_3
REMARK    2  A    between atoms: N_7  and  C_8
REMARK    3  A    between atoms: C_8  and  C_9
REMARK    4  A    between atoms: C_9  and  C_12
REMARK    5  A    between atoms: C_16  and  C_17
REMARK                            x       y       z     vdW  Elec       q    Type
REMARK                         _______ _______ _______ _____ _____    ______ ____
ROOT
ATOM      1  C   UNL     1      49.086   7.912  12.723  0.00  0.00    +0.000 C 
ATOM      2  F   UNL     1      49.670   9.106  12.402  0.00  0.00    +0.000 F 
ATOM      3  F   UNL     1      49.859   6.953  12.142  0.00  0.00    +0.000 F 
ENDROOT
BRANCH   1   4
ATOM      4  C   UNL     1      47.635   7.840  12.288  0.00  0.00    +0.000 A 
ATOM      5  C   UNL     1      46.860   9.007  12.342  0.00  0.00    +0.000 A 
ATOM      6  C   UNL     1      45.483   8.932  12.211  0.00  0.00    +0.000 A 
ATOM      7  C   UNL     1      44.889   7.709  11.929  0.00  0.00    +0.000 A 
ATOM      8  C   UNL     1      45.664   6.568  11.636  0.00  0.00    +0.000 A 
ATOM      9  C   UNL     1      47.034   6.618  11.923  0.00  0.00    +0.000 A 
BRANCH   8  10
ATOM     10  C   UNL     1      44.970   5.445  10.852  0.00  0.00    +0.000 C 
ATOM     11  F   UNL     1      45.497   5.376   9.586  0.00  0.00    +0.000 F 
ATOM     12  C   UNL     1      43.440   5.478  10.683  0.00  0.00    +0.000 C 
ATOM     13  C   UNL     1      42.664   5.182  11.972  0.00  0.00    +0.000 C 
ATOM     14  N   UNL     1      43.154   4.025  12.724  0.00  0.00    +0.000 NA
ATOM     15  C   UNL     1      44.601   4.068  12.917  0.00  0.00    +0.000 C 
ATOM     16  C   UNL     1      45.296   4.111  11.560  0.00  0.00    +0.000 C 
ATOM     17  H   UNL     1      42.911   3.164  12.234  0.00  0.00    +0.000 HD
ENDBRANCH   8  10
ENDBRANCH   1   4
BRANCH   1  18
ATOM     18  C   UNL     1      49.115   7.747  14.265  0.00  0.00    +0.000 C 
BRANCH  18  23
ATOM     19  C   UNL     1      48.668   5.289  18.676  0.00  0.00    +0.000 A 
ATOM     20  C   UNL     1      48.719   6.651  18.427  0.00  0.00    +0.000 A 
ATOM     21  C   UNL     1      48.666   7.102  17.112  0.00  0.00    +0.000 A 
ATOM     22  C   UNL     1      48.575   6.182  16.071  0.00  0.00    +0.000 A 
ATOM     23  N   UNL     1      48.431   6.545  14.744  0.00  0.00    +0.000 N 
ATOM     24  N   UNL     1      48.547   4.856  16.304  0.00  0.00    +0.000 NA
ATOM     25  C   UNL     1      48.585   4.435  17.591  0.00  0.00    +0.000 A 
ATOM     26  H   UNL     1      48.541   5.713  14.166  0.00  0.00    +0.000 HD
BRANCH  19  28
ATOM     27  N   UNL     1      48.671   4.355  21.082  0.00  0.00    +0.000 NA
ATOM     28  C   UNL     1      48.677   4.776  20.000  0.00  0.00    +0.000 C 
ENDBRANCH  19  28
ENDBRANCH  18  23
ENDBRANCH   1  18
TORSDOF 5
ENDMDL
MODEL 9
REMARK VINA RESULT:    -5.954      3.790      6.385
REMARK INTER + INTRA:          -8.746
REMARK INTER:                  -7.532
REMARK INTRA:                  -1.215
REMARK UNBOUND:                -1.052
REMARK  Name = 
REMARK  5 active torsions:
REMARK  status: ('A' for Active; 'I' for Inactive)
REMARK    1  A    between atoms: C_2  and  C_3
REMARK    2  A    between atoms: N_7  and  C_8
REMARK    3  A    between atoms: C_8  and  C_9
REMARK    4  A    between atoms: C_9  and  C_12
REMARK    5  A    between atoms: C_16  and  C_17
REMARK                            x       y       z     vdW  Elec       q    Type
REMARK                         _______ _______ _______ _____ _____    ______ ____
ROOT
ATOM      1  C   UNL     1      45.760   5.340  12.517  0.00  0.00    +0.000 C 
ATOM      2  F   UNL     1      45.637   4.843  11.250  0.00  0.00    +0.000 F 
ATOM      3  F   UNL     1      44.553   5.138  13.115  0.00  0.00    +0.000 F 
ENDROOT
BRANCH   1   4
ATOM      4  C   UNL     1      46.187   6.796  12.531  0.00  0.00    +0.000 A 
ATOM      5  C   UNL     1      45.204   7.781  12.703  0.00  0.00    +0.000 A 
ATOM      6  C   UNL     1      45.504   9.110  12.460  0.00  0.00    +0.000 A 
ATOM      7  C   UNL     1      46.807   9.469  12.140  0.00  0.00    +0.000 A 
ATOM      8  C   UNL     1      47.859   8.532  12.192  0.00  0.00    +0.000 A 
ATOM      9  C   UNL     1      47.521   7.176  12.284  0.00  0.00    +0.000 A 
BRANCH   8  10
ATOM     10  C   UNL     1      49.279   9.097  12.336  0.00  0.00    +0.000 C 
ATOM     11  F   UNL     1      49.674   9.654  11.145  0.00  0.00    +0.000 F 
ATOM     12  C   UNL     1      50.421   8.163  12.778  0.00  0.00    +0.000 C 
ATOM     13  C   UNL     1      50.344   7.736  14.247  0.00  0.00    +0.000 C 
ATOM     14  N   UNL     1      50.074   8.829  15.185  0.00  0.00    +0.000 NA
ATOM     15  C   UNL     1      48.943   9.649  14.761  0.00  0.00    +0.000 C 
ATOM     16  C   UNL     1      49.226  10.235  13.381  0.00  0.00    +0.000 C 
ATOM     17  H   UNL     1      50.900   9.422  15.272  0.00  0.00    +0.000 HD
ENDBRANCH   8  10
ENDBRANCH   1   4
BRANCH   1  18
ATOM     18  C   UNL     1      46.856   4.531  13.261  0.00  0.00    +0.000 C 
BRANCH  18  23
ATOM     19  C   UNL     1      48.687   4.617  17.987  0.00  0.00    +0.000 A 
ATOM     20  C   UNL     1      48.728   5.596  17.008  0.00  0.00    +0.000 A 
ATOM     21  C   UNL     1      47.999   5.415  15.836  0.00  0.00    +0.000 A 
ATOM     22  C   UNL     1      47.254   4.252  15.662  0.00  0.00    +0.000 A 
ATOM     23  N   UNL     1      46.435   4.030  14.569  0.00  0.00    +0.000 N 
ATOM     24  N   UNL     1      47.225   3.286  16.600  0.00  0.00    +0.000 NA
ATOM     25  C   UNL     1      47.928   3.486  17.740  0.00  0.00    +0.000 A 
ATOM     26  H   UNL     1      46.121   3.060  14.592  0.00  0.00    +0.000 HD
BRANCH  19  28
ATOM     27  N   UNL     1      49.939   4.908  20.225  0.00  0.00    +0.000 NA
ATOM     28  C   UNL     1      49.377   4.770  19.218  0.00  0.00    +0.000 C 
ENDBRANCH  19  28
ENDBRANCH  18  23
ENDBRANCH   1  18
TORSDOF 5
ENDMDL
