MODEL 1
REMARK VINA RESULT:    -7.785      0.000      0.000
REMARK INTER + INTRA:         -10.027
REMARK INTER:                  -9.605
REMARK INTRA:                  -0.422
REMARK UNBOUND:                -0.422
REMARK  Name = 
REMARK  4 active torsions:
REMARK  status: ('A' for Active; 'I' for Inactive)
REMARK    1  A    between atoms: C_2  and  C_4
REMARK    2  A    between atoms: C_7  and  N_8
REMARK    3  A    between atoms: N_8  and  C_9
REMARK    4  A    between atoms: C_9  and  C_10
REMARK                            x       y       z     vdW  Elec       q    Type
REMARK                         _______ _______ _______ _____ _____    ______ ____
ROOT
ATOM      1  C   UNL     1      46.328   2.262   7.816  0.00  0.00    +0.000 A 
ATOM      2  C   UNL     1      45.426   1.689   8.720  0.00  0.00    +0.000 A 
ATOM      3  C   UNL     1      44.551   2.504   9.449  0.00  0.00    +0.000 A 
ATOM      4  C   UNL     1      44.578   3.897   9.313  0.00  0.00    +0.000 A 
ATOM      5  C   UNL     1      45.435   4.450   8.355  0.00  0.00    +0.000 A 
ATOM      6  C   UNL     1      46.325   3.648   7.632  0.00  0.00    +0.000 A 
ENDROOT
BRANCH   1   8
ATOM      7  N   UNL     1      48.425   2.091   6.590  0.00  0.00    +0.000 N 
ATOM      8  C   UNL     1      47.321   1.446   7.073  0.00  0.00    +0.000 C 
ATOM      9  O   UNL     1      47.176   0.242   6.915  0.00  0.00    +0.000 OA
ATOM     10  H   UNL     1      49.136   1.503   6.171  0.00  0.00    +0.000 HD
ATOM     11  H   UNL     1      48.704   3.004   6.915  0.00  0.00    +0.000 HD
ENDBRANCH   1   8
BRANCH   4  12
ATOM     12  N   UNL     1      43.733   4.765  10.013  0.00  0.00    +0.000 N 
ATOM     13  H   UNL     1      42.835   4.871   9.541  0.00  0.00    +0.000 HD
BRANCH  12  14
ATOM     14  C   UNL     1      43.520   4.492  11.445  0.00  0.00    +0.000 C 
BRANCH  14  15
ATOM     15  C   UNL     1      44.760   4.791  12.272  0.00  0.00    +0.000 A 
ATOM     16  N   UNL     1      45.362   3.752  12.896  0.00  0.00    +0.000 NA
ATOM     17  C   UNL     1      46.487   4.036  13.579  0.00  0.00    +0.000 A 
ATOM     18  C   UNL     1      47.028   5.296  13.664  0.00  0.00    +0.000 A 
ATOM     19  C   UNL     1      46.346   6.283  12.994  0.00  0.00    +0.000 A 
ATOM     20  N   UNL     1      45.222   6.061  12.290  0.00  0.00    +0.000 NA
ENDBRANCH  14  15
ENDBRANCH  12  14
ENDBRANCH   4  12
TORSDOF 4
ENDMDL
MODEL 2
REMARK VINA RESULT:    -7.287      1.294      1.980
REMARK INTER + INTRA:          -9.413
REMARK INTER:                  -9.056
REMARK INTRA:                  -0.357
REMARK UNBOUND:                -0.422
REMARK  Name = 
REMARK  4 active torsions:
REMARK  status: ('A' for Active; 'I' for Inactive)
REMARK    1  A    between atoms: C_2  and  C_4
REMARK    2  A    between atoms: C_7  and  N_8
REMARK    3  A    between atoms: N_8  and  C_9
REMARK    4  A    between atoms: C_9  and  C_10
REMARK                            x       y       z     vdW  Elec       q    Type
REMARK                         _______ _______ _______ _____ _____    ______ ____
ROOT
ATOM      1  C   UNL     1      46.254   2.064   7.984  0.00  0.00    +0.000 A 
ATOM      2  C   UNL     1      46.414   3.412   7.644  0.00  0.00    +0.000 A 
ATOM      3  C   UNL     1      45.577   4.381   8.209  0.00  0.00    +0.000 A 
ATOM      4  C   UNL     1      44.554   4.025   9.095  0.00  0.00    +0.000 A 
ATOM      5  C   UNL     1      44.451   2.683   9.479  0.00  0.00    +0.000 A 
ATOM      6  C   UNL     1      45.271   1.704   8.910  0.00  0.00    +0.000 A 
ENDROOT
BRANCH   1   8
ATOM      7  N   UNL     1      46.772  -0.298   7.690  0.00  0.00    +0.000 N 
ATOM      8  C   UNL     1      47.071   0.994   7.358  0.00  0.00    +0.000 C 
ATOM      9  O   UNL     1      47.963   1.248   6.560  0.00  0.00    +0.000 OA
ATOM     10  H   UNL     1      47.275  -1.016   7.182  0.00  0.00    +0.000 HD
ATOM     11  H   UNL     1      45.900  -0.556   8.128  0.00  0.00    +0.000 HD
ENDBRANCH   1   8
BRANCH   4  12
ATOM     12  N   UNL     1      43.683   4.944   9.691  0.00  0.00    +0.000 N 
ATOM     13  H   UNL     1      42.745   4.878   9.296  0.00  0.00    +0.000 HD
BRANCH  12  14
ATOM     14  C   UNL     1      43.610   4.949  11.163  0.00  0.00    +0.000 C 
BRANCH  14  15
ATOM     15  C   UNL     1      44.478   6.039  11.772  0.00  0.00    +0.000 A 
ATOM     16  N   UNL     1      45.397   5.666  12.693  0.00  0.00    +0.000 NA
ATOM     17  C   UNL     1      46.186   6.642  13.178  0.00  0.00    +0.000 A 
ATOM     18  C   UNL     1      46.098   7.957  12.788  0.00  0.00    +0.000 A 
ATOM     19  C   UNL     1      45.136   8.235  11.847  0.00  0.00    +0.000 A 
ATOM     20  N   UNL     1      44.322   7.302  11.320  0.00  0.00    +0.000 NA
ENDBRANCH  14  15
ENDBRANCH  12  14
ENDBRANCH   4  12
TORSDOF 4
ENDMDL
MODEL 3
REMARK VINA RESULT:    -6.868      2.829      6.021
REMARK INTER + INTRA:          -8.896
REMARK INTER:                  -8.521
REMARK INTRA:                  -0.376
REMARK UNBOUND:                -0.422
REMARK  Name = 
REMARK  4 active torsions:
REMARK  status: ('A' for Active; 'I' for Inactive)
REMARK    1  A    between atoms: C_2  and  C_4
REMARK    2  A    between atoms: C_7  and  N_8
REMARK    3  A    between atoms: N_8  and  C_9
REMARK    4  A    between atoms: C_9  and  C_10
REMARK                            x       y       z     vdW  Elec       q    Type
REMARK                         _______ _______ _______ _____ _____    ______ ____
ROOT
ATOM      1  C   UNL     1      46.482   5.007  13.157  0.00  0.00    +0.000 A 
ATOM      2  C   UNL     1      46.663   6.053  12.245  0.00  0.00    +0.000 A 
ATOM      3  C   UNL     1      46.020   6.017  11.002  0.00  0.00    +0.000 A 
ATOM      4  C   UNL     1      45.214   4.933  10.636  0.00  0.00    +0.000 A 
ATOM      5  C   UNL     1      44.988   3.929  11.584  0.00  0.00    +0.000 A 
ATOM      6  C   UNL     1      45.636   3.946  12.823  0.00  0.00    +0.000 A 
ENDROOT
BRANCH   1   8
ATOM      7  N   UNL     1      46.819   4.005  15.351  0.00  0.00    +0.000 N 
ATOM      8  C   UNL     1      47.197   4.968  14.458  0.00  0.00    +0.000 C 
ATOM      9  O   UNL     1      48.103   5.747  14.719  0.00  0.00    +0.000 OA
ATOM     10  H   UNL     1      47.380   3.932  16.191  0.00  0.00    +0.000 HD
ATOM     11  H   UNL     1      46.273   3.201  15.081  0.00  0.00    +0.000 HD
ENDBRANCH   1   8
BRANCH   4  12
ATOM     12  N   UNL     1      44.547   4.835   9.409  0.00  0.00    +0.000 N 
ATOM     13  H   UNL     1      44.979   5.430   8.703  0.00  0.00    +0.000 HD
BRANCH  12  14
ATOM     14  C   UNL     1      44.330   3.484   8.865  0.00  0.00    +0.000 C 
BRANCH  14  15
ATOM     15  C   UNL     1      45.525   2.993   8.063  0.00  0.00    +0.000 A 
ATOM     16  N   UNL     1      45.955   1.730   8.291  0.00  0.00    +0.000 NA
ATOM     17  C   UNL     1      46.982   1.303   7.532  0.00  0.00    +0.000 A 
ATOM     18  C   UNL     1      47.588   2.073   6.569  0.00  0.00    +0.000 A 
ATOM     19  C   UNL     1      47.078   3.339   6.411  0.00  0.00    +0.000 A 
ATOM     20  N   UNL     1      46.050   3.820   7.133  0.00  0.00    +0.000 NA
ENDBRANCH  14  15
ENDBRANCH  12  14
ENDBRANCH   4  12
TORSDOF 4
ENDMDL
MODEL 4
REMARK VINA RESULT:    -6.689      3.077      6.219
REMARK INTER + INTRA:          -8.675
REMARK INTER:                  -8.426
REMARK INTRA:                  -0.250
REMARK UNBOUND:                -0.422
REMARK  Name = 
REMARK  4 active torsions:
REMARK  status: ('A' for Active; 'I' for Inactive)
REMARK    1  A    between atoms: C_2  and  C_4
REMARK    2  A    between atoms: C_7  and  N_8
REMARK    3  A    between atoms: N_8  and  C_9
REMARK    4  A    between atoms: C_9  and  C_10
REMARK                            x       y       z     vdW  Elec       q    Type
REMARK                         _______ _______ _______ _____ _____    ______ ____
ROOT
ATOM      1  C   UNL     1      45.815   6.605  12.478  0.00  0.00    +0.000 A 
ATOM      2  C   UNL     1      45.898   5.459  13.277  0.00  0.00    +0.000 A 
ATOM      3  C   UNL     1      45.607   4.202  12.732  0.00  0.00    +0.000 A 
ATOM      4  C   UNL     1      45.203   4.068  11.399  0.00  0.00    +0.000 A 
ATOM      5  C   UNL     1      45.192   5.214  10.594  0.00  0.00    +0.000 A 
ATOM      6  C   UNL     1      45.466   6.476  11.131  0.00  0.00    +0.000 A 
ENDROOT
BRANCH   1   8
ATOM      7  N   UNL     1      45.066   8.896  12.830  0.00  0.00    +0.000 N 
ATOM      8  C   UNL     1      46.047   7.964  13.028  0.00  0.00    +0.000 C 
ATOM      9  O   UNL     1      47.061   8.242  13.653  0.00  0.00    +0.000 OA
ATOM     10  H   UNL     1      45.199   9.786  13.294  0.00  0.00    +0.000 HD
ATOM     11  H   UNL     1      44.128   8.643  12.556  0.00  0.00    +0.000 HD
ENDBRANCH   1   8
BRANCH   4  12
ATOM     12  N   UNL     1      44.896   2.843  10.796  0.00  0.00    +0.000 N 
ATOM     13  H   UNL     1      44.268   2.290  11.379  0.00  0.00    +0.000 HD
BRANCH  12  14
ATOM     14  C   UNL     1      44.397   2.879   9.410  0.00  0.00    +0.000 C 
BRANCH  14  15
ATOM     15  C   UNL     1      45.485   2.537   8.405  0.00  0.00    +0.000 A 
ATOM     16  N   UNL     1      46.019   1.295   8.459  0.00  0.00    +0.000 NA
ATOM     17  C   UNL     1      46.944   1.001   7.526  0.00  0.00    +0.000 A 
ATOM     18  C   UNL     1      47.351   1.883   6.553  0.00  0.00    +0.000 A 
ATOM     19  C   UNL     1      46.748   3.117   6.580  0.00  0.00    +0.000 A 
ATOM     20  N   UNL     1      45.814   3.468   7.482  0.00  0.00    +0.000 NA
ENDBRANCH  14  15
ENDBRANCH  12  14
ENDBRANCH   4  12
TORSDOF 4
ENDMDL
MODEL 5
REMARK VINA RESULT:    -5.702      3.732      5.614
REMARK INTER + INTRA:          -7.458
REMARK INTER:                  -7.166
REMARK INTRA:                  -0.292
REMARK UNBOUND:                -0.422
REMARK  Name = 
REMARK  4 active torsions:
REMARK  status: ('A' for Active; 'I' for Inactive)
REMARK    1  A    between atoms: C_2  and  C_4
REMARK    2  A    between atoms: C_7  and  N_8
REMARK    3  A    between atoms: N_8  and  C_9
REMARK    4  A    between atoms: C_9  and  C_10
REMARK                            x       y       z     vdW  Elec       q    Type
REMARK                         _______ _______ _______ _____ _____    ______ ____
ROOT
ATOM      1  C   UNL     1      45.271   4.513  11.520  0.00  0.00    +0.000 A 
ATOM      2  C   UNL     1      45.773   5.800  11.743  0.00  0.00    +0.000 A 
ATOM      3  C   UNL     1      46.516   6.071  12.898  0.00  0.00    +0.000 A 
ATOM      4  C   UNL     1      46.747   5.080  13.859  0.00  0.00    +0.000 A 
ATOM      5  C   UNL     1      46.298   3.782  13.589  0.00  0.00    +0.000 A 
ATOM      6  C   UNL     1      45.541   3.502  12.446  0.00  0.00    +0.000 A 
ENDROOT
BRANCH   1   8
ATOM      7  N   UNL     1      44.769   4.754   9.148  0.00  0.00    +0.000 N 
ATOM      8  C   UNL     1      44.419   4.195  10.345  0.00  0.00    +0.000 C 
ATOM      9  O   UNL     1      43.456   3.446  10.433  0.00  0.00    +0.000 OA
ATOM     10  H   UNL     1      44.235   4.450   8.343  0.00  0.00    +0.000 HD
ATOM     11  H   UNL     1      45.680   5.154   8.984  0.00  0.00    +0.000 HD
ENDBRANCH   1   8
BRANCH   4  12
ATOM     12  N   UNL     1      47.478   5.287  15.034  0.00  0.00    +0.000 N 
ATOM     13  H   UNL     1      47.343   6.231  15.394  0.00  0.00    +0.000 HD
BRANCH  12  14
ATOM     14  C   UNL     1      47.307   4.304  16.118  0.00  0.00    +0.000 C 
BRANCH  14  15
ATOM     15  C   UNL     1      48.641   3.824  16.667  0.00  0.00    +0.000 A 
ATOM     16  N   UNL     1      48.906   2.499  16.595  0.00  0.00    +0.000 NA
ATOM     17  C   UNL     1      50.115   2.107  17.041  0.00  0.00    +0.000 A 
ATOM     18  C   UNL     1      51.056   2.971  17.548  0.00  0.00    +0.000 A 
ATOM     19  C   UNL     1      50.693   4.296  17.577  0.00  0.00    +0.000 A 
ATOM     20  N   UNL     1      49.504   4.749  17.140  0.00  0.00    +0.000 NA
ENDBRANCH  14  15
ENDBRANCH  12  14
ENDBRANCH   4  12
TORSDOF 4
ENDMDL
MODEL 6
REMARK VINA RESULT:    -5.584      2.914      4.604
REMARK INTER + INTRA:          -7.311
REMARK INTER:                  -6.996
REMARK INTRA:                  -0.315
REMARK UNBOUND:                -0.422
REMARK  Name = 
REMARK  4 active torsions:
REMARK  status: ('A' for Active; 'I' for Inactive)
REMARK    1  A    between atoms: C_2  and  C_4
REMARK    2  A    between atoms: C_7  and  N_8
REMARK    3  A    between atoms: N_8  and  C_9
REMARK    4  A    between atoms: C_9  and  C_10
REMARK                            x       y       z     vdW  Elec       q    Type
REMARK                         _______ _______ _______ _____ _____    ______ ____
ROOT
ATOM      1  C   UNL     1      45.036   3.977  10.471  0.00  0.00    +0.000 A 
ATOM      2  C   UNL     1      45.387   5.331  10.483  0.00  0.00    +0.000 A 
ATOM      3  C   UNL     1      45.813   5.935  11.672  0.00  0.00    +0.000 A 
ATOM      4  C   UNL     1      45.869   5.212  12.870  0.00  0.00    +0.000 A 
ATOM      5  C   UNL     1      45.581   3.843  12.828  0.00  0.00    +0.000 A 
ATOM      6  C   UNL     1      45.141   3.233  11.650  0.00  0.00    +0.000 A 
ENDROOT
BRANCH   1   8
ATOM      7  N   UNL     1      44.151   4.113   8.206  0.00  0.00    +0.000 N 
ATOM      8  C   UNL     1      44.514   3.311   9.251  0.00  0.00    +0.000 C 
ATOM      9  O   UNL     1      44.430   2.093   9.168  0.00  0.00    +0.000 OA
ATOM     10  H   UNL     1      43.888   3.638   7.351  0.00  0.00    +0.000 HD
ATOM     11  H   UNL     1      44.441   5.077   8.138  0.00  0.00    +0.000 HD
ENDBRANCH   1   8
BRANCH   4  12
ATOM     12  N   UNL     1      46.282   5.757  14.091  0.00  0.00    +0.000 N 
ATOM     13  H   UNL     1      45.691   5.438  14.859  0.00  0.00    +0.000 HD
BRANCH  12  14
ATOM     14  C   UNL     1      47.702   5.607  14.451  0.00  0.00    +0.000 C 
BRANCH  14  15
ATOM     15  C   UNL     1      47.880   4.872  15.770  0.00  0.00    +0.000 A 
ATOM     16  N   UNL     1      48.247   5.602  16.848  0.00  0.00    +0.000 NA
ATOM     17  C   UNL     1      48.348   4.937  18.014  0.00  0.00    +0.000 A 
ATOM     18  C   UNL     1      48.100   3.592  18.147  0.00  0.00    +0.000 A 
ATOM     19  C   UNL     1      47.731   2.939  16.996  0.00  0.00    +0.000 A 
ATOM     20  N   UNL     1      47.607   3.549  15.804  0.00  0.00    +0.000 NA
ENDBRANCH  14  15
ENDBRANCH  12  14
ENDBRANCH   4  12
TORSDOF 4
ENDMDL
MODEL 7
REMARK VINA RESULT:    -5.451      3.265      5.147
REMARK INTER + INTRA:          -7.147
REMARK INTER:                  -6.831
REMARK INTRA:                  -0.316
REMARK UNBOUND:                -0.422
REMARK  Name = 
REMARK  4 active torsions:
REMARK  status: ('A' for Active; 'I' for Inactive)
REMARK    1  A    between atoms: C_2  and  C_4
REMARK    2  A    between atoms: C_7  and  N_8
REMARK    3  A    between atoms: N_8  and  C_9
REMARK    4  A    between atoms: C_9  and  C_10
REMARK                            x       y       z     vdW  Elec       q    Type
REMARK                         _______ _______ _______ _____ _____    ______ ____
ROOT
ATOM      1  C   UNL     1      44.957   4.802  11.077  0.00  0.00    +0.000 A 
ATOM      2  C   UNL     1      45.639   5.943  10.639  0.00  0.00    +0.000 A 
ATOM      3  C   UNL     1      46.339   6.736  11.556  0.00  0.00    +0.000 A 
ATOM      4  C   UNL     1      46.349   6.425  12.921  0.00  0.00    +0.000 A 
ATOM      5  C   UNL     1      45.722   5.244  13.334  0.00  0.00    +0.000 A 
ATOM      6  C   UNL     1      45.007   4.452  12.430  0.00  0.00    +0.000 A 
ENDROOT
BRANCH   1   8
ATOM      7  N   UNL     1      44.119   4.336   8.838  0.00  0.00    +0.000 N 
ATOM      8  C   UNL     1      44.145   3.969  10.154  0.00  0.00    +0.000 C 
ATOM      9  O   UNL     1      43.538   2.980  10.544  0.00  0.00    +0.000 OA
ATOM     10  H   UNL     1      43.639   3.704   8.209  0.00  0.00    +0.000 HD
ATOM     11  H   UNL     1      44.794   4.971   8.440  0.00  0.00    +0.000 HD
ENDBRANCH   1   8
BRANCH   4  12
ATOM     12  N   UNL     1      47.026   7.177  13.887  0.00  0.00    +0.000 N 
ATOM     13  H   UNL     1      46.489   7.241  14.752  0.00  0.00    +0.000 HD
BRANCH  12  14
ATOM     14  C   UNL     1      48.418   6.798  14.185  0.00  0.00    +0.000 C 
BRANCH  14  15
ATOM     15  C   UNL     1      48.583   6.316  15.618  0.00  0.00    +0.000 A 
ATOM     16  N   UNL     1      48.313   5.016  15.876  0.00  0.00    +0.000 NA
ATOM     17  C   UNL     1      48.516   4.603  17.141  0.00  0.00    +0.000 A 
ATOM     18  C   UNL     1      48.972   5.423  18.145  0.00  0.00    +0.000 A 
ATOM     19  C   UNL     1      49.220   6.725  17.783  0.00  0.00    +0.000 A 
ATOM     20  N   UNL     1      49.043   7.195  16.535  0.00  0.00    +0.000 NA
ENDBRANCH  14  15
ENDBRANCH  12  14
ENDBRANCH   4  12
TORSDOF 4
ENDMDL
MODEL 8
REMARK VINA RESULT:    -5.196      5.843      8.638
REMARK INTER + INTRA:          -6.832
REMARK INTER:                  -6.505
REMARK INTRA:                  -0.327
REMARK UNBOUND:                -0.422
REMARK  Name = 
REMARK  4 active torsions:
REMARK  status: ('A' for Active; 'I' for Inactive)
REMARK    1  A    between atoms: C_2  and  C_4
REMARK    2  A    between atoms: C_7  and  N_8
REMARK    3  A    between atoms: N_8  and  C_9
REMARK    4  A    between atoms: C_9  and  C_10
REMARK                            x       y       z     vdW  Elec       q    Type
REMARK                         _______ _______ _______ _____ _____    ______ ____
ROOT
ATOM      1  C   UNL     1      51.729   2.249  17.675  0.00  0.00    +0.000 A 
ATOM      2  C   UNL     1      51.769   3.603  18.026  0.00  0.00    +0.000 A 
ATOM      3  C   UNL     1      50.634   4.405  17.854  0.00  0.00    +0.000 A 
ATOM      4  C   UNL     1      49.457   3.883  17.306  0.00  0.00    +0.000 A 
ATOM      5  C   UNL     1      49.410   2.513  17.024  0.00  0.00    +0.000 A 
ATOM      6  C   UNL     1      50.541   1.705  17.177  0.00  0.00    +0.000 A 
ENDROOT
BRANCH   1   8
ATOM      7  N   UNL     1      52.729   0.085  18.178  0.00  0.00    +0.000 N 
ATOM      8  C   UNL     1      52.926   1.376  17.774  0.00  0.00    +0.000 C 
ATOM      9  O   UNL     1      54.044   1.781  17.486  0.00  0.00    +0.000 OA
ATOM     10  H   UNL     1      53.541  -0.520  18.147  0.00  0.00    +0.000 HD
ATOM     11  H   UNL     1      51.819  -0.350  18.172  0.00  0.00    +0.000 HD
ENDBRANCH   1   8
BRANCH   4  12
ATOM     12  N   UNL     1      48.291   4.632  17.106  0.00  0.00    +0.000 N 
ATOM     13  H   UNL     1      48.502   5.554  16.724  0.00  0.00    +0.000 HD
BRANCH  12  14
ATOM     14  C   UNL     1      47.208   4.001  16.332  0.00  0.00    +0.000 C 
BRANCH  14  15
ATOM     15  C   UNL     1      47.064   4.616  14.949  0.00  0.00    +0.000 A 
ATOM     16  N   UNL     1      46.052   4.171  14.169  0.00  0.00    +0.000 NA
ATOM     17  C   UNL     1      45.914   4.768  12.970  0.00  0.00    +0.000 A 
ATOM     18  C   UNL     1      46.733   5.778  12.525  0.00  0.00    +0.000 A 
ATOM     19  C   UNL     1      47.729   6.162  13.390  0.00  0.00    +0.000 A 
ATOM     20  N   UNL     1      47.912   5.609  14.602  0.00  0.00    +0.000 NA
ENDBRANCH  14  15
ENDBRANCH  12  14
ENDBRANCH   4  12
TORSDOF 4
ENDMDL
MODEL 9
REMARK VINA RESULT:    -5.103      3.586      5.325
REMARK INTER + INTRA:          -6.718
REMARK INTER:                  -6.428
REMARK INTRA:                  -0.290
REMARK UNBOUND:                -0.422
REMARK  Name = 
REMARK  4 active torsions:
REMARK  status: ('A' for Active; 'I' for Inactive)
REMARK    1  A    between atoms: C_2  and  C_4
REMARK    2  A    between atoms: C_7  and  N_8
REMARK    3  A    between atoms: N_8  and  C_9
REMARK    4  A    between atoms: C_9  and  C_10
REMARK                            x       y       z     vdW  Elec       q    Type
REMARK                         _______ _______ _______ _____ _____    ______ ____
ROOT
ATOM      1  C   UNL     1      44.933   4.012  11.523  0.00  0.00    +0.000 A 
ATOM      2  C   UNL     1      45.229   5.200  10.843  0.00  0.00    +0.000 A 
ATOM      3  C   UNL     1      45.914   6.230  11.498  0.00  0.00    +0.000 A 
ATOM      4  C   UNL     1      46.290   6.109  12.841  0.00  0.00    +0.000 A 
ATOM      5  C   UNL     1      46.049   4.891  13.487  0.00  0.00    +0.000 A 
ATOM      6  C   UNL     1      45.352   3.860  12.848  0.00  0.00    +0.000 A 
ENDROOT
BRANCH   1   8
ATOM      7  N   UNL     1      44.708   2.286   9.819  0.00  0.00    +0.000 N 
ATOM      8  C   UNL     1      44.149   2.921  10.893  0.00  0.00    +0.000 C 
ATOM      9  O   UNL     1      43.055   2.581  11.325  0.00  0.00    +0.000 OA
ATOM     10  H   UNL     1      44.202   1.484   9.464  0.00  0.00    +0.000 HD
ATOM     11  H   UNL     1      45.690   2.357   9.601  0.00  0.00    +0.000 HD
ENDBRANCH   1   8
BRANCH   4  12
ATOM     12  N   UNL     1      46.973   7.101  13.552  0.00  0.00    +0.000 N 
ATOM     13  H   UNL     1      46.379   7.523  14.266  0.00  0.00    +0.000 HD
BRANCH  12  14
ATOM     14  C   UNL     1      48.278   6.740  14.132  0.00  0.00    +0.000 C 
BRANCH  14  15
ATOM     15  C   UNL     1      49.431   7.412  13.404  0.00  0.00    +0.000 A 
ATOM     16  N   UNL     1      50.404   7.975  14.157  0.00  0.00    +0.000 NA
ATOM     17  C   UNL     1      51.438   8.519  13.488  0.00  0.00    +0.000 A 
ATOM     18  C   UNL     1      51.540   8.523  12.118  0.00  0.00    +0.000 A 
ATOM     19  C   UNL     1      50.504   7.925  11.442  0.00  0.00    +0.000 A 
ATOM     20  N   UNL     1      49.448   7.360  12.054  0.00  0.00    +0.000 NA
ENDBRANCH  14  15
ENDBRANCH  12  14
ENDBRANCH   4  12
TORSDOF 4
ENDMDL
