MODEL 1
REMARK VINA RESULT:    -8.972      0.000      0.000
REMARK INTER + INTRA:         -12.143
REMARK INTER:                 -11.595
REMARK INTRA:                  -0.548
REMARK UNBOUND:                -0.548
REMARK  Name = 
REMARK  5 active torsions:
REMARK  status: ('A' for Active; 'I' for Inactive)
REMARK    1  A    between atoms: C_2  and  C_4
REMARK    2  A    between atoms: C_7  and  N_8
REMARK    3  A    between atoms: N_8  and  C_9
REMARK    4  A    between atoms: C_9  and  C_10
REMARK    5  A    between atoms: C_14  and  C_15
REMARK                            x       y       z     vdW  Elec       q    Type
REMARK                         _______ _______ _______ _____ _____    ______ ____
ROOT
ATOM      1  C   UNL     1      44.056   4.568  11.376  0.00  0.00    +0.000 C 
ENDROOT
BRANCH   1   2
ATOM      2  C   UNL     1      45.303   5.246  11.896  0.00  0.00    +0.000 A 
ATOM      3  C   UNL     1      45.852   6.348  11.234  0.00  0.00    +0.000 A 
ATOM      4  C   UNL     1      46.969   6.991  11.761  0.00  0.00    +0.000 A 
ATOM      5  C   UNL     1      47.530   6.554  12.965  0.00  0.00    +0.000 A 
ATOM      6  C   UNL     1      46.979   5.479  13.684  0.00  0.00    +0.000 A 
ATOM      7  C   UNL     1      45.871   4.826  13.113  0.00  0.00    +0.000 A 
BRANCH   6   8
ATOM      8  C   UNL     1      47.476   5.099  15.028  0.00  0.00    +0.000 A 
ATOM      9  C   UNL     1      48.392   5.916  15.717  0.00  0.00    +0.000 A 
ATOM     10  C   UNL     1      48.784   5.619  17.022  0.00  0.00    +0.000 A 
ATOM     11  F   UNL     1      49.642   6.434  17.648  0.00  0.00    +0.000 F 
ATOM     12  C   UNL     1      48.285   4.512  17.685  0.00  0.00    +0.000 A 
ATOM     13  C   UNL     1      47.399   3.687  17.015  0.00  0.00    +0.000 A 
ATOM     14  F   UNL     1      46.896   2.615  17.642  0.00  0.00    +0.000 F 
ATOM     15  C   UNL     1      47.003   3.960  15.704  0.00  0.00    +0.000 A 
ENDBRANCH   6   8
ENDBRANCH   1   2
BRANCH   1  16
ATOM     16  N   UNL     1      43.973   4.818   9.941  0.00  0.00    +0.000 N 
ATOM     17  H   UNL     1      44.127   5.799   9.725  0.00  0.00    +0.000 HD
BRANCH  16  21
ATOM     18  C   UNL     1      46.395   2.322   7.760  0.00  0.00    +0.000 A 
ATOM     19  C   UNL     1      46.392   3.687   7.524  0.00  0.00    +0.000 A 
ATOM     20  N   UNL     1      45.594   4.547   8.213  0.00  0.00    +0.000 NA
ATOM     21  C   UNL     1      44.789   4.003   9.151  0.00  0.00    +0.000 A 
ATOM     22  C   UNL     1      44.815   2.620   9.380  0.00  0.00    +0.000 A 
ATOM     23  N   UNL     1      45.598   1.742   8.698  0.00  0.00    +0.000 NA
BRANCH  18  25
ATOM     24  N   UNL     1      48.404   2.041   6.443  0.00  0.00    +0.000 N 
ATOM     25  C   UNL     1      47.297   1.438   6.976  0.00  0.00    +0.000 C 
ATOM     26  O   UNL     1      47.069   0.245   6.816  0.00  0.00    +0.000 OA
ATOM     27  H   UNL     1      49.050   1.495   5.890  0.00  0.00    +0.000 HD
ATOM     28  H   UNL     1      48.563   3.031   6.585  0.00  0.00    +0.000 HD
ENDBRANCH  18  25
ENDBRANCH  16  21
ENDBRANCH   1  16
TORSDOF 5
ENDMDL
MODEL 2
REMARK VINA RESULT:    -8.896      3.021      4.261
REMARK INTER + INTRA:         -12.045
REMARK INTER:                 -11.298
REMARK INTRA:                  -0.747
REMARK UNBOUND:                -0.548
REMARK  Name = 
REMARK  5 active torsions:
REMARK  status: ('A' for Active; 'I' for Inactive)
REMARK    1  A    between atoms: C_2  and  C_4
REMARK    2  A    between atoms: C_7  and  N_8
REMARK    3  A    between atoms: N_8  and  C_9
REMARK    4  A    between atoms: C_9  and  C_10
REMARK    5  A    between atoms: C_14  and  C_15
REMARK                            x       y       z     vdW  Elec       q    Type
REMARK                         _______ _______ _______ _____ _____    ______ ____
ROOT
ATOM      1  C   UNL     1      43.538   4.521  11.124  0.00  0.00    +0.000 C 
ENDROOT
BRANCH   1   2
ATOM      2  C   UNL     1      44.767   4.889  11.924  0.00  0.00    +0.000 A 
ATOM      3  C   UNL     1      45.370   3.966  12.782  0.00  0.00    +0.000 A 
ATOM      4  C   UNL     1      46.533   4.308  13.467  0.00  0.00    +0.000 A 
ATOM      5  C   UNL     1      47.114   5.567  13.282  0.00  0.00    +0.000 A 
ATOM      6  C   UNL     1      46.562   6.507  12.394  0.00  0.00    +0.000 A 
ATOM      7  C   UNL     1      45.370   6.147  11.739  0.00  0.00    +0.000 A 
BRANCH   6   8
ATOM      8  C   UNL     1      47.246   7.785  12.082  0.00  0.00    +0.000 A 
ATOM      9  C   UNL     1      46.567   9.012  12.188  0.00  0.00    +0.000 A 
ATOM     10  C   UNL     1      47.232  10.223  11.997  0.00  0.00    +0.000 A 
ATOM     11  F   UNL     1      46.552  11.369  12.126  0.00  0.00    +0.000 F 
ATOM     12  C   UNL     1      48.582  10.260  11.699  0.00  0.00    +0.000 A 
ATOM     13  C   UNL     1      49.262   9.061  11.571  0.00  0.00    +0.000 A 
ATOM     14  F   UNL     1      50.572   9.073  11.293  0.00  0.00    +0.000 F 
ATOM     15  C   UNL     1      48.612   7.837  11.747  0.00  0.00    +0.000 A 
ENDBRANCH   6   8
ENDBRANCH   1   2
BRANCH   1  16
ATOM     16  N   UNL     1      43.806   4.826   9.722  0.00  0.00    +0.000 N 
ATOM     17  H   UNL     1      44.163   5.770   9.609  0.00  0.00    +0.000 HD
BRANCH  16  21
ATOM     18  C   UNL     1      46.213   2.023   7.932  0.00  0.00    +0.000 A 
ATOM     19  C   UNL     1      46.355   3.368   7.635  0.00  0.00    +0.000 A 
ATOM     20  N   UNL     1      45.568   4.327   8.193  0.00  0.00    +0.000 NA
ATOM     21  C   UNL     1      44.625   3.905   9.063  0.00  0.00    +0.000 A 
ATOM     22  C   UNL     1      44.506   2.538   9.357  0.00  0.00    +0.000 A 
ATOM     23  N   UNL     1      45.275   1.563   8.804  0.00  0.00    +0.000 NA
BRANCH  18  25
ATOM     24  N   UNL     1      46.885  -0.281   7.628  0.00  0.00    +0.000 N 
ATOM     25  C   UNL     1      47.111   1.026   7.291  0.00  0.00    +0.000 C 
ATOM     26  O   UNL     1      47.995   1.349   6.508  0.00  0.00    +0.000 OA
ATOM     27  H   UNL     1      47.470  -1.005   7.234  0.00  0.00    +0.000 HD
ATOM     28  H   UNL     1      46.151  -0.518   8.286  0.00  0.00    +0.000 HD
ENDBRANCH  18  25
ENDBRANCH  16  21
ENDBRANCH   1  16
TORSDOF 5
ENDMDL
MODEL 3
REMARK VINA RESULT:    -8.415      4.831      7.974
REMARK INTER + INTRA:         -11.423
REMARK INTER:                 -10.924
REMARK INTRA:                  -0.500
REMARK UNBOUND:                -0.548
REMARK  Name = 
REMARK  5 active torsions:
REMARK  status: ('A' for Active; 'I' for Inactive)
REMARK    1  A    between atoms: C_2  and  C_4
REMARK    2  A    between atoms: C_7  and  N_8
REMARK    3  A    between atoms: N_8  and  C_9
REMARK    4  A    between atoms: C_9  and  C_10
REMARK    5  A    between atoms: C_14  and  C_15
REMARK                            x       y       z     vdW  Elec       q    Type
REMARK                         _______ _______ _______ _____ _____    ______ ____
ROOT
ATOM      1  C   UNL     1      46.178   7.028  12.169  0.00  0.00    +0.000 C 
ENDROOT
BRANCH   1   2
ATOM      2  C   UNL     1      45.255   6.040  11.493  0.00  0.00    +0.000 A 
ATOM      3  C   UNL     1      43.879   6.058  11.737  0.00  0.00    +0.000 A 
ATOM      4  C   UNL     1      43.040   5.175  11.062  0.00  0.00    +0.000 A 
ATOM      5  C   UNL     1      43.567   4.285  10.120  0.00  0.00    +0.000 A 
ATOM      6  C   UNL     1      44.939   4.267   9.814  0.00  0.00    +0.000 A 
ATOM      7  C   UNL     1      45.768   5.147  10.534  0.00  0.00    +0.000 A 
BRANCH   6   8
ATOM      8  C   UNL     1      45.486   3.431   8.719  0.00  0.00    +0.000 A 
ATOM      9  C   UNL     1      45.942   4.015   7.522  0.00  0.00    +0.000 A 
ATOM     10  C   UNL     1      46.551   3.246   6.531  0.00  0.00    +0.000 A 
ATOM     11  F   UNL     1      46.989   3.845   5.417  0.00  0.00    +0.000 F 
ATOM     12  C   UNL     1      46.730   1.883   6.690  0.00  0.00    +0.000 A 
ATOM     13  C   UNL     1      46.269   1.290   7.852  0.00  0.00    +0.000 A 
ATOM     14  F   UNL     1      46.442  -0.027   8.031  0.00  0.00    +0.000 F 
ATOM     15  C   UNL     1      45.645   2.040   8.852  0.00  0.00    +0.000 A 
ENDBRANCH   6   8
ENDBRANCH   1   2
BRANCH   1  16
ATOM     16  N   UNL     1      47.454   6.362  12.405  0.00  0.00    +0.000 N 
ATOM     17  H   UNL     1      48.237   6.990  12.244  0.00  0.00    +0.000 HD
BRANCH  16  21
ATOM     18  C   UNL     1      47.636   4.456  16.037  0.00  0.00    +0.000 A 
ATOM     19  C   UNL     1      48.270   5.673  15.846  0.00  0.00    +0.000 A 
ATOM     20  N   UNL     1      48.248   6.330  14.655  0.00  0.00    +0.000 NA
ATOM     21  C   UNL     1      47.572   5.734  13.648  0.00  0.00    +0.000 A 
ATOM     22  C   UNL     1      46.930   4.506  13.867  0.00  0.00    +0.000 A 
ATOM     23  N   UNL     1      46.947   3.828  15.045  0.00  0.00    +0.000 NA
BRANCH  18  25
ATOM     24  N   UNL     1      46.714   2.871  17.615  0.00  0.00    +0.000 N 
ATOM     25  C   UNL     1      47.695   3.793  17.366  0.00  0.00    +0.000 C 
ATOM     26  O   UNL     1      48.565   4.051  18.188  0.00  0.00    +0.000 OA
ATOM     27  H   UNL     1      46.693   2.395  18.506  0.00  0.00    +0.000 HD
ATOM     28  H   UNL     1      46.003   2.685  16.918  0.00  0.00    +0.000 HD
ENDBRANCH  18  25
ENDBRANCH  16  21
ENDBRANCH   1  16
TORSDOF 5
ENDMDL
MODEL 4
REMARK VINA RESULT:    -8.316      5.083      7.587
REMARK INTER + INTRA:         -11.295
REMARK INTER:                 -10.501
REMARK INTRA:                  -0.794
REMARK UNBOUND:                -0.548
REMARK  Name = 
REMARK  5 active torsions:
REMARK  status: ('A' for Active; 'I' for Inactive)
REMARK    1  A    between atoms: C_2  and  C_4
REMARK    2  A    between atoms: C_7  and  N_8
REMARK    3  A    between atoms: N_8  and  C_9
REMARK    4  A    between atoms: C_9  and  C_10
REMARK    5  A    between atoms: C_14  and  C_15
REMARK                            x       y       z     vdW  Elec       q    Type
REMARK                         _______ _______ _______ _____ _____    ______ ____
ROOT
ATOM      1  C   UNL     1      44.062   6.762  11.442  0.00  0.00    +0.000 C 
ENDROOT
BRANCH   1   2
ATOM      2  C   UNL     1      44.054   5.264  11.235  0.00  0.00    +0.000 A 
ATOM      3  C   UNL     1      43.248   4.434  12.017  0.00  0.00    +0.000 A 
ATOM      4  C   UNL     1      43.215   3.063  11.773  0.00  0.00    +0.000 A 
ATOM      5  C   UNL     1      43.969   2.516  10.730  0.00  0.00    +0.000 A 
ATOM      6  C   UNL     1      44.758   3.325   9.892  0.00  0.00    +0.000 A 
ATOM      7  C   UNL     1      44.798   4.701  10.182  0.00  0.00    +0.000 A 
BRANCH   6   8
ATOM      8  C   UNL     1      45.446   2.777   8.698  0.00  0.00    +0.000 A 
ATOM      9  C   UNL     1      45.797   3.612   7.621  0.00  0.00    +0.000 A 
ATOM     10  C   UNL     1      46.535   3.124   6.542  0.00  0.00    +0.000 A 
ATOM     11  F   UNL     1      46.864   3.957   5.547  0.00  0.00    +0.000 F 
ATOM     12  C   UNL     1      46.949   1.805   6.495  0.00  0.00    +0.000 A 
ATOM     13  C   UNL     1      46.596   0.966   7.537  0.00  0.00    +0.000 A 
ATOM     14  F   UNL     1      46.996  -0.312   7.517  0.00  0.00    +0.000 F 
ATOM     15  C   UNL     1      45.847   1.431   8.621  0.00  0.00    +0.000 A 
ENDBRANCH   6   8
ENDBRANCH   1   2
BRANCH   1  16
ATOM     16  N   UNL     1      44.735   7.038  12.706  0.00  0.00    +0.000 N 
ATOM     17  H   UNL     1      44.528   6.326  13.401  0.00  0.00    +0.000 HD
BRANCH  16  21
ATOM     18  C   UNL     1      48.805   7.556  12.566  0.00  0.00    +0.000 A 
ATOM     19  C   UNL     1      47.950   8.571  12.167  0.00  0.00    +0.000 A 
ATOM     20  N   UNL     1      46.597   8.435  12.183  0.00  0.00    +0.000 NA
ATOM     21  C   UNL     1      46.113   7.248  12.609  0.00  0.00    +0.000 A 
ATOM     22  C   UNL     1      46.998   6.238  13.017  0.00  0.00    +0.000 A 
ATOM     23  N   UNL     1      48.352   6.349  13.001  0.00  0.00    +0.000 NA
BRANCH  18  25
ATOM     24  N   UNL     1      50.929   7.239  11.452  0.00  0.00    +0.000 N 
ATOM     25  C   UNL     1      50.276   7.773  12.530  0.00  0.00    +0.000 C 
ATOM     26  O   UNL     1      50.868   8.391  13.405  0.00  0.00    +0.000 OA
ATOM     27  H   UNL     1      51.931   7.343  11.377  0.00  0.00    +0.000 HD
ATOM     28  H   UNL     1      50.413   6.726  10.748  0.00  0.00    +0.000 HD
ENDBRANCH  18  25
ENDBRANCH  16  21
ENDBRANCH   1  16
TORSDOF 5
ENDMDL
MODEL 5
REMARK VINA RESULT:    -8.312      3.017      4.478
REMARK INTER + INTRA:         -11.290
REMARK INTER:                 -10.438
REMARK INTRA:                  -0.853
REMARK UNBOUND:                -0.548
REMARK  Name = 
REMARK  5 active torsions:
REMARK  status: ('A' for Active; 'I' for Inactive)
REMARK    1  A    between atoms: C_2  and  C_4
REMARK    2  A    between atoms: C_7  and  N_8
REMARK    3  A    between atoms: N_8  and  C_9
REMARK    4  A    between atoms: C_9  and  C_10
REMARK    5  A    between atoms: C_14  and  C_15
REMARK                            x       y       z     vdW  Elec       q    Type
REMARK                         _______ _______ _______ _____ _____    ______ ____
ROOT
ATOM      1  C   UNL     1      43.961   3.544  11.640  0.00  0.00    +0.000 C 
ENDROOT
BRANCH   1   2
ATOM      2  C   UNL     1      45.019   4.370  12.335  0.00  0.00    +0.000 A 
ATOM      3  C   UNL     1      46.041   3.761  13.069  0.00  0.00    +0.000 A 
ATOM      4  C   UNL     1      47.036   4.539  13.655  0.00  0.00    +0.000 A 
ATOM      5  C   UNL     1      47.031   5.928  13.492  0.00  0.00    +0.000 A 
ATOM      6  C   UNL     1      46.046   6.573  12.723  0.00  0.00    +0.000 A 
ATOM      7  C   UNL     1      45.035   5.767  12.170  0.00  0.00    +0.000 A 
BRANCH   6   8
ATOM      8  C   UNL     1      46.112   8.024  12.425  0.00  0.00    +0.000 A 
ATOM      9  C   UNL     1      47.346   8.700  12.395  0.00  0.00    +0.000 A 
ATOM     10  C   UNL     1      47.425  10.040  12.015  0.00  0.00    +0.000 A 
ATOM     11  F   UNL     1      48.622  10.640  11.981  0.00  0.00    +0.000 F 
ATOM     12  C   UNL     1      46.295  10.750  11.652  0.00  0.00    +0.000 A 
ATOM     13  C   UNL     1      45.070  10.105  11.695  0.00  0.00    +0.000 A 
ATOM     14  F   UNL     1      43.964  10.771  11.338  0.00  0.00    +0.000 F 
ATOM     15  C   UNL     1      44.968   8.768  12.084  0.00  0.00    +0.000 A 
ENDBRANCH   6   8
ENDBRANCH   1   2
BRANCH   1  16
ATOM     16  N   UNL     1      43.828   4.039  10.275  0.00  0.00    +0.000 N 
ATOM     17  H   UNL     1      43.798   5.055  10.249  0.00  0.00    +0.000 HD
BRANCH  16  21
ATOM     18  C   UNL     1      46.563   2.726   7.509  0.00  0.00    +0.000 A 
ATOM     19  C   UNL     1      45.931   1.831   8.357  0.00  0.00    +0.000 A 
ATOM     20  N   UNL     1      45.030   2.225   9.297  0.00  0.00    +0.000 NA
ATOM     21  C   UNL     1      44.776   3.550   9.373  0.00  0.00    +0.000 A 
ATOM     22  C   UNL     1      45.422   4.437   8.498  0.00  0.00    +0.000 A 
ATOM     23  N   UNL     1      46.330   4.065   7.558  0.00  0.00    +0.000 NA
BRANCH  18  25
ATOM     24  N   UNL     1      47.794   3.074   5.457  0.00  0.00    +0.000 N 
ATOM     25  C   UNL     1      47.533   2.227   6.499  0.00  0.00    +0.000 C 
ATOM     26  O   UNL     1      48.068   1.129   6.592  0.00  0.00    +0.000 OA
ATOM     27  H   UNL     1      48.436   2.787   4.731  0.00  0.00    +0.000 HD
ATOM     28  H   UNL     1      47.330   3.973   5.403  0.00  0.00    +0.000 HD
ENDBRANCH  18  25
ENDBRANCH  16  21
ENDBRANCH   1  16
TORSDOF 5
ENDMDL
MODEL 6
REMARK VINA RESULT:    -8.003      5.260      8.463
REMARK INTER + INTRA:         -10.891
REMARK INTER:                 -10.295
REMARK INTRA:                  -0.597
REMARK UNBOUND:                -0.548
REMARK  Name = 
REMARK  5 active torsions:
REMARK  status: ('A' for Active; 'I' for Inactive)
REMARK    1  A    between atoms: C_2  and  C_4
REMARK    2  A    between atoms: C_7  and  N_8
REMARK    3  A    between atoms: N_8  and  C_9
REMARK    4  A    between atoms: C_9  and  C_10
REMARK    5  A    between atoms: C_14  and  C_15
REMARK                            x       y       z     vdW  Elec       q    Type
REMARK                         _______ _______ _______ _____ _____    ______ ____
ROOT
ATOM      1  C   UNL     1      46.005   5.729  13.526  0.00  0.00    +0.000 C 
ENDROOT
BRANCH   1   2
ATOM      2  C   UNL     1      45.053   5.235  12.460  0.00  0.00    +0.000 A 
ATOM      3  C   UNL     1      43.705   5.600  12.474  0.00  0.00    +0.000 A 
ATOM      4  C   UNL     1      42.858   5.178  11.452  0.00  0.00    +0.000 A 
ATOM      5  C   UNL     1      43.358   4.408  10.397  0.00  0.00    +0.000 A 
ATOM      6  C   UNL     1      44.718   4.058  10.325  0.00  0.00    +0.000 A 
ATOM      7  C   UNL     1      45.544   4.469  11.386  0.00  0.00    +0.000 A 
BRANCH   6   8
ATOM      8  C   UNL     1      45.285   3.366   9.142  0.00  0.00    +0.000 A 
ATOM      9  C   UNL     1      45.734   4.095   8.025  0.00  0.00    +0.000 A 
ATOM     10  C   UNL     1      46.363   3.460   6.955  0.00  0.00    +0.000 A 
ATOM     11  F   UNL     1      46.792   4.193   5.920  0.00  0.00    +0.000 F 
ATOM     12  C   UNL     1      46.569   2.091   6.954  0.00  0.00    +0.000 A 
ATOM     13  C   UNL     1      46.116   1.357   8.036  0.00  0.00    +0.000 A 
ATOM     14  F   UNL     1      46.314   0.032   8.061  0.00  0.00    +0.000 F 
ATOM     15  C   UNL     1      45.473   1.972   9.113  0.00  0.00    +0.000 A 
ENDBRANCH   6   8
ENDBRANCH   1   2
BRANCH   1  16
ATOM     16  N   UNL     1      47.092   4.763  13.642  0.00  0.00    +0.000 N 
ATOM     17  H   UNL     1      47.865   4.999  13.027  0.00  0.00    +0.000 HD
BRANCH  16  21
ATOM     18  C   UNL     1      48.552   4.227  17.442  0.00  0.00    +0.000 A 
ATOM     19  C   UNL     1      48.048   3.156  16.722  0.00  0.00    +0.000 A 
ATOM     20  N   UNL     1      47.541   3.293  15.467  0.00  0.00    +0.000 NA
ATOM     21  C   UNL     1      47.547   4.539  14.945  0.00  0.00    +0.000 A 
ATOM     22  C   UNL     1      48.070   5.607  15.689  0.00  0.00    +0.000 A 
ATOM     23  N   UNL     1      48.573   5.494  16.946  0.00  0.00    +0.000 NA
BRANCH  18  25
ATOM     24  N   UNL     1      48.332   3.233  19.636  0.00  0.00    +0.000 N 
ATOM     25  C   UNL     1      49.097   4.008  18.807  0.00  0.00    +0.000 C 
ATOM     26  O   UNL     1      50.165   4.486  19.170  0.00  0.00    +0.000 OA
ATOM     27  H   UNL     1      48.644   3.056  20.581  0.00  0.00    +0.000 HD
ATOM     28  H   UNL     1      47.450   2.857  19.310  0.00  0.00    +0.000 HD
ENDBRANCH  18  25
ENDBRANCH  16  21
ENDBRANCH   1  16
TORSDOF 5
ENDMDL
MODEL 7
REMARK VINA RESULT:    -7.959      2.579      3.431
REMARK INTER + INTRA:         -10.834
REMARK INTER:                 -10.143
REMARK INTRA:                  -0.690
REMARK UNBOUND:                -0.548
REMARK  Name = 
REMARK  5 active torsions:
REMARK  status: ('A' for Active; 'I' for Inactive)
REMARK    1  A    between atoms: C_2  and  C_4
REMARK    2  A    between atoms: C_7  and  N_8
REMARK    3  A    between atoms: N_8  and  C_9
REMARK    4  A    between atoms: C_9  and  C_10
REMARK    5  A    between atoms: C_14  and  C_15
REMARK                            x       y       z     vdW  Elec       q    Type
REMARK                         _______ _______ _______ _____ _____    ______ ____
ROOT
ATOM      1  C   UNL     1      44.386   5.200  11.212  0.00  0.00    +0.000 C 
ENDROOT
BRANCH   1   2
ATOM      2  C   UNL     1      45.041   6.544  11.436  0.00  0.00    +0.000 A 
ATOM      3  C   UNL     1      44.292   7.724  11.396  0.00  0.00    +0.000 A 
ATOM      4  C   UNL     1      44.905   8.947  11.660  0.00  0.00    +0.000 A 
ATOM      5  C   UNL     1      46.264   8.997  11.988  0.00  0.00    +0.000 A 
ATOM      6  C   UNL     1      47.039   7.828  12.082  0.00  0.00    +0.000 A 
ATOM      7  C   UNL     1      46.403   6.610  11.779  0.00  0.00    +0.000 A 
BRANCH   6   8
ATOM      8  C   UNL     1      48.440   7.855  12.567  0.00  0.00    +0.000 A 
ATOM      9  C   UNL     1      49.473   8.374  11.764  0.00  0.00    +0.000 A 
ATOM     10  C   UNL     1      50.773   8.497  12.253  0.00  0.00    +0.000 A 
ATOM     11  F   UNL     1      51.722   9.015  11.463  0.00  0.00    +0.000 F 
ATOM     12  C   UNL     1      51.093   8.116  13.544  0.00  0.00    +0.000 A 
ATOM     13  C   UNL     1      50.093   7.585  14.341  0.00  0.00    +0.000 A 
ATOM     14  F   UNL     1      50.378   7.218  15.597  0.00  0.00    +0.000 F 
ATOM     15  C   UNL     1      48.787   7.441  13.867  0.00  0.00    +0.000 A 
ENDBRANCH   6   8
ENDBRANCH   1   2
BRANCH   1  16
ATOM     16  N   UNL     1      44.091   5.075   9.789  0.00  0.00    +0.000 N 
ATOM     17  H   UNL     1      44.166   5.970   9.313  0.00  0.00    +0.000 HD
BRANCH  16  21
ATOM     18  C   UNL     1      46.272   2.112   7.967  0.00  0.00    +0.000 A 
ATOM     19  C   UNL     1      46.360   3.424   7.529  0.00  0.00    +0.000 A 
ATOM     20  N   UNL     1      45.643   4.433   8.095  0.00  0.00    +0.000 NA
ATOM     21  C   UNL     1      44.826   4.095   9.116  0.00  0.00    +0.000 A 
ATOM     22  C   UNL     1      44.761   2.762   9.548  0.00  0.00    +0.000 A 
ATOM     23  N   UNL     1      45.461   1.738   8.993  0.00  0.00    +0.000 NA
BRANCH  18  25
ATOM     24  N   UNL     1      46.789  -0.230   7.659  0.00  0.00    +0.000 N 
ATOM     25  C   UNL     1      47.089   1.058   7.309  0.00  0.00    +0.000 C 
ATOM     26  O   UNL     1      47.971   1.322   6.502  0.00  0.00    +0.000 OA
ATOM     27  H   UNL     1      47.317  -0.991   7.254  0.00  0.00    +0.000 HD
ATOM     28  H   UNL     1      46.059  -0.418   8.335  0.00  0.00    +0.000 HD
ENDBRANCH  18  25
ENDBRANCH  16  21
ENDBRANCH   1  16
TORSDOF 5
ENDMDL
MODEL 8
REMARK VINA RESULT:    -7.175      5.260      8.290
REMARK INTER + INTRA:          -9.820
REMARK INTER:                  -9.112
REMARK INTRA:                  -0.709
REMARK UNBOUND:                -0.548
REMARK  Name = 
REMARK  5 active torsions:
REMARK  status: ('A' for Active; 'I' for Inactive)
REMARK    1  A    between atoms: C_2  and  C_4
REMARK    2  A    between atoms: C_7  and  N_8
REMARK    3  A    between atoms: N_8  and  C_9
REMARK    4  A    between atoms: C_9  and  C_10
REMARK    5  A    between atoms: C_14  and  C_15
REMARK                            x       y       z     vdW  Elec       q    Type
REMARK                         _______ _______ _______ _____ _____    ______ ____
ROOT
ATOM      1  C   UNL     1      48.003   7.983  13.998  0.00  0.00    +0.000 C 
ENDROOT
BRANCH   1   2
ATOM      2  C   UNL     1      46.784   7.906  13.107  0.00  0.00    +0.000 A 
ATOM      3  C   UNL     1      46.013   9.042  12.844  0.00  0.00    +0.000 A 
ATOM      4  C   UNL     1      44.926   8.960  11.977  0.00  0.00    +0.000 A 
ATOM      5  C   UNL     1      44.617   7.749  11.348  0.00  0.00    +0.000 A 
ATOM      6  C   UNL     1      45.396   6.596  11.553  0.00  0.00    +0.000 A 
ATOM      7  C   UNL     1      46.468   6.699  12.458  0.00  0.00    +0.000 A 
BRANCH   6   8
ATOM      8  C   UNL     1      45.166   5.350  10.784  0.00  0.00    +0.000 A 
ATOM      9  C   UNL     1      44.420   4.290  11.333  0.00  0.00    +0.000 A 
ATOM     10  C   UNL     1      44.113   3.158  10.579  0.00  0.00    +0.000 A 
ATOM     11  F   UNL     1      43.384   2.181  11.134  0.00  0.00    +0.000 F 
ATOM     12  C   UNL     1      44.527   3.039   9.264  0.00  0.00    +0.000 A 
ATOM     13  C   UNL     1      45.278   4.063   8.715  0.00  0.00    +0.000 A 
ATOM     14  F   UNL     1      45.682   3.972   7.441  0.00  0.00    +0.000 F 
ATOM     15  C   UNL     1      45.608   5.200   9.457  0.00  0.00    +0.000 A 
ENDBRANCH   6   8
ENDBRANCH   1   2
BRANCH   1  16
ATOM     16  N   UNL     1      48.586   6.648  14.080  0.00  0.00    +0.000 N 
ATOM     17  H   UNL     1      49.529   6.631  13.702  0.00  0.00    +0.000 HD
BRANCH  16  21
ATOM     18  C   UNL     1      48.649   4.995  17.838  0.00  0.00    +0.000 A 
ATOM     19  C   UNL     1      47.985   4.363  16.799  0.00  0.00    +0.000 A 
ATOM     20  N   UNL     1      47.926   4.884  15.544  0.00  0.00    +0.000 NA
ATOM     21  C   UNL     1      48.551   6.065  15.350  0.00  0.00    +0.000 A 
ATOM     22  C   UNL     1      49.225   6.683  16.414  0.00  0.00    +0.000 A 
ATOM     23  N   UNL     1      49.289   6.185  17.677  0.00  0.00    +0.000 NA
BRANCH  18  25
ATOM     24  N   UNL     1      48.338   3.044  19.233  0.00  0.00    +0.000 N 
ATOM     25  C   UNL     1      48.680   4.368  19.185  0.00  0.00    +0.000 C 
ATOM     26  O   UNL     1      48.994   4.992  20.191  0.00  0.00    +0.000 OA
ATOM     27  H   UNL     1      48.328   2.564  20.122  0.00  0.00    +0.000 HD
ATOM     28  H   UNL     1      48.074   2.556  18.385  0.00  0.00    +0.000 HD
ENDBRANCH  18  25
ENDBRANCH  16  21
ENDBRANCH   1  16
TORSDOF 5
ENDMDL
MODEL 9
REMARK VINA RESULT:    -7.170      5.447      8.475
REMARK INTER + INTRA:          -9.814
REMARK INTER:                  -9.137
REMARK INTRA:                  -0.677
REMARK UNBOUND:                -0.548
REMARK  Name = 
REMARK  5 active torsions:
REMARK  status: ('A' for Active; 'I' for Inactive)
REMARK    1  A    between atoms: C_2  and  C_4
REMARK    2  A    between atoms: C_7  and  N_8
REMARK    3  A    between atoms: N_8  and  C_9
REMARK    4  A    between atoms: C_9  and  C_10
REMARK    5  A    between atoms: C_14  and  C_15
REMARK                            x       y       z     vdW  Elec       q    Type
REMARK                         _______ _______ _______ _____ _____    ______ ____
ROOT
ATOM      1  C   UNL     1      48.935   7.040  13.714  0.00  0.00    +0.000 C 
ENDROOT
BRANCH   1   2
ATOM      2  C   UNL     1      47.556   7.191  13.112  0.00  0.00    +0.000 A 
ATOM      3  C   UNL     1      46.870   8.407  13.183  0.00  0.00    +0.000 A 
ATOM      4  C   UNL     1      45.625   8.540  12.574  0.00  0.00    +0.000 A 
ATOM      5  C   UNL     1      45.068   7.468  11.869  0.00  0.00    +0.000 A 
ATOM      6  C   UNL     1      45.747   6.244  11.737  0.00  0.00    +0.000 A 
ATOM      7  C   UNL     1      46.988   6.126  12.390  0.00  0.00    +0.000 A 
BRANCH   6   8
ATOM      8  C   UNL     1      45.233   5.153  10.876  0.00  0.00    +0.000 A 
ATOM      9  C   UNL     1      45.591   5.075   9.517  0.00  0.00    +0.000 A 
ATOM     10  C   UNL     1      45.195   3.996   8.727  0.00  0.00    +0.000 A 
ATOM     11  F   UNL     1      45.574   3.951   7.444  0.00  0.00    +0.000 F 
ATOM     12  C   UNL     1      44.438   2.963   9.253  0.00  0.00    +0.000 A 
ATOM     13  C   UNL     1      44.060   3.034  10.582  0.00  0.00    +0.000 A 
ATOM     14  F   UNL     1      43.336   2.040  11.114  0.00  0.00    +0.000 F 
ATOM     15  C   UNL     1      44.436   4.112  11.387  0.00  0.00    +0.000 A 
ENDBRANCH   6   8
ENDBRANCH   1   2
BRANCH   1  16
ATOM     16  N   UNL     1      48.937   7.710  15.009  0.00  0.00    +0.000 N 
ATOM     17  H   UNL     1      48.227   8.436  15.053  0.00  0.00    +0.000 HD
BRANCH  16  21
ATOM     18  C   UNL     1      48.755   5.331  18.351  0.00  0.00    +0.000 A 
ATOM     19  C   UNL     1      48.843   4.769  17.088  0.00  0.00    +0.000 A 
ATOM     20  N   UNL     1      48.890   5.520  15.954  0.00  0.00    +0.000 NA
ATOM     21  C   UNL     1      48.843   6.860  16.115  0.00  0.00    +0.000 A 
ATOM     22  C   UNL     1      48.763   7.408  17.404  0.00  0.00    +0.000 A 
ATOM     23  N   UNL     1      48.706   6.677  18.548  0.00  0.00    +0.000 NA
BRANCH  18  25
ATOM     24  N   UNL     1      48.395   3.143  19.316  0.00  0.00    +0.000 N 
ATOM     25  C   UNL     1      48.714   4.453  19.549  0.00  0.00    +0.000 C 
ATOM     26  O   UNL     1      48.953   4.870  20.675  0.00  0.00    +0.000 OA
ATOM     27  H   UNL     1      48.339   2.498  20.092  0.00  0.00    +0.000 HD
ATOM     28  H   UNL     1      48.194   2.828  18.374  0.00  0.00    +0.000 HD
ENDBRANCH  18  25
ENDBRANCH  16  21
ENDBRANCH   1  16
TORSDOF 5
ENDMDL
