MODEL 1
REMARK VINA RESULT:    -7.767      0.000      0.000
REMARK INTER + INTRA:         -10.451
REMARK INTER:                  -9.811
REMARK INTRA:                  -0.641
REMARK UNBOUND:                -0.641
REMARK  Name = 
REMARK  5 active torsions:
REMARK  status: ('A' for Active; 'I' for Inactive)
REMARK    1  A    between atoms: N_1  and  C_2
REMARK    2  A    between atoms: C_2  and  C_3
REMARK    3  A    between atoms: C_3  and  C_4
REMARK    4  A    between atoms: C_7  and  C_8
REMARK    5  A    between atoms: C_8  and  N_9
REMARK                            x       y       z     vdW  Elec       q    Type
REMARK                         _______ _______ _______ _____ _____    ______ ____
ROOT
ATOM      1  C   UNL     1      46.059   2.249   7.958  0.00  0.00    +0.000 A 
ATOM      2  C   UNL     1      45.195   1.670   8.890  0.00  0.00    +0.000 A 
ATOM      3  C   UNL     1      44.369   2.474   9.701  0.00  0.00    +0.000 A 
ATOM      4  C   UNL     1      44.409   3.874   9.615  0.00  0.00    +0.000 A 
ATOM      5  C   UNL     1      45.263   4.447   8.666  0.00  0.00    +0.000 A 
ATOM      6  C   UNL     1      46.068   3.648   7.848  0.00  0.00    +0.000 A 
ENDROOT
BRANCH   1   7
ATOM      7  C   UNL     1      47.014   1.475   7.067  0.00  0.00    +0.000 C 
BRANCH   7   8
ATOM      8  C   UNL     1      48.302   2.171   6.593  0.00  0.00    +0.000 C 
BRANCH   8   9
ATOM      9  N   UNL     1      48.343   2.228   5.128  0.00  0.00    +0.000 NA
ATOM     10  H   UNL     1      47.574   1.681   4.741  0.00  0.00    +0.000 HD
ATOM     11  H   UNL     1      49.200   1.792   4.790  0.00  0.00    +0.000 HD
ENDBRANCH   8   9
ENDBRANCH   7   8
ENDBRANCH   1   7
BRANCH   4  12
ATOM     12  C   UNL     1      43.702   4.765  10.630  0.00  0.00    +0.000 C 
BRANCH  12  13
ATOM     13  N   UNL     1      44.693   5.286  11.551  0.00  0.00    +0.000 N 
ATOM     14  C   UNL     1      45.089   4.539  12.744  0.00  0.00    +0.000 C 
ATOM     15  C   UNL     1      46.464   5.117  13.104  0.00  0.00    +0.000 C 
ATOM     16  C   UNL     1      46.136   6.541  12.800  0.00  0.00    +0.000 A 
ATOM     17  C   UNL     1      46.650   7.691  13.339  0.00  0.00    +0.000 A 
ATOM     18  N   UNL     1      46.177   8.897  12.983  0.00  0.00    +0.000 NA
ATOM     19  C   UNL     1      45.201   8.910  12.036  0.00  0.00    +0.000 A 
ATOM     20 CL   UNL     1      44.589  10.487  11.714  0.00  0.00    +0.000 Cl
ATOM     21  C   UNL     1      44.646   7.797  11.410  0.00  0.00    +0.000 A 
ATOM     22  C   UNL     1      45.104   6.577  11.844  0.00  0.00    +0.000 A 
ENDBRANCH  12  13
ENDBRANCH   4  12
TORSDOF 5
ENDMDL
MODEL 2
REMARK VINA RESULT:    -6.736      2.353      3.124
REMARK INTER + INTRA:          -9.148
REMARK INTER:                  -8.906
REMARK INTRA:                  -0.243
REMARK UNBOUND:                -0.641
REMARK  Name = 
REMARK  5 active torsions:
REMARK  status: ('A' for Active; 'I' for Inactive)
REMARK    1  A    between atoms: N_1  and  C_2
REMARK    2  A    between atoms: C_2  and  C_3
REMARK    3  A    between atoms: C_3  and  C_4
REMARK    4  A    between atoms: C_7  and  C_8
REMARK    5  A    between atoms: C_8  and  N_9
REMARK                            x       y       z     vdW  Elec       q    Type
REMARK                         _______ _______ _______ _____ _____    ______ ____
ROOT
ATOM      1  C   UNL     1      45.961   2.666   7.968  0.00  0.00    +0.000 A 
ATOM      2  C   UNL     1      46.113   4.055   7.958  0.00  0.00    +0.000 A 
ATOM      3  C   UNL     1      45.598   4.841   9.009  0.00  0.00    +0.000 A 
ATOM      4  C   UNL     1      44.900   4.258  10.077  0.00  0.00    +0.000 A 
ATOM      5  C   UNL     1      44.768   2.865  10.090  0.00  0.00    +0.000 A 
ATOM      6  C   UNL     1      45.295   2.084   9.057  0.00  0.00    +0.000 A 
ENDROOT
BRANCH   1   7
ATOM      7  C   UNL     1      46.442   1.737   6.869  0.00  0.00    +0.000 C 
BRANCH   7   8
ATOM      8  C   UNL     1      47.196   2.344   5.672  0.00  0.00    +0.000 C 
BRANCH   8   9
ATOM      9  N   UNL     1      48.584   1.868   5.646  0.00  0.00    +0.000 NA
ATOM     10  H   UNL     1      48.910   1.709   6.599  0.00  0.00    +0.000 HD
ATOM     11  H   UNL     1      49.189   2.589   5.255  0.00  0.00    +0.000 HD
ENDBRANCH   8   9
ENDBRANCH   7   8
ENDBRANCH   1   7
BRANCH   4  12
ATOM     12  C   UNL     1      44.142   5.098  11.098  0.00  0.00    +0.000 C 
BRANCH  12  13
ATOM     13  N   UNL     1      45.099   5.909  11.826  0.00  0.00    +0.000 N 
ATOM     14  C   UNL     1      45.753   7.058  11.200  0.00  0.00    +0.000 C 
ATOM     15  C   UNL     1      46.207   7.917  12.387  0.00  0.00    +0.000 C 
ATOM     16  C   UNL     1      46.646   6.788  13.258  0.00  0.00    +0.000 A 
ATOM     17  C   UNL     1      47.611   6.758  14.231  0.00  0.00    +0.000 A 
ATOM     18  N   UNL     1      47.914   5.617  14.872  0.00  0.00    +0.000 NA
ATOM     19  C   UNL     1      47.186   4.519  14.535  0.00  0.00    +0.000 A 
ATOM     20 CL   UNL     1      47.709   3.086  15.334  0.00  0.00    +0.000 Cl
ATOM     21  C   UNL     1      46.166   4.467  13.588  0.00  0.00    +0.000 A 
ATOM     22  C   UNL     1      45.926   5.633  12.904  0.00  0.00    +0.000 A 
ENDBRANCH  12  13
ENDBRANCH   4  12
TORSDOF 5
ENDMDL
MODEL 3
REMARK VINA RESULT:    -5.974      2.724      6.516
REMARK INTER + INTRA:          -8.187
REMARK INTER:                  -8.016
REMARK INTRA:                  -0.171
REMARK UNBOUND:                -0.641
REMARK  Name = 
REMARK  5 active torsions:
REMARK  status: ('A' for Active; 'I' for Inactive)
REMARK    1  A    between atoms: N_1  and  C_2
REMARK    2  A    between atoms: C_2  and  C_3
REMARK    3  A    between atoms: C_3  and  C_4
REMARK    4  A    between atoms: C_7  and  C_8
REMARK    5  A    between atoms: C_8  and  N_9
REMARK                            x       y       z     vdW  Elec       q    Type
REMARK                         _______ _______ _______ _____ _____    ______ ____
ROOT
ATOM      1  C   UNL     1      47.562   7.690  13.068  0.00  0.00    +0.000 A 
ATOM      2  C   UNL     1      47.563   6.656  12.129  0.00  0.00    +0.000 A 
ATOM      3  C   UNL     1      46.388   6.323  11.425  0.00  0.00    +0.000 A 
ATOM      4  C   UNL     1      45.183   7.000  11.663  0.00  0.00    +0.000 A 
ATOM      5  C   UNL     1      45.193   8.048  12.591  0.00  0.00    +0.000 A 
ATOM      6  C   UNL     1      46.363   8.390  13.275  0.00  0.00    +0.000 A 
ENDROOT
BRANCH   1   7
ATOM      7  C   UNL     1      48.760   8.100  13.904  0.00  0.00    +0.000 C 
BRANCH   7   8
ATOM      8  C   UNL     1      49.342   7.081  14.900  0.00  0.00    +0.000 C 
BRANCH   8   9
ATOM      9  N   UNL     1      48.279   6.525  15.743  0.00  0.00    +0.000 NA
ATOM     10  H   UNL     1      48.385   6.864  16.699  0.00  0.00    +0.000 HD
ATOM     11  H   UNL     1      48.371   5.510  15.790  0.00  0.00    +0.000 HD
ENDBRANCH   8   9
ENDBRANCH   7   8
ENDBRANCH   1   7
BRANCH   4  12
ATOM     12  C   UNL     1      43.857   6.514  11.089  0.00  0.00    +0.000 C 
BRANCH  12  13
ATOM     13  N   UNL     1      43.914   5.070  10.963  0.00  0.00    +0.000 N 
ATOM     14  C   UNL     1      43.928   4.205  12.142  0.00  0.00    +0.000 C 
ATOM     15  C   UNL     1      43.442   2.850  11.612  0.00  0.00    +0.000 C 
ATOM     16  C   UNL     1      44.183   2.896  10.317  0.00  0.00    +0.000 A 
ATOM     17  C   UNL     1      44.662   1.869   9.547  0.00  0.00    +0.000 A 
ATOM     18  N   UNL     1      45.373   2.111   8.432  0.00  0.00    +0.000 NA
ATOM     19  C   UNL     1      45.546   3.416   8.094  0.00  0.00    +0.000 A 
ATOM     20 CL   UNL     1      46.548   3.633   6.711  0.00  0.00    +0.000 Cl
ATOM     21  C   UNL     1      45.064   4.519   8.796  0.00  0.00    +0.000 A 
ATOM     22  C   UNL     1      44.400   4.241   9.965  0.00  0.00    +0.000 A 
ENDBRANCH  12  13
ENDBRANCH   4  12
TORSDOF 5
ENDMDL
MODEL 4
REMARK VINA RESULT:    -5.577      3.962      7.421
REMARK INTER + INTRA:          -7.685
REMARK INTER:                  -7.171
REMARK INTRA:                  -0.514
REMARK UNBOUND:                -0.641
REMARK  Name = 
REMARK  5 active torsions:
REMARK  status: ('A' for Active; 'I' for Inactive)
REMARK    1  A    between atoms: N_1  and  C_2
REMARK    2  A    between atoms: C_2  and  C_3
REMARK    3  A    between atoms: C_3  and  C_4
REMARK    4  A    between atoms: C_7  and  C_8
REMARK    5  A    between atoms: C_8  and  N_9
REMARK                            x       y       z     vdW  Elec       q    Type
REMARK                         _______ _______ _______ _____ _____    ______ ____
ROOT
ATOM      1  C   UNL     1      48.265   5.159  16.692  0.00  0.00    +0.000 A 
ATOM      2  C   UNL     1      48.837   6.329  16.189  0.00  0.00    +0.000 A 
ATOM      3  C   UNL     1      48.607   6.725  14.856  0.00  0.00    +0.000 A 
ATOM      4  C   UNL     1      47.823   5.946  13.992  0.00  0.00    +0.000 A 
ATOM      5  C   UNL     1      47.237   4.785  14.508  0.00  0.00    +0.000 A 
ATOM      6  C   UNL     1      47.450   4.402  15.836  0.00  0.00    +0.000 A 
ENDROOT
BRANCH   1   7
ATOM      7  C   UNL     1      48.481   4.627  18.097  0.00  0.00    +0.000 C 
BRANCH   7   8
ATOM      8  C   UNL     1      47.785   5.344  19.268  0.00  0.00    +0.000 C 
BRANCH   8   9
ATOM      9  N   UNL     1      46.368   5.567  18.962  0.00  0.00    +0.000 NA
ATOM     10  H   UNL     1      46.169   5.257  18.012  0.00  0.00    +0.000 HD
ATOM     11  H   UNL     1      46.164   6.566  18.984  0.00  0.00    +0.000 HD
ENDBRANCH   8   9
ENDBRANCH   7   8
ENDBRANCH   1   7
BRANCH   4  12
ATOM     12  C   UNL     1      47.747   6.229  12.496  0.00  0.00    +0.000 C 
BRANCH  12  13
ATOM     13  N   UNL     1      46.393   6.633  12.174  0.00  0.00    +0.000 N 
ATOM     14  C   UNL     1      45.847   7.906  12.645  0.00  0.00    +0.000 C 
ATOM     15  C   UNL     1      44.690   8.193  11.680  0.00  0.00    +0.000 C 
ATOM     16  C   UNL     1      44.190   6.789  11.589  0.00  0.00    +0.000 A 
ATOM     17  C   UNL     1      42.924   6.326  11.347  0.00  0.00    +0.000 A 
ATOM     18  N   UNL     1      42.650   5.011  11.369  0.00  0.00    +0.000 NA
ATOM     19  C   UNL     1      43.698   4.177  11.598  0.00  0.00    +0.000 A 
ATOM     20 CL   UNL     1      43.238   2.521  11.706  0.00  0.00    +0.000 Cl
ATOM     21  C   UNL     1      45.020   4.557  11.817  0.00  0.00    +0.000 A 
ATOM     22  C   UNL     1      45.255   5.909  11.854  0.00  0.00    +0.000 A 
ENDBRANCH  12  13
ENDBRANCH   4  12
TORSDOF 5
ENDMDL
MODEL 5
REMARK VINA RESULT:    -5.428      3.017      7.163
REMARK INTER + INTRA:          -7.497
REMARK INTER:                  -7.132
REMARK INTRA:                  -0.364
REMARK UNBOUND:                -0.641
REMARK  Name = 
REMARK  5 active torsions:
REMARK  status: ('A' for Active; 'I' for Inactive)
REMARK    1  A    between atoms: N_1  and  C_2
REMARK    2  A    between atoms: C_2  and  C_3
REMARK    3  A    between atoms: C_3  and  C_4
REMARK    4  A    between atoms: C_7  and  C_8
REMARK    5  A    between atoms: C_8  and  N_9
REMARK                            x       y       z     vdW  Elec       q    Type
REMARK                         _______ _______ _______ _____ _____    ______ ____
ROOT
ATOM      1  C   UNL     1      44.394  10.345  11.462  0.00  0.00    +0.000 A 
ATOM      2  C   UNL     1      45.694  10.437  11.965  0.00  0.00    +0.000 A 
ATOM      3  C   UNL     1      46.496   9.286  12.097  0.00  0.00    +0.000 A 
ATOM      4  C   UNL     1      46.008   8.017  11.754  0.00  0.00    +0.000 A 
ATOM      5  C   UNL     1      44.711   7.934  11.233  0.00  0.00    +0.000 A 
ATOM      6  C   UNL     1      43.922   9.079  11.084  0.00  0.00    +0.000 A 
ENDROOT
BRANCH   1   7
ATOM      7  C   UNL     1      43.439  11.515  11.317  0.00  0.00    +0.000 C 
BRANCH   7   8
ATOM      8  C   UNL     1      41.926  11.240  11.384  0.00  0.00    +0.000 C 
BRANCH   8   9
ATOM      9  N   UNL     1      41.415  11.515  12.731  0.00  0.00    +0.000 NA
ATOM     10  H   UNL     1      41.834  10.867  13.397  0.00  0.00    +0.000 HD
ATOM     11  H   UNL     1      40.410  11.343  12.761  0.00  0.00    +0.000 HD
ENDBRANCH   8   9
ENDBRANCH   7   8
ENDBRANCH   1   7
BRANCH   4  12
ATOM     12  C   UNL     1      46.765   6.740  12.100  0.00  0.00    +0.000 C 
BRANCH  12  13
ATOM     13  N   UNL     1      45.818   5.644  12.147  0.00  0.00    +0.000 N 
ATOM     14  C   UNL     1      45.637   4.848  13.361  0.00  0.00    +0.000 C 
ATOM     15  C   UNL     1      44.247   4.222  13.189  0.00  0.00    +0.000 C 
ATOM     16  C   UNL     1      44.371   3.926  11.731  0.00  0.00    +0.000 A 
ATOM     17  C   UNL     1      43.780   2.940  10.986  0.00  0.00    +0.000 A 
ATOM     18  N   UNL     1      44.068   2.788   9.683  0.00  0.00    +0.000 NA
ATOM     19  C   UNL     1      44.934   3.687   9.144  0.00  0.00    +0.000 A 
ATOM     20 CL   UNL     1      45.319   3.357   7.499  0.00  0.00    +0.000 Cl
ATOM     21  C   UNL     1      45.551   4.739   9.816  0.00  0.00    +0.000 A 
ATOM     22  C   UNL     1      45.288   4.827  11.160  0.00  0.00    +0.000 A 
ENDBRANCH  12  13
ENDBRANCH   4  12
TORSDOF 5
ENDMDL
MODEL 6
REMARK VINA RESULT:    -5.236      5.441      7.969
REMARK INTER + INTRA:          -7.255
REMARK INTER:                  -6.999
REMARK INTRA:                  -0.255
REMARK UNBOUND:                -0.641
REMARK  Name = 
REMARK  5 active torsions:
REMARK  status: ('A' for Active; 'I' for Inactive)
REMARK    1  A    between atoms: N_1  and  C_2
REMARK    2  A    between atoms: C_2  and  C_3
REMARK    3  A    between atoms: C_3  and  C_4
REMARK    4  A    between atoms: C_7  and  C_8
REMARK    5  A    between atoms: C_8  and  N_9
REMARK                            x       y       z     vdW  Elec       q    Type
REMARK                         _______ _______ _______ _____ _____    ______ ____
ROOT
ATOM      1  C   UNL     1      51.163   2.726  17.604  0.00  0.00    +0.000 A 
ATOM      2  C   UNL     1      50.714   3.983  18.016  0.00  0.00    +0.000 A 
ATOM      3  C   UNL     1      49.405   4.412  17.717  0.00  0.00    +0.000 A 
ATOM      4  C   UNL     1      48.527   3.604  16.980  0.00  0.00    +0.000 A 
ATOM      5  C   UNL     1      48.976   2.338  16.586  0.00  0.00    +0.000 A 
ATOM      6  C   UNL     1      50.269   1.906  16.899  0.00  0.00    +0.000 A 
ENDROOT
BRANCH   1   7
ATOM      7  C   UNL     1      52.562   2.188  17.840  0.00  0.00    +0.000 C 
BRANCH   7   8
ATOM      8  C   UNL     1      52.897   0.771  17.340  0.00  0.00    +0.000 C 
BRANCH   8   9
ATOM      9  N   UNL     1      52.674  -0.214  18.404  0.00  0.00    +0.000 NA
ATOM     10  H   UNL     1      52.101   0.199  19.139  0.00  0.00    +0.000 HD
ATOM     11  H   UNL     1      53.563  -0.457  18.840  0.00  0.00    +0.000 HD
ENDBRANCH   8   9
ENDBRANCH   7   8
ENDBRANCH   1   7
BRANCH   4  12
ATOM     12  C   UNL     1      47.198   4.131  16.451  0.00  0.00    +0.000 C 
BRANCH  12  13
ATOM     13  N   UNL     1      47.463   4.964  15.295  0.00  0.00    +0.000 N 
ATOM     14  C   UNL     1      48.111   6.269  15.430  0.00  0.00    +0.000 C 
ATOM     15  C   UNL     1      48.686   6.543  14.034  0.00  0.00    +0.000 C 
ATOM     16  C   UNL     1      47.526   6.006  13.263  0.00  0.00    +0.000 A 
ATOM     17  C   UNL     1      47.066   6.354  12.020  0.00  0.00    +0.000 A 
ATOM     18  N   UNL     1      45.953   5.800  11.511  0.00  0.00    +0.000 NA
ATOM     19  C   UNL     1      45.344   4.853  12.274  0.00  0.00    +0.000 A 
ATOM     20 CL   UNL     1      43.876   4.271  11.588  0.00  0.00    +0.000 Cl
ATOM     21  C   UNL     1      45.760   4.413  13.528  0.00  0.00    +0.000 A 
ATOM     22  C   UNL     1      46.862   5.046  14.048  0.00  0.00    +0.000 A 
ENDBRANCH  12  13
ENDBRANCH   4  12
TORSDOF 5
ENDMDL
MODEL 7
REMARK VINA RESULT:    -5.184      1.769      2.221
REMARK INTER + INTRA:          -7.189
REMARK INTER:                  -7.644
REMARK INTRA:                   0.455
REMARK UNBOUND:                -0.641
REMARK  Name = 
REMARK  5 active torsions:
REMARK  status: ('A' for Active; 'I' for Inactive)
REMARK    1  A    between atoms: N_1  and  C_2
REMARK    2  A    between atoms: C_2  and  C_3
REMARK    3  A    between atoms: C_3  and  C_4
REMARK    4  A    between atoms: C_7  and  C_8
REMARK    5  A    between atoms: C_8  and  N_9
REMARK                            x       y       z     vdW  Elec       q    Type
REMARK                         _______ _______ _______ _____ _____    ______ ____
ROOT
ATOM      1  C   UNL     1      46.829   2.501   7.449  0.00  0.00    +0.000 A 
ATOM      2  C   UNL     1      46.774   3.897   7.440  0.00  0.00    +0.000 A 
ATOM      3  C   UNL     1      45.864   4.585   8.269  0.00  0.00    +0.000 A 
ATOM      4  C   UNL     1      44.975   3.893   9.103  0.00  0.00    +0.000 A 
ATOM      5  C   UNL     1      45.048   2.495   9.121  0.00  0.00    +0.000 A 
ATOM      6  C   UNL     1      45.964   1.813   8.313  0.00  0.00    +0.000 A 
ENDROOT
BRANCH   1   7
ATOM      7  C   UNL     1      47.743   1.667   6.570  0.00  0.00    +0.000 C 
BRANCH   7   8
ATOM      8  C   UNL     1      47.937   2.091   5.104  0.00  0.00    +0.000 C 
BRANCH   8   9
ATOM      9  N   UNL     1      47.238   3.353   4.839  0.00  0.00    +0.000 NA
ATOM     10  H   UNL     1      47.719   3.863   4.098  0.00  0.00    +0.000 HD
ATOM     11  H   UNL     1      47.277   3.949   5.665  0.00  0.00    +0.000 HD
ENDBRANCH   8   9
ENDBRANCH   7   8
ENDBRANCH   1   7
BRANCH   4  12
ATOM     12  C   UNL     1      43.836   4.598   9.830  0.00  0.00    +0.000 C 
BRANCH  12  13
ATOM     13  N   UNL     1      44.220   4.779  11.216  0.00  0.00    +0.000 N 
ATOM     14  C   UNL     1      43.219   4.820  12.283  0.00  0.00    +0.000 C 
ATOM     15  C   UNL     1      44.012   4.468  13.548  0.00  0.00    +0.000 C 
ATOM     16  C   UNL     1      45.236   5.251  13.207  0.00  0.00    +0.000 A 
ATOM     17  C   UNL     1      46.155   5.842  14.034  0.00  0.00    +0.000 A 
ATOM     18  N   UNL     1      47.168   6.571  13.537  0.00  0.00    +0.000 NA
ATOM     19  C   UNL     1      47.253   6.648  12.182  0.00  0.00    +0.000 A 
ATOM     20 CL   UNL     1      48.520   7.679  11.639  0.00  0.00    +0.000 Cl
ATOM     21  C   UNL     1      46.388   6.051  11.268  0.00  0.00    +0.000 A 
ATOM     22  C   UNL     1      45.326   5.369  11.808  0.00  0.00    +0.000 A 
ENDBRANCH  12  13
ENDBRANCH   4  12
TORSDOF 5
ENDMDL
MODEL 8
REMARK VINA RESULT:    -5.156      4.509      6.764
REMARK INTER + INTRA:          -7.153
REMARK INTER:                  -6.442
REMARK INTRA:                  -0.711
REMARK UNBOUND:                -0.641
REMARK  Name = 
REMARK  5 active torsions:
REMARK  status: ('A' for Active; 'I' for Inactive)
REMARK    1  A    between atoms: N_1  and  C_2
REMARK    2  A    between atoms: C_2  and  C_3
REMARK    3  A    between atoms: C_3  and  C_4
REMARK    4  A    between atoms: C_7  and  C_8
REMARK    5  A    between atoms: C_8  and  N_9
REMARK                            x       y       z     vdW  Elec       q    Type
REMARK                         _______ _______ _______ _____ _____    ______ ____
ROOT
ATOM      1  C   UNL     1      44.771   5.745  12.915  0.00  0.00    +0.000 A 
ATOM      2  C   UNL     1      45.174   7.072  12.748  0.00  0.00    +0.000 A 
ATOM      3  C   UNL     1      46.521   7.443  12.936  0.00  0.00    +0.000 A 
ATOM      4  C   UNL     1      47.487   6.501  13.319  0.00  0.00    +0.000 A 
ATOM      5  C   UNL     1      47.081   5.170  13.467  0.00  0.00    +0.000 A 
ATOM      6  C   UNL     1      45.748   4.799  13.262  0.00  0.00    +0.000 A 
ENDROOT
BRANCH   1   7
ATOM      7  C   UNL     1      43.343   5.251  12.775  0.00  0.00    +0.000 C 
BRANCH   7   8
ATOM      8  C   UNL     1      42.949   4.503  11.489  0.00  0.00    +0.000 C 
BRANCH   8   9
ATOM      9  N   UNL     1      43.304   5.296  10.307  0.00  0.00    +0.000 NA
ATOM     10  H   UNL     1      43.454   6.267  10.577  0.00  0.00    +0.000 HD
ATOM     11  H   UNL     1      42.524   5.301   9.649  0.00  0.00    +0.000 HD
ENDBRANCH   8   9
ENDBRANCH   7   8
ENDBRANCH   1   7
BRANCH   4  12
ATOM     12  C   UNL     1      48.890   6.914  13.748  0.00  0.00    +0.000 C 
BRANCH  12  13
ATOM     13  N   UNL     1      48.814   7.479  15.082  0.00  0.00    +0.000 N 
ATOM     14  C   UNL     1      49.341   8.812  15.373  0.00  0.00    +0.000 C 
ATOM     15  C   UNL     1      48.601   9.231  16.650  0.00  0.00    +0.000 C 
ATOM     16  C   UNL     1      48.647   7.898  17.321  0.00  0.00    +0.000 A 
ATOM     17  C   UNL     1      48.660   7.591  18.656  0.00  0.00    +0.000 A 
ATOM     18  N   UNL     1      48.772   6.320  19.075  0.00  0.00    +0.000 NA
ATOM     19  C   UNL     1      48.826   5.365  18.108  0.00  0.00    +0.000 A 
ATOM     20 CL   UNL     1      49.067   3.779  18.733  0.00  0.00    +0.000 Cl
ATOM     21  C   UNL     1      48.782   5.583  16.733  0.00  0.00    +0.000 A 
ATOM     22  C   UNL     1      48.735   6.897  16.337  0.00  0.00    +0.000 A 
ENDBRANCH  12  13
ENDBRANCH   4  12
TORSDOF 5
ENDMDL
MODEL 9
REMARK VINA RESULT:    -4.873      3.963      6.708
REMARK INTER + INTRA:          -6.795
REMARK INTER:                  -6.104
REMARK INTRA:                  -0.691
REMARK UNBOUND:                -0.641
REMARK  Name = 
REMARK  5 active torsions:
REMARK  status: ('A' for Active; 'I' for Inactive)
REMARK    1  A    between atoms: N_1  and  C_2
REMARK    2  A    between atoms: C_2  and  C_3
REMARK    3  A    between atoms: C_3  and  C_4
REMARK    4  A    between atoms: C_7  and  C_8
REMARK    5  A    between atoms: C_8  and  N_9
REMARK                            x       y       z     vdW  Elec       q    Type
REMARK                         _______ _______ _______ _____ _____    ______ ____
ROOT
ATOM      1  C   UNL     1      50.524   8.638  12.812  0.00  0.00    +0.000 A 
ATOM      2  C   UNL     1      49.748   8.530  11.656  0.00  0.00    +0.000 A 
ATOM      3  C   UNL     1      48.341   8.575  11.729  0.00  0.00    +0.000 A 
ATOM      4  C   UNL     1      47.681   8.703  12.961  0.00  0.00    +0.000 A 
ATOM      5  C   UNL     1      48.466   8.830  14.113  0.00  0.00    +0.000 A 
ATOM      6  C   UNL     1      49.862   8.804  14.037  0.00  0.00    +0.000 A 
ENDROOT
BRANCH   1   7
ATOM      7  C   UNL     1      52.040   8.564  12.844  0.00  0.00    +0.000 C 
BRANCH   7   8
ATOM      8  C   UNL     1      52.800   8.505  11.507  0.00  0.00    +0.000 C 
BRANCH   8   9
ATOM      9  N   UNL     1      52.881   7.121  11.025  0.00  0.00    +0.000 NA
ATOM     10  H   UNL     1      53.779   6.717  11.290  0.00  0.00    +0.000 HD
ATOM     11  H   UNL     1      52.854   7.109  10.006  0.00  0.00    +0.000 HD
ENDBRANCH   8   9
ENDBRANCH   7   8
ENDBRANCH   1   7
BRANCH   4  12
ATOM     12  C   UNL     1      46.173   8.525  13.091  0.00  0.00    +0.000 C 
BRANCH  12  13
ATOM     13  N   UNL     1      45.816   7.227  12.551  0.00  0.00    +0.000 N 
ATOM     14  C   UNL     1      44.585   7.036  11.785  0.00  0.00    +0.000 C 
ATOM     15  C   UNL     1      44.851   5.765  10.968  0.00  0.00    +0.000 C 
ATOM     16  C   UNL     1      45.563   5.015  12.044  0.00  0.00    +0.000 A 
ATOM     17  C   UNL     1      45.652   3.664  12.256  0.00  0.00    +0.000 A 
ATOM     18  N   UNL     1      46.290   3.171  13.331  0.00  0.00    +0.000 NA
ATOM     19  C   UNL     1      46.873   4.077  14.159  0.00  0.00    +0.000 A 
ATOM     20 CL   UNL     1      47.581   3.363  15.557  0.00  0.00    +0.000 Cl
ATOM     21  C   UNL     1      46.864   5.461  14.002  0.00  0.00    +0.000 A 
ATOM     22  C   UNL     1      46.148   5.936  12.931  0.00  0.00    +0.000 A 
ENDBRANCH  12  13
ENDBRANCH   4  12
TORSDOF 5
ENDMDL
