MODEL 1
REMARK VINA RESULT:    -8.483      0.000      0.000
REMARK INTER + INTRA:         -13.101
REMARK INTER:                 -11.955
REMARK INTRA:                  -1.147
REMARK UNBOUND:                -1.147
REMARK  Name = 
REMARK  8 active torsions:
REMARK  status: ('A' for Active; 'I' for Inactive)
REMARK    1  A    between atoms: C_1  and  C_2
REMARK    2  A    between atoms: C_5  and  C_6
REMARK    3  A    between atoms: C_6  and  N_7
REMARK    4  A    between atoms: N_7  and  C_8
REMARK    5  A    between atoms: C_8  and  C_9
REMARK    6  A    between atoms: C_12  and  C_13
REMARK    7  A    between atoms: C_13  and  N_14
REMARK    8  A    between atoms: C_15  and  C_17
REMARK                            x       y       z     vdW  Elec       q    Type
REMARK                         _______ _______ _______ _____ _____    ______ ____
ROOT
ATOM      1  C   UNL     1      44.583   5.501  11.673  0.00  0.00    +0.000 A 
ATOM      2  C   UNL     1      44.884   5.082  12.978  0.00  0.00    +0.000 A 
ATOM      3  C   UNL     1      46.088   5.453  13.584  0.00  0.00    +0.000 A 
ATOM      4  C   UNL     1      47.010   6.254  12.900  0.00  0.00    +0.000 A 
ATOM      5  C   UNL     1      46.724   6.645  11.587  0.00  0.00    +0.000 A 
ATOM      6  C   UNL     1      45.520   6.276  10.979  0.00  0.00    +0.000 A 
ENDROOT
BRANCH   1   7
ATOM      7  C   UNL     1      43.259   5.146  11.039  0.00  0.00    +0.000 C 
BRANCH   7   8
ATOM      8  N   UNL     1      43.394   4.415   9.776  0.00  0.00    +0.000 NA
ATOM      9  H   UNL     1      42.464   4.230   9.405  0.00  0.00    +0.000 HD
BRANCH   8  10
ATOM     10  C   UNL     1      44.087   3.136   9.948  0.00  0.00    +0.000 C 
BRANCH  10  15
ATOM     11  C   UNL     1      48.072   2.149   5.910  0.00  0.00    +0.000 C 
ATOM     12  C   UNL     1      47.030   2.456   6.942  0.00  0.00    +0.000 A 
ATOM     13  C   UNL     1      46.538   3.747   7.100  0.00  0.00    +0.000 A 
ATOM     14  C   UNL     1      45.570   3.980   8.075  0.00  0.00    +0.000 A 
ATOM     15  C   UNL     1      45.112   2.925   8.868  0.00  0.00    +0.000 A 
ATOM     16  C   UNL     1      45.672   1.675   8.642  0.00  0.00    +0.000 A 
ATOM     17  N   UNL     1      46.611   1.418   7.702  0.00  0.00    +0.000 NA
ENDBRANCH  10  15
ENDBRANCH   8  10
ENDBRANCH   7   8
ENDBRANCH   1   7
BRANCH   4  18
ATOM     18  C   UNL     1      48.308   6.663  13.545  0.00  0.00    +0.000 C 
BRANCH  18  19
ATOM     19  N   UNL     1      48.179   6.729  14.978  0.00  0.00    +0.000 N 
ATOM     20  C   UNL     1      49.284   6.768  15.788  0.00  0.00    +0.000 C 
ATOM     21  O   UNL     1      50.424   6.780  15.331  0.00  0.00    +0.000 OA
ATOM     22  H   UNL     1      47.273   6.492  15.373  0.00  0.00    +0.000 HD
BRANCH  20  23
ATOM     23  C   UNL     1      49.036   6.858  17.231  0.00  0.00    +0.000 A 
ATOM     24  C   UNL     1      48.834   8.102  17.816  0.00  0.00    +0.000 A 
ATOM     25  S   UNL     1      48.513   8.028  19.489  0.00  0.00    +0.000 S 
ATOM     26  C   UNL     1      48.683   6.335  19.502  0.00  0.00    +0.000 A 
ATOM     27  N   UNL     1      48.555   5.628  20.657  0.00  0.00    +0.000 NA
ATOM     28  C   UNL     1      48.741   4.357  20.527  0.00  0.00    +0.000 A 
ATOM     29  N   UNL     1      49.034   3.727  19.346  0.00  0.00    +0.000 N 
ATOM     30  C   UNL     1      49.142   4.395  18.149  0.00  0.00    +0.000 A 
ATOM     31  O   UNL     1      49.363   3.795  17.102  0.00  0.00    +0.000 OA
ATOM     32  C   UNL     1      48.959   5.831  18.243  0.00  0.00    +0.000 A 
ATOM     33  H   UNL     1      49.157   2.726  19.310  0.00  0.00    +0.000 HD
ENDBRANCH  20  23
ENDBRANCH  18  19
ENDBRANCH   4  18
TORSDOF 7
ENDMDL
MODEL 2
REMARK VINA RESULT:    -8.228      1.482      2.351
REMARK INTER + INTRA:         -12.741
REMARK INTER:                 -11.579
REMARK INTRA:                  -1.162
REMARK UNBOUND:                -1.147
REMARK  Name = 
REMARK  8 active torsions:
REMARK  status: ('A' for Active; 'I' for Inactive)
REMARK    1  A    between atoms: C_1  and  C_2
REMARK    2  A    between atoms: C_5  and  C_6
REMARK    3  A    between atoms: C_6  and  N_7
REMARK    4  A    between atoms: N_7  and  C_8
REMARK    5  A    between atoms: C_8  and  C_9
REMARK    6  A    between atoms: C_12  and  C_13
REMARK    7  A    between atoms: C_13  and  N_14
REMARK    8  A    between atoms: C_15  and  C_17
REMARK                            x       y       z     vdW  Elec       q    Type
REMARK                         _______ _______ _______ _____ _____    ______ ____
ROOT
ATOM      1  C   UNL     1      44.461   5.550  11.847  0.00  0.00    +0.000 A 
ATOM      2  C   UNL     1      45.386   6.489  11.367  0.00  0.00    +0.000 A 
ATOM      3  C   UNL     1      46.578   6.729  12.057  0.00  0.00    +0.000 A 
ATOM      4  C   UNL     1      46.871   6.031  13.234  0.00  0.00    +0.000 A 
ATOM      5  C   UNL     1      45.933   5.116  13.729  0.00  0.00    +0.000 A 
ATOM      6  C   UNL     1      44.741   4.874  13.041  0.00  0.00    +0.000 A 
ENDROOT
BRANCH   1   7
ATOM      7  C   UNL     1      43.199   5.251  11.073  0.00  0.00    +0.000 C 
BRANCH   7   8
ATOM      8  N   UNL     1      43.444   4.570   9.798  0.00  0.00    +0.000 NA
ATOM      9  H   UNL     1      42.551   4.428   9.327  0.00  0.00    +0.000 HD
BRANCH   8  10
ATOM     10  C   UNL     1      44.083   3.265   9.981  0.00  0.00    +0.000 C 
BRANCH  10  15
ATOM     11  C   UNL     1      48.074   2.111   5.994  0.00  0.00    +0.000 C 
ATOM     12  C   UNL     1      47.033   2.461   7.013  0.00  0.00    +0.000 A 
ATOM     13  C   UNL     1      46.587   3.770   7.159  0.00  0.00    +0.000 A 
ATOM     14  C   UNL     1      45.617   4.044   8.122  0.00  0.00    +0.000 A 
ATOM     15  C   UNL     1      45.112   3.011   8.914  0.00  0.00    +0.000 A 
ATOM     16  C   UNL     1      45.628   1.740   8.701  0.00  0.00    +0.000 A 
ATOM     17  N   UNL     1      46.568   1.443   7.773  0.00  0.00    +0.000 NA
ENDBRANCH  10  15
ENDBRANCH   8  10
ENDBRANCH   7   8
ENDBRANCH   1   7
BRANCH   4  18
ATOM     18  C   UNL     1      48.154   6.278  13.983  0.00  0.00    +0.000 C 
BRANCH  18  19
ATOM     19  N   UNL     1      47.930   6.297  15.406  0.00  0.00    +0.000 N 
ATOM     20  C   UNL     1      48.978   6.252  16.288  0.00  0.00    +0.000 C 
ATOM     21  O   UNL     1      50.146   6.226  15.909  0.00  0.00    +0.000 OA
ATOM     22  H   UNL     1      46.990   6.089  15.729  0.00  0.00    +0.000 HD
BRANCH  20  23
ATOM     23  C   UNL     1      48.636   6.300  17.714  0.00  0.00    +0.000 A 
ATOM     24  C   UNL     1      48.765   5.154  18.489  0.00  0.00    +0.000 A 
ATOM     25  S   UNL     1      48.372   5.391  20.132  0.00  0.00    +0.000 S 
ATOM     26  C   UNL     1      47.967   7.021  19.856  0.00  0.00    +0.000 A 
ATOM     27  N   UNL     1      47.517   7.810  20.868  0.00  0.00    +0.000 NA
ATOM     28  C   UNL     1      47.216   9.014  20.511  0.00  0.00    +0.000 A 
ATOM     29  N   UNL     1      47.333   9.503  19.236  0.00  0.00    +0.000 N 
ATOM     30  C   UNL     1      47.813   8.753  18.189  0.00  0.00    +0.000 A 
ATOM     31  O   UNL     1      47.946   9.234  17.069  0.00  0.00    +0.000 OA
ATOM     32  C   UNL     1      48.149   7.384  18.533  0.00  0.00    +0.000 A 
ATOM     33  H   UNL     1      47.091  10.460  19.025  0.00  0.00    +0.000 HD
ENDBRANCH  20  23
ENDBRANCH  18  19
ENDBRANCH   4  18
TORSDOF 7
ENDMDL
MODEL 3
REMARK VINA RESULT:    -7.237      2.354      3.031
REMARK INTER + INTRA:         -11.345
REMARK INTER:                 -11.229
REMARK INTRA:                  -0.116
REMARK UNBOUND:                -1.147
REMARK  Name = 
REMARK  8 active torsions:
REMARK  status: ('A' for Active; 'I' for Inactive)
REMARK    1  A    between atoms: C_1  and  C_2
REMARK    2  A    between atoms: C_5  and  C_6
REMARK    3  A    between atoms: C_6  and  N_7
REMARK    4  A    between atoms: N_7  and  C_8
REMARK    5  A    between atoms: C_8  and  C_9
REMARK    6  A    between atoms: C_12  and  C_13
REMARK    7  A    between atoms: C_13  and  N_14
REMARK    8  A    between atoms: C_15  and  C_17
REMARK                            x       y       z     vdW  Elec       q    Type
REMARK                         _______ _______ _______ _____ _____    ______ ____
ROOT
ATOM      1  C   UNL     1      46.078   4.457  12.893  0.00  0.00    +0.000 A 
ATOM      2  C   UNL     1      46.408   5.758  12.486  0.00  0.00    +0.000 A 
ATOM      3  C   UNL     1      47.222   6.568  13.283  0.00  0.00    +0.000 A 
ATOM      4  C   UNL     1      47.728   6.090  14.497  0.00  0.00    +0.000 A 
ATOM      5  C   UNL     1      47.373   4.802  14.919  0.00  0.00    +0.000 A 
ATOM      6  C   UNL     1      46.559   3.991  14.123  0.00  0.00    +0.000 A 
ENDROOT
BRANCH   1   7
ATOM      7  C   UNL     1      45.243   3.563  12.007  0.00  0.00    +0.000 C 
BRANCH   7   8
ATOM      8  N   UNL     1      43.947   4.145  11.646  0.00  0.00    +0.000 NA
ATOM      9  H   UNL     1      43.229   3.430  11.746  0.00  0.00    +0.000 HD
BRANCH   8  10
ATOM     10  C   UNL     1      43.925   4.635  10.266  0.00  0.00    +0.000 C 
BRANCH  10  15
ATOM     11  C   UNL     1      47.104   1.142   6.972  0.00  0.00    +0.000 C 
ATOM     12  C   UNL     1      46.292   2.092   7.798  0.00  0.00    +0.000 A 
ATOM     13  C   UNL     1      46.360   3.465   7.584  0.00  0.00    +0.000 A 
ATOM     14  C   UNL     1      45.584   4.306   8.380  0.00  0.00    +0.000 A 
ATOM     15  C   UNL     1      44.759   3.764   9.368  0.00  0.00    +0.000 A 
ATOM     16  C   UNL     1      44.768   2.383   9.512  0.00  0.00    +0.000 A 
ATOM     17  N   UNL     1      45.508   1.541   8.754  0.00  0.00    +0.000 NA
ENDBRANCH  10  15
ENDBRANCH   8  10
ENDBRANCH   7   8
ENDBRANCH   1   7
BRANCH   4  18
ATOM     18  C   UNL     1      48.611   6.952  15.362  0.00  0.00    +0.000 C 
BRANCH  18  19
ATOM     19  N   UNL     1      49.720   6.198  15.887  0.00  0.00    +0.000 N 
ATOM     20  C   UNL     1      49.716   5.738  17.178  0.00  0.00    +0.000 C 
ATOM     21  O   UNL     1      48.760   5.918  17.929  0.00  0.00    +0.000 OA
ATOM     22  H   UNL     1      50.593   6.238  15.370  0.00  0.00    +0.000 HD
BRANCH  20  23
ATOM     23  C   UNL     1      50.887   4.962  17.601  0.00  0.00    +0.000 A 
ATOM     24  C   UNL     1      51.991   5.619  18.130  0.00  0.00    +0.000 A 
ATOM     25  S   UNL     1      53.244   4.569  18.614  0.00  0.00    +0.000 S 
ATOM     26  C   UNL     1      52.378   3.203  18.087  0.00  0.00    +0.000 A 
ATOM     27  N   UNL     1      52.909   1.955  18.191  0.00  0.00    +0.000 NA
ATOM     28  C   UNL     1      52.157   1.015  17.723  0.00  0.00    +0.000 A 
ATOM     29  N   UNL     1      50.918   1.208  17.170  0.00  0.00    +0.000 N 
ATOM     30  C   UNL     1      50.328   2.446  17.073  0.00  0.00    +0.000 A 
ATOM     31  O   UNL     1      49.199   2.578  16.613  0.00  0.00    +0.000 OA
ATOM     32  C   UNL     1      51.140   3.541  17.569  0.00  0.00    +0.000 A 
ATOM     33  H   UNL     1      50.375   0.428  16.832  0.00  0.00    +0.000 HD
ENDBRANCH  20  23
ENDBRANCH  18  19
ENDBRANCH   4  18
TORSDOF 7
ENDMDL
MODEL 4
REMARK VINA RESULT:    -7.140      4.708      9.608
REMARK INTER + INTRA:         -11.208
REMARK INTER:                 -10.246
REMARK INTRA:                  -0.963
REMARK UNBOUND:                -1.147
REMARK  Name = 
REMARK  8 active torsions:
REMARK  status: ('A' for Active; 'I' for Inactive)
REMARK    1  A    between atoms: C_1  and  C_2
REMARK    2  A    between atoms: C_5  and  C_6
REMARK    3  A    between atoms: C_6  and  N_7
REMARK    4  A    between atoms: N_7  and  C_8
REMARK    5  A    between atoms: C_8  and  C_9
REMARK    6  A    between atoms: C_12  and  C_13
REMARK    7  A    between atoms: C_13  and  N_14
REMARK    8  A    between atoms: C_15  and  C_17
REMARK                            x       y       z     vdW  Elec       q    Type
REMARK                         _______ _______ _______ _____ _____    ______ ____
ROOT
ATOM      1  C   UNL     1      51.396   3.519  17.737  0.00  0.00    +0.000 A 
ATOM      2  C   UNL     1      50.597   4.671  17.790  0.00  0.00    +0.000 A 
ATOM      3  C   UNL     1      49.233   4.604  17.490  0.00  0.00    +0.000 A 
ATOM      4  C   UNL     1      48.642   3.386  17.137  0.00  0.00    +0.000 A 
ATOM      5  C   UNL     1      49.446   2.243  17.053  0.00  0.00    +0.000 A 
ATOM      6  C   UNL     1      50.810   2.307  17.353  0.00  0.00    +0.000 A 
ENDROOT
BRANCH   1   7
ATOM      7  C   UNL     1      52.857   3.580  18.114  0.00  0.00    +0.000 C 
BRANCH   7   8
ATOM      8  N   UNL     1      53.237   2.600  19.136  0.00  0.00    +0.000 NA
ATOM      9  H   UNL     1      53.129   3.028  20.054  0.00  0.00    +0.000 HD
BRANCH   8  10
ATOM     10  C   UNL     1      54.627   2.160  18.991  0.00  0.00    +0.000 C 
BRANCH  10  15
ATOM     11  C   UNL     1      55.015  -2.528  15.669  0.00  0.00    +0.000 C 
ATOM     12  C   UNL     1      54.924  -1.278  16.491  0.00  0.00    +0.000 A 
ATOM     13  C   UNL     1      55.237  -0.038  15.944  0.00  0.00    +0.000 A 
ATOM     14  C   UNL     1      55.136   1.094  16.750  0.00  0.00    +0.000 A 
ATOM     15  C   UNL     1      54.725   0.968  18.079  0.00  0.00    +0.000 A 
ATOM     16  C   UNL     1      54.445  -0.313  18.536  0.00  0.00    +0.000 A 
ATOM     17  N   UNL     1      54.532  -1.430  17.777  0.00  0.00    +0.000 NA
ENDBRANCH  10  15
ENDBRANCH   8  10
ENDBRANCH   7   8
ENDBRANCH   1   7
BRANCH   4  18
ATOM     18  C   UNL     1      47.172   3.303  16.816  0.00  0.00    +0.000 C 
BRANCH  18  19
ATOM     19  N   UNL     1      46.790   4.316  15.866  0.00  0.00    +0.000 N 
ATOM     20  C   UNL     1      46.914   4.105  14.517  0.00  0.00    +0.000 C 
ATOM     21  O   UNL     1      47.323   3.040  14.061  0.00  0.00    +0.000 OA
ATOM     22  H   UNL     1      46.673   5.261  16.218  0.00  0.00    +0.000 HD
BRANCH  20  23
ATOM     23  C   UNL     1      46.474   5.195  13.640  0.00  0.00    +0.000 A 
ATOM     24  C   UNL     1      47.306   6.288  13.434  0.00  0.00    +0.000 A 
ATOM     25  S   UNL     1      46.665   7.441  12.353  0.00  0.00    +0.000 S 
ATOM     26  C   UNL     1      45.231   6.545  12.162  0.00  0.00    +0.000 A 
ATOM     27  N   UNL     1      44.224   6.999  11.368  0.00  0.00    +0.000 NA
ATOM     28  C   UNL     1      43.182   6.236  11.340  0.00  0.00    +0.000 A 
ATOM     29  N   UNL     1      43.060   5.057  12.027  0.00  0.00    +0.000 N 
ATOM     30  C   UNL     1      44.062   4.543  12.816  0.00  0.00    +0.000 A 
ATOM     31  O   UNL     1      43.936   3.463  13.382  0.00  0.00    +0.000 OA
ATOM     32  C   UNL     1      45.250   5.372  12.895  0.00  0.00    +0.000 A 
ATOM     33  H   UNL     1      42.221   4.500  11.954  0.00  0.00    +0.000 HD
ENDBRANCH  20  23
ENDBRANCH  18  19
ENDBRANCH   4  18
TORSDOF 7
ENDMDL
MODEL 5
REMARK VINA RESULT:    -7.126      1.958      2.204
REMARK INTER + INTRA:         -11.188
REMARK INTER:                 -10.028
REMARK INTRA:                  -1.161
REMARK UNBOUND:                -1.147
REMARK  Name = 
REMARK  8 active torsions:
REMARK  status: ('A' for Active; 'I' for Inactive)
REMARK    1  A    between atoms: C_1  and  C_2
REMARK    2  A    between atoms: C_5  and  C_6
REMARK    3  A    between atoms: C_6  and  N_7
REMARK    4  A    between atoms: N_7  and  C_8
REMARK    5  A    between atoms: C_8  and  C_9
REMARK    6  A    between atoms: C_12  and  C_13
REMARK    7  A    between atoms: C_13  and  N_14
REMARK    8  A    between atoms: C_15  and  C_17
REMARK                            x       y       z     vdW  Elec       q    Type
REMARK                         _______ _______ _______ _____ _____    ______ ____
ROOT
ATOM      1  C   UNL     1      45.412   4.734  12.613  0.00  0.00    +0.000 A 
ATOM      2  C   UNL     1      46.271   4.363  13.657  0.00  0.00    +0.000 A 
ATOM      3  C   UNL     1      47.389   5.143  13.970  0.00  0.00    +0.000 A 
ATOM      4  C   UNL     1      47.664   6.311  13.249  0.00  0.00    +0.000 A 
ATOM      5  C   UNL     1      46.823   6.664  12.186  0.00  0.00    +0.000 A 
ATOM      6  C   UNL     1      45.705   5.886  11.872  0.00  0.00    +0.000 A 
ENDROOT
BRANCH   1   7
ATOM      7  C   UNL     1      44.175   3.922  12.311  0.00  0.00    +0.000 C 
BRANCH   7   8
ATOM      8  N   UNL     1      44.405   2.846  11.343  0.00  0.00    +0.000 NA
ATOM      9  H   UNL     1      45.406   2.658  11.297  0.00  0.00    +0.000 HD
BRANCH   8  10
ATOM     10  C   UNL     1      43.937   3.199  10.001  0.00  0.00    +0.000 C 
BRANCH  10  15
ATOM     11  C   UNL     1      48.086   2.093   6.164  0.00  0.00    +0.000 C 
ATOM     12  C   UNL     1      47.003   2.431   7.144  0.00  0.00    +0.000 A 
ATOM     13  C   UNL     1      46.530   3.733   7.266  0.00  0.00    +0.000 A 
ATOM     14  C   UNL     1      45.522   3.994   8.192  0.00  0.00    +0.000 A 
ATOM     15  C   UNL     1      45.007   2.957   8.972  0.00  0.00    +0.000 A 
ATOM     16  C   UNL     1      45.552   1.694   8.785  0.00  0.00    +0.000 A 
ATOM     17  N   UNL     1      46.529   1.409   7.893  0.00  0.00    +0.000 NA
ENDBRANCH  10  15
ENDBRANCH   8  10
ENDBRANCH   7   8
ENDBRANCH   1   7
BRANCH   4  18
ATOM     18  C   UNL     1      48.862   7.162  13.580  0.00  0.00    +0.000 C 
BRANCH  18  19
ATOM     19  N   UNL     1      49.347   6.883  14.907  0.00  0.00    +0.000 N 
ATOM     20  C   UNL     1      50.597   7.283  15.303  0.00  0.00    +0.000 C 
ATOM     21  O   UNL     1      51.340   7.920  14.562  0.00  0.00    +0.000 OA
ATOM     22  H   UNL     1      48.852   6.175  15.442  0.00  0.00    +0.000 HD
BRANCH  20  23
ATOM     23  C   UNL     1      50.979   6.967  16.684  0.00  0.00    +0.000 A 
ATOM     24  C   UNL     1      52.152   6.263  16.927  0.00  0.00    +0.000 A 
ATOM     25  S   UNL     1      52.473   6.020  18.584  0.00  0.00    +0.000 S 
ATOM     26  C   UNL     1      51.030   6.801  19.034  0.00  0.00    +0.000 A 
ATOM     27  N   UNL     1      50.675   6.915  20.342  0.00  0.00    +0.000 NA
ATOM     28  C   UNL     1      49.541   7.501  20.538  0.00  0.00    +0.000 A 
ATOM     29  N   UNL     1      48.734   7.991  19.545  0.00  0.00    +0.000 N 
ATOM     30  C   UNL     1      49.064   7.926  18.213  0.00  0.00    +0.000 A 
ATOM     31  O   UNL     1      48.339   8.413  17.352  0.00  0.00    +0.000 OA
ATOM     32  C   UNL     1      50.323   7.260  17.936  0.00  0.00    +0.000 A 
ATOM     33  H   UNL     1      47.862   8.449  19.766  0.00  0.00    +0.000 HD
ENDBRANCH  20  23
ENDBRANCH  18  19
ENDBRANCH   4  18
TORSDOF 7
ENDMDL
MODEL 6
REMARK VINA RESULT:    -7.125      1.738      2.030
REMARK INTER + INTRA:         -11.188
REMARK INTER:                 -10.277
REMARK INTRA:                  -0.911
REMARK UNBOUND:                -1.147
REMARK  Name = 
REMARK  8 active torsions:
REMARK  status: ('A' for Active; 'I' for Inactive)
REMARK    1  A    between atoms: C_1  and  C_2
REMARK    2  A    between atoms: C_5  and  C_6
REMARK    3  A    between atoms: C_6  and  N_7
REMARK    4  A    between atoms: N_7  and  C_8
REMARK    5  A    between atoms: C_8  and  C_9
REMARK    6  A    between atoms: C_12  and  C_13
REMARK    7  A    between atoms: C_13  and  N_14
REMARK    8  A    between atoms: C_15  and  C_17
REMARK                            x       y       z     vdW  Elec       q    Type
REMARK                         _______ _______ _______ _____ _____    ______ ____
ROOT
ATOM      1  C   UNL     1      44.726   4.234  12.586  0.00  0.00    +0.000 A 
ATOM      2  C   UNL     1      45.884   3.593  13.050  0.00  0.00    +0.000 A 
ATOM      3  C   UNL     1      46.970   4.339  13.517  0.00  0.00    +0.000 A 
ATOM      4  C   UNL     1      46.916   5.738  13.537  0.00  0.00    +0.000 A 
ATOM      5  C   UNL     1      45.772   6.378  13.044  0.00  0.00    +0.000 A 
ATOM      6  C   UNL     1      44.684   5.633  12.576  0.00  0.00    +0.000 A 
ENDROOT
BRANCH   1   7
ATOM      7  C   UNL     1      43.531   3.428  12.132  0.00  0.00    +0.000 C 
BRANCH   7   8
ATOM      8  N   UNL     1      43.728   2.772  10.836  0.00  0.00    +0.000 NA
ATOM      9  H   UNL     1      44.561   2.188  10.890  0.00  0.00    +0.000 HD
BRANCH   8  10
ATOM     10  C   UNL     1      43.908   3.738   9.749  0.00  0.00    +0.000 C 
BRANCH  10  15
ATOM     11  C   UNL     1      48.125   2.296   6.102  0.00  0.00    +0.000 C 
ATOM     12  C   UNL     1      47.030   2.622   7.073  0.00  0.00    +0.000 A 
ATOM     13  C   UNL     1      46.489   1.641   7.897  0.00  0.00    +0.000 A 
ATOM     14  C   UNL     1      45.473   1.996   8.782  0.00  0.00    +0.000 A 
ATOM     15  C   UNL     1      45.019   3.316   8.828  0.00  0.00    +0.000 A 
ATOM     16  C   UNL     1      45.614   4.220   7.958  0.00  0.00    +0.000 A 
ATOM     17  N   UNL     1      46.604   3.906   7.090  0.00  0.00    +0.000 NA
ENDBRANCH  10  15
ENDBRANCH   8  10
ENDBRANCH   7   8
ENDBRANCH   1   7
BRANCH   4  18
ATOM     18  C   UNL     1      48.079   6.551  14.042  0.00  0.00    +0.000 C 
BRANCH  18  19
ATOM     19  N   UNL     1      48.439   6.165  15.382  0.00  0.00    +0.000 N 
ATOM     20  C   UNL     1      48.937   7.081  16.273  0.00  0.00    +0.000 C 
ATOM     21  O   UNL     1      49.066   8.267  15.981  0.00  0.00    +0.000 OA
ATOM     22  H   UNL     1      48.555   5.172  15.563  0.00  0.00    +0.000 HD
BRANCH  20  23
ATOM     23  C   UNL     1      49.249   6.584  17.618  0.00  0.00    +0.000 A 
ATOM     24  C   UNL     1      48.306   6.708  18.631  0.00  0.00    +0.000 A 
ATOM     25  S   UNL     1      48.807   6.040  20.117  0.00  0.00    +0.000 S 
ATOM     26  C   UNL     1      50.322   5.607  19.474  0.00  0.00    +0.000 A 
ATOM     27  N   UNL     1      51.264   5.004  20.248  0.00  0.00    +0.000 NA
ATOM     28  C   UNL     1      52.377   4.761  19.641  0.00  0.00    +0.000 A 
ATOM     29  N   UNL     1      52.631   5.058  18.328  0.00  0.00    +0.000 N 
ATOM     30  C   UNL     1      51.700   5.638  17.499  0.00  0.00    +0.000 A 
ATOM     31  O   UNL     1      51.945   5.850  16.316  0.00  0.00    +0.000 OA
ATOM     32  C   UNL     1      50.436   5.948  18.138  0.00  0.00    +0.000 A 
ATOM     33  H   UNL     1      53.521   4.832  17.909  0.00  0.00    +0.000 HD
ENDBRANCH  20  23
ENDBRANCH  18  19
ENDBRANCH   4  18
TORSDOF 7
ENDMDL
MODEL 7
REMARK VINA RESULT:    -7.124      5.101      9.424
REMARK INTER + INTRA:         -11.186
REMARK INTER:                 -10.181
REMARK INTRA:                  -1.004
REMARK UNBOUND:                -1.147
REMARK  Name = 
REMARK  8 active torsions:
REMARK  status: ('A' for Active; 'I' for Inactive)
REMARK    1  A    between atoms: C_1  and  C_2
REMARK    2  A    between atoms: C_5  and  C_6
REMARK    3  A    between atoms: C_6  and  N_7
REMARK    4  A    between atoms: N_7  and  C_8
REMARK    5  A    between atoms: C_8  and  C_9
REMARK    6  A    between atoms: C_12  and  C_13
REMARK    7  A    between atoms: C_13  and  N_14
REMARK    8  A    between atoms: C_15  and  C_17
REMARK                            x       y       z     vdW  Elec       q    Type
REMARK                         _______ _______ _______ _____ _____    ______ ____
ROOT
ATOM      1  C   UNL     1      51.124   2.325  17.467  0.00  0.00    +0.000 A 
ATOM      2  C   UNL     1      51.764   3.571  17.534  0.00  0.00    +0.000 A 
ATOM      3  C   UNL     1      51.026   4.755  17.450  0.00  0.00    +0.000 A 
ATOM      4  C   UNL     1      49.634   4.715  17.305  0.00  0.00    +0.000 A 
ATOM      5  C   UNL     1      48.999   3.471  17.206  0.00  0.00    +0.000 A 
ATOM      6  C   UNL     1      49.736   2.286  17.290  0.00  0.00    +0.000 A 
ENDROOT
BRANCH   1   7
ATOM      7  C   UNL     1      51.916   1.046  17.612  0.00  0.00    +0.000 C 
BRANCH   7   8
ATOM      8  N   UNL     1      53.027   1.152  18.561  0.00  0.00    +0.000 NA
ATOM      9  H   UNL     1      53.015   2.083  18.975  0.00  0.00    +0.000 HD
BRANCH   8  10
ATOM     10  C   UNL     1      54.327   0.949  17.917  0.00  0.00    +0.000 C 
BRANCH  10  15
ATOM     11  C   UNL     1      55.154  -4.634  16.770  0.00  0.00    +0.000 C 
ATOM     12  C   UNL     1      54.945  -3.170  17.017  0.00  0.00    +0.000 A 
ATOM     13  C   UNL     1      55.117  -2.242  15.996  0.00  0.00    +0.000 A 
ATOM     14  C   UNL     1      54.910  -0.892  16.277  0.00  0.00    +0.000 A 
ATOM     15  C   UNL     1      54.536  -0.498  17.564  0.00  0.00    +0.000 A 
ATOM     16  C   UNL     1      54.400  -1.498  18.517  0.00  0.00    +0.000 A 
ATOM     17  N   UNL     1      54.591  -2.816  18.274  0.00  0.00    +0.000 NA
ENDBRANCH  10  15
ENDBRANCH   8  10
ENDBRANCH   7   8
ENDBRANCH   1   7
BRANCH   4  18
ATOM     18  C   UNL     1      48.828   5.985  17.218  0.00  0.00    +0.000 C 
BRANCH  18  19
ATOM     19  N   UNL     1      47.931   5.954  16.092  0.00  0.00    +0.000 N 
ATOM     20  C   UNL     1      48.346   6.340  14.844  0.00  0.00    +0.000 C 
ATOM     21  O   UNL     1      49.502   6.695  14.625  0.00  0.00    +0.000 OA
ATOM     22  H   UNL     1      46.937   5.888  16.293  0.00  0.00    +0.000 HD
BRANCH  20  23
ATOM     23  C   UNL     1      47.356   6.247  13.765  0.00  0.00    +0.000 A 
ATOM     24  C   UNL     1      46.953   7.401  13.104  0.00  0.00    +0.000 A 
ATOM     25  S   UNL     1      45.835   7.113  11.849  0.00  0.00    +0.000 S 
ATOM     26  C   UNL     1      45.812   5.444  12.177  0.00  0.00    +0.000 A 
ATOM     27  N   UNL     1      45.018   4.601  11.463  0.00  0.00    +0.000 NA
ATOM     28  C   UNL     1      45.076   3.367  11.839  0.00  0.00    +0.000 A 
ATOM     29  N   UNL     1      45.860   2.898  12.860  0.00  0.00    +0.000 N 
ATOM     30  C   UNL     1      46.701   3.706  13.589  0.00  0.00    +0.000 A 
ATOM     31  O   UNL     1      47.423   3.246  14.467  0.00  0.00    +0.000 OA
ATOM     32  C   UNL     1      46.662   5.107  13.216  0.00  0.00    +0.000 A 
ATOM     33  H   UNL     1      45.867   1.917  13.099  0.00  0.00    +0.000 HD
ENDBRANCH  20  23
ENDBRANCH  18  19
ENDBRANCH   4  18
TORSDOF 7
ENDMDL
MODEL 8
REMARK VINA RESULT:    -7.121      4.799      7.001
REMARK INTER + INTRA:         -11.181
REMARK INTER:                 -10.102
REMARK INTRA:                  -1.079
REMARK UNBOUND:                -1.147
REMARK  Name = 
REMARK  8 active torsions:
REMARK  status: ('A' for Active; 'I' for Inactive)
REMARK    1  A    between atoms: C_1  and  C_2
REMARK    2  A    between atoms: C_5  and  C_6
REMARK    3  A    between atoms: C_6  and  N_7
REMARK    4  A    between atoms: N_7  and  C_8
REMARK    5  A    between atoms: C_8  and  C_9
REMARK    6  A    between atoms: C_12  and  C_13
REMARK    7  A    between atoms: C_13  and  N_14
REMARK    8  A    between atoms: C_15  and  C_17
REMARK                            x       y       z     vdW  Elec       q    Type
REMARK                         _______ _______ _______ _____ _____    ______ ____
ROOT
ATOM      1  C   UNL     1      45.633   5.441  12.300  0.00  0.00    +0.000 A 
ATOM      2  C   UNL     1      46.143   6.372  11.384  0.00  0.00    +0.000 A 
ATOM      3  C   UNL     1      47.374   6.995  11.612  0.00  0.00    +0.000 A 
ATOM      4  C   UNL     1      48.121   6.693  12.757  0.00  0.00    +0.000 A 
ATOM      5  C   UNL     1      47.596   5.787  13.688  0.00  0.00    +0.000 A 
ATOM      6  C   UNL     1      46.366   5.163  13.460  0.00  0.00    +0.000 A 
ENDROOT
BRANCH   1   7
ATOM      7  C   UNL     1      44.329   4.729  12.027  0.00  0.00    +0.000 C 
BRANCH   7   8
ATOM      8  N   UNL     1      44.036   4.578  10.599  0.00  0.00    +0.000 NA
ATOM      9  H   UNL     1      43.104   4.949  10.416  0.00  0.00    +0.000 HD
BRANCH   8  10
ATOM     10  C   UNL     1      44.068   3.177  10.172  0.00  0.00    +0.000 C 
BRANCH  10  15
ATOM     11  C   UNL     1      47.957   2.196   6.040  0.00  0.00    +0.000 C 
ATOM     12  C   UNL     1      46.941   2.502   7.098  0.00  0.00    +0.000 A 
ATOM     13  C   UNL     1      46.495   3.803   7.307  0.00  0.00    +0.000 A 
ATOM     14  C   UNL     1      45.549   4.035   8.305  0.00  0.00    +0.000 A 
ATOM     15  C   UNL     1      45.069   2.969   9.069  0.00  0.00    +0.000 A 
ATOM     16  C   UNL     1      45.584   1.709   8.793  0.00  0.00    +0.000 A 
ATOM     17  N   UNL     1      46.500   1.453   7.830  0.00  0.00    +0.000 NA
ENDBRANCH  10  15
ENDBRANCH   8  10
ENDBRANCH   7   8
ENDBRANCH   1   7
BRANCH   4  18
ATOM     18  C   UNL     1      49.450   7.354  13.011  0.00  0.00    +0.000 C 
BRANCH  18  19
ATOM     19  N   UNL     1      50.255   7.379  11.817  0.00  0.00    +0.000 N 
ATOM     20  C   UNL     1      51.399   8.131  11.750  0.00  0.00    +0.000 C 
ATOM     21  O   UNL     1      51.803   8.786  12.707  0.00  0.00    +0.000 OA
ATOM     22  H   UNL     1      49.825   7.039  10.961  0.00  0.00    +0.000 HD
BRANCH  20  23
ATOM     23  C   UNL     1      52.153   8.065  10.493  0.00  0.00    +0.000 A 
ATOM     24  C   UNL     1      52.694   6.853  10.081  0.00  0.00    +0.000 A 
ATOM     25  S   UNL     1      53.499   6.939   8.580  0.00  0.00    +0.000 S 
ATOM     26  C   UNL     1      53.198   8.609   8.452  0.00  0.00    +0.000 A 
ATOM     27  N   UNL     1      53.655   9.322   7.388  0.00  0.00    +0.000 NA
ATOM     28  C   UNL     1      53.383  10.584   7.436  0.00  0.00    +0.000 A 
ATOM     29  N   UNL     1      52.689  11.195   8.447  0.00  0.00    +0.000 N 
ATOM     30  C   UNL     1      52.182  10.511   9.526  0.00  0.00    +0.000 A 
ATOM     31  O   UNL     1      51.528  11.082  10.392  0.00  0.00    +0.000 OA
ATOM     32  C   UNL     1      52.475   9.091   9.529  0.00  0.00    +0.000 A 
ATOM     33  H   UNL     1      52.500  12.187   8.419  0.00  0.00    +0.000 HD
ENDBRANCH  20  23
ENDBRANCH  18  19
ENDBRANCH   4  18
TORSDOF 7
ENDMDL
MODEL 9
REMARK VINA RESULT:    -7.072      1.787      2.275
REMARK INTER + INTRA:         -11.113
REMARK INTER:                 -10.606
REMARK INTRA:                  -0.507
REMARK UNBOUND:                -1.147
REMARK  Name = 
REMARK  8 active torsions:
REMARK  status: ('A' for Active; 'I' for Inactive)
REMARK    1  A    between atoms: C_1  and  C_2
REMARK    2  A    between atoms: C_5  and  C_6
REMARK    3  A    between atoms: C_6  and  N_7
REMARK    4  A    between atoms: N_7  and  C_8
REMARK    5  A    between atoms: C_8  and  C_9
REMARK    6  A    between atoms: C_12  and  C_13
REMARK    7  A    between atoms: C_13  and  N_14
REMARK    8  A    between atoms: C_15  and  C_17
REMARK                            x       y       z     vdW  Elec       q    Type
REMARK                         _______ _______ _______ _____ _____    ______ ____
ROOT
ATOM      1  C   UNL     1      45.945   5.127  12.372  0.00  0.00    +0.000 A 
ATOM      2  C   UNL     1      45.445   6.348  11.897  0.00  0.00    +0.000 A 
ATOM      3  C   UNL     1      45.974   7.559  12.356  0.00  0.00    +0.000 A 
ATOM      4  C   UNL     1      47.015   7.571  13.291  0.00  0.00    +0.000 A 
ATOM      5  C   UNL     1      47.491   6.352  13.789  0.00  0.00    +0.000 A 
ATOM      6  C   UNL     1      46.965   5.140  13.332  0.00  0.00    +0.000 A 
ENDROOT
BRANCH   1   7
ATOM      7  C   UNL     1      45.411   3.819  11.837  0.00  0.00    +0.000 C 
BRANCH   7   8
ATOM      8  N   UNL     1      43.975   3.850  11.547  0.00  0.00    +0.000 NA
ATOM      9  H   UNL     1      43.576   2.940  11.776  0.00  0.00    +0.000 HD
BRANCH   8  10
ATOM     10  C   UNL     1      43.701   4.133  10.136  0.00  0.00    +0.000 C 
BRANCH  10  15
ATOM     11  C   UNL     1      47.556   1.400   6.846  0.00  0.00    +0.000 C 
ATOM     12  C   UNL     1      46.564   2.157   7.675  0.00  0.00    +0.000 A 
ATOM     13  C   UNL     1      46.450   3.538   7.570  0.00  0.00    +0.000 A 
ATOM     14  C   UNL     1      45.511   4.195   8.365  0.00  0.00    +0.000 A 
ATOM     15  C   UNL     1      44.709   3.463   9.243  0.00  0.00    +0.000 A 
ATOM     16  C   UNL     1      44.905   2.090   9.284  0.00  0.00    +0.000 A 
ATOM     17  N   UNL     1      45.805   1.424   8.524  0.00  0.00    +0.000 NA
ENDBRANCH  10  15
ENDBRANCH   8  10
ENDBRANCH   7   8
ENDBRANCH   1   7
BRANCH   4  18
ATOM     18  C   UNL     1      47.595   8.869  13.789  0.00  0.00    +0.000 C 
BRANCH  18  19
ATOM     19  N   UNL     1      47.352   9.040  15.198  0.00  0.00    +0.000 N 
ATOM     20  C   UNL     1      48.388   9.208  16.080  0.00  0.00    +0.000 C 
ATOM     21  O   UNL     1      49.558   9.252  15.707  0.00  0.00    +0.000 OA
ATOM     22  H   UNL     1      46.433   8.781  15.545  0.00  0.00    +0.000 HD
BRANCH  20  23
ATOM     23  C   UNL     1      48.026   9.397  17.489  0.00  0.00    +0.000 A 
ATOM     24  C   UNL     1      47.753  10.674  17.962  0.00  0.00    +0.000 A 
ATOM     25  S   UNL     1      47.304  10.713  19.606  0.00  0.00    +0.000 S 
ATOM     26  C   UNL     1      47.507   9.031  19.758  0.00  0.00    +0.000 A 
ATOM     27  N   UNL     1      47.303   8.406  20.949  0.00  0.00    +0.000 NA
ATOM     28  C   UNL     1      47.525   7.134  20.929  0.00  0.00    +0.000 A 
ATOM     29  N   UNL     1      47.923   6.429  19.824  0.00  0.00    +0.000 N 
ATOM     30  C   UNL     1      48.111   7.011  18.593  0.00  0.00    +0.000 A 
ATOM     31  O   UNL     1      48.425   6.342  17.614  0.00  0.00    +0.000 OA
ATOM     32  C   UNL     1      47.892   8.444  18.565  0.00  0.00    +0.000 A 
ATOM     33  H   UNL     1      48.069   5.431  19.872  0.00  0.00    +0.000 HD
ENDBRANCH  20  23
ENDBRANCH  18  19
ENDBRANCH   4  18
TORSDOF 7
ENDMDL
