MODEL 1
REMARK VINA RESULT:    -8.352      0.000      0.000
REMARK INTER + INTRA:         -11.008
REMARK INTER:                 -10.794
REMARK INTRA:                  -0.214
REMARK UNBOUND:                -0.214
REMARK  Name = 
REMARK  8 active torsions:
REMARK  status: ('A' for Active; 'I' for Inactive)
REMARK    1  A    between atoms: C_1  and  C_2
REMARK    2  A    between atoms: C_2  and  C_3
REMARK    3  A    between atoms: C_2  and  C_4
REMARK    4  A    between atoms: C_2  and  C_5
REMARK    5  A    between atoms: C_8  and  C_9
REMARK    6  A    between atoms: C_9  and  O_10
REMARK    7  A    between atoms: O_10  and  C_11
REMARK    8  A    between atoms: C_14  and  C_15
REMARK                            x       y       z     vdW  Elec       q    Type
REMARK                         _______ _______ _______ _____ _____    ______ ____
ROOT
ATOM      1  C   UNL     1      43.688   2.646  11.247  0.00  0.00    +0.000 C 
ENDROOT
BRANCH   1   5
ATOM      2  C   UNL     1      44.940   6.139  13.140  0.00  0.00    +0.000 C 
ATOM      3  N   UNL     1      43.494   5.967  13.092  0.00  0.00    +0.000 NA
ATOM      4  C   UNL     1      43.055   4.887  12.229  0.00  0.00    +0.000 C 
ATOM      5  C   UNL     1      43.812   3.579  12.461  0.00  0.00    +0.000 C 
ATOM      6  C   UNL     1      45.298   3.795  12.753  0.00  0.00    +0.000 C 
ATOM      7  O   UNL     1      45.577   4.932  13.544  0.00  0.00    +0.000 OA
ATOM      8  H   UNL     1      43.041   6.840  12.841  0.00  0.00    +0.000 HD
BRANCH   2  10
ATOM      9  C   UNL     1      44.730   8.062  11.479  0.00  0.00    +0.000 C 
ATOM     10  C   UNL     1      45.643   6.907  11.954  0.00  0.00    +0.000 C 
ATOM     11  C   UNL     1      45.969   6.066  10.705  0.00  0.00    +0.000 C 
ATOM     12  C   UNL     1      46.969   7.524  12.452  0.00  0.00    +0.000 C 
ENDBRANCH   2  10
ENDBRANCH   1   5
BRANCH   1  13
ATOM     13  O   UNL     1      43.560   3.385  10.024  0.00  0.00    +0.000 OA
BRANCH  13  14
ATOM     14  C   UNL     1      44.554   3.059   9.118  0.00  0.00    +0.000 A 
ATOM     15  C   UNL     1      44.976   4.033   8.216  0.00  0.00    +0.000 A 
ATOM     16  N   UNL     1      45.963   3.824   7.304  0.00  0.00    +0.000 NA
ATOM     17  C   UNL     1      46.513   2.576   7.338  0.00  0.00    +0.000 A 
ATOM     18  C   UNL     1      46.090   1.600   8.231  0.00  0.00    +0.000 A 
ATOM     19  N   UNL     1      45.104   1.821   9.138  0.00  0.00    +0.000 NA
BRANCH  17  20
ATOM     20  C   UNL     1      47.621   2.258   6.391  0.00  0.00    +0.000 C 
ATOM     21  N   UNL     1      47.747   3.099   5.319  0.00  0.00    +0.000 N 
ATOM     22  O   UNL     1      48.373   1.307   6.560  0.00  0.00    +0.000 OA
ATOM     23  H   UNL     1      47.121   3.882   5.201  0.00  0.00    +0.000 HD
ATOM     24  H   UNL     1      48.492   2.937   4.651  0.00  0.00    +0.000 HD
ENDBRANCH  17  20
ENDBRANCH  13  14
ENDBRANCH   1  13
TORSDOF 5
ENDMDL
MODEL 2
REMARK VINA RESULT:    -6.854      1.668      2.508
REMARK INTER + INTRA:          -9.071
REMARK INTER:                  -9.071
REMARK INTRA:                  -0.000
REMARK UNBOUND:                -0.214
REMARK  Name = 
REMARK  8 active torsions:
REMARK  status: ('A' for Active; 'I' for Inactive)
REMARK    1  A    between atoms: C_1  and  C_2
REMARK    2  A    between atoms: C_2  and  C_3
REMARK    3  A    between atoms: C_2  and  C_4
REMARK    4  A    between atoms: C_2  and  C_5
REMARK    5  A    between atoms: C_8  and  C_9
REMARK    6  A    between atoms: C_9  and  O_10
REMARK    7  A    between atoms: O_10  and  C_11
REMARK    8  A    between atoms: C_14  and  C_15
REMARK                            x       y       z     vdW  Elec       q    Type
REMARK                         _______ _______ _______ _____ _____    ______ ____
ROOT
ATOM      1  C   UNL     1      44.250   5.632  10.733  0.00  0.00    +0.000 C 
ENDROOT
BRANCH   1   5
ATOM      2  C   UNL     1      47.394   6.922  13.141  0.00  0.00    +0.000 C 
ATOM      3  N   UNL     1      46.471   6.006  13.797  0.00  0.00    +0.000 NA
ATOM      4  C   UNL     1      45.257   5.750  13.048  0.00  0.00    +0.000 C 
ATOM      5  C   UNL     1      45.511   5.404  11.580  0.00  0.00    +0.000 C 
ATOM      6  C   UNL     1      46.656   6.213  10.967  0.00  0.00    +0.000 C 
ATOM      7  O   UNL     1      47.739   6.446  11.845  0.00  0.00    +0.000 OA
ATOM      8  H   UNL     1      46.258   6.329  14.736  0.00  0.00    +0.000 HD
BRANCH   2  10
ATOM      9  C   UNL     1      47.522   8.987  14.632  0.00  0.00    +0.000 C 
ATOM     10  C   UNL     1      47.105   8.472  13.235  0.00  0.00    +0.000 C 
ATOM     11  C   UNL     1      45.638   8.897  13.032  0.00  0.00    +0.000 C 
ATOM     12  C   UNL     1      47.951   9.219  12.181  0.00  0.00    +0.000 C 
ENDBRANCH   2  10
ENDBRANCH   1   5
BRANCH   1  13
ATOM     13  O   UNL     1      43.745   4.403  10.194  0.00  0.00    +0.000 OA
BRANCH  13  14
ATOM     14  C   UNL     1      44.667   3.783   9.369  0.00  0.00    +0.000 A 
ATOM     15  C   UNL     1      44.974   2.445   9.603  0.00  0.00    +0.000 A 
ATOM     16  N   UNL     1      45.845   1.737   8.835  0.00  0.00    +0.000 NA
ATOM     17  C   UNL     1      46.401   2.443   7.809  0.00  0.00    +0.000 A 
ATOM     18  C   UNL     1      46.103   3.778   7.577  0.00  0.00    +0.000 A 
ATOM     19  N   UNL     1      45.230   4.475   8.350  0.00  0.00    +0.000 NA
BRANCH  17  20
ATOM     20  C   UNL     1      47.352   1.745   6.895  0.00  0.00    +0.000 C 
ATOM     21  N   UNL     1      48.377   2.509   6.405  0.00  0.00    +0.000 N 
ATOM     22  O   UNL     1      47.228   0.563   6.601  0.00  0.00    +0.000 OA
ATOM     23  H   UNL     1      48.465   3.481   6.665  0.00  0.00    +0.000 HD
ATOM     24  H   UNL     1      49.059   2.081   5.790  0.00  0.00    +0.000 HD
ENDBRANCH  17  20
ENDBRANCH  13  14
ENDBRANCH   1  13
TORSDOF 5
ENDMDL
MODEL 3
REMARK VINA RESULT:    -6.625      1.829      2.668
REMARK INTER + INTRA:          -8.775
REMARK INTER:                  -8.576
REMARK INTRA:                  -0.199
REMARK UNBOUND:                -0.214
REMARK  Name = 
REMARK  8 active torsions:
REMARK  status: ('A' for Active; 'I' for Inactive)
REMARK    1  A    between atoms: C_1  and  C_2
REMARK    2  A    between atoms: C_2  and  C_3
REMARK    3  A    between atoms: C_2  and  C_4
REMARK    4  A    between atoms: C_2  and  C_5
REMARK    5  A    between atoms: C_8  and  C_9
REMARK    6  A    between atoms: C_9  and  O_10
REMARK    7  A    between atoms: O_10  and  C_11
REMARK    8  A    between atoms: C_14  and  C_15
REMARK                            x       y       z     vdW  Elec       q    Type
REMARK                         _______ _______ _______ _____ _____    ______ ____
ROOT
ATOM      1  C   UNL     1      45.091   6.160  10.921  0.00  0.00    +0.000 C 
ENDROOT
BRANCH   1   5
ATOM      2  C   UNL     1      47.638   7.774  13.795  0.00  0.00    +0.000 C 
ATOM      3  N   UNL     1      46.353   8.450  13.683  0.00  0.00    +0.000 NA
ATOM      4  C   UNL     1      45.570   8.049  12.530  0.00  0.00    +0.000 C 
ATOM      5  C   UNL     1      45.472   6.532  12.362  0.00  0.00    +0.000 C 
ATOM      6  C   UNL     1      46.771   5.807  12.719  0.00  0.00    +0.000 C 
ATOM      7  O   UNL     1      47.463   6.362  13.821  0.00  0.00    +0.000 OA
ATOM      8  H   UNL     1      46.479   9.458  13.703  0.00  0.00    +0.000 HD
BRANCH   2  10
ATOM      9  C   UNL     1      48.780   9.831  12.810  0.00  0.00    +0.000 C 
ATOM     10  C   UNL     1      48.835   8.289  12.902  0.00  0.00    +0.000 C 
ATOM     11  C   UNL     1      48.871   7.764  11.455  0.00  0.00    +0.000 C 
ATOM     12  C   UNL     1      50.175   7.900  13.565  0.00  0.00    +0.000 C 
ENDBRANCH   2  10
ENDBRANCH   1   5
BRANCH   1  13
ATOM     13  O   UNL     1      44.603   4.814  10.834  0.00  0.00    +0.000 OA
BRANCH  13  14
ATOM     14  C   UNL     1      45.147   4.137   9.757  0.00  0.00    +0.000 A 
ATOM     15  C   UNL     1      45.769   4.876   8.753  0.00  0.00    +0.000 A 
ATOM     16  N   UNL     1      46.358   4.307   7.667  0.00  0.00    +0.000 NA
ATOM     17  C   UNL     1      46.293   2.945   7.634  0.00  0.00    +0.000 A 
ATOM     18  C   UNL     1      45.669   2.205   8.629  0.00  0.00    +0.000 A 
ATOM     19  N   UNL     1      45.085   2.784   9.710  0.00  0.00    +0.000 NA
BRANCH  17  20
ATOM     20  C   UNL     1      46.933   2.227   6.494  0.00  0.00    +0.000 C 
ATOM     21  N   UNL     1      47.214   2.990   5.392  0.00  0.00    +0.000 N 
ATOM     22  O   UNL     1      47.193   1.032   6.536  0.00  0.00    +0.000 OA
ATOM     23  H   UNL     1      46.997   3.976   5.380  0.00  0.00    +0.000 HD
ATOM     24  H   UNL     1      47.662   2.555   4.594  0.00  0.00    +0.000 HD
ENDBRANCH  17  20
ENDBRANCH  13  14
ENDBRANCH   1  13
TORSDOF 5
ENDMDL
MODEL 4
REMARK VINA RESULT:    -6.251      3.371      6.995
REMARK INTER + INTRA:          -8.292
REMARK INTER:                  -8.181
REMARK INTRA:                  -0.112
REMARK UNBOUND:                -0.214
REMARK  Name = 
REMARK  8 active torsions:
REMARK  status: ('A' for Active; 'I' for Inactive)
REMARK    1  A    between atoms: C_1  and  C_2
REMARK    2  A    between atoms: C_2  and  C_3
REMARK    3  A    between atoms: C_2  and  C_4
REMARK    4  A    between atoms: C_2  and  C_5
REMARK    5  A    between atoms: C_8  and  C_9
REMARK    6  A    between atoms: C_9  and  O_10
REMARK    7  A    between atoms: O_10  and  C_11
REMARK    8  A    between atoms: C_14  and  C_15
REMARK                            x       y       z     vdW  Elec       q    Type
REMARK                         _______ _______ _______ _____ _____    ______ ____
ROOT
ATOM      1  C   UNL     1      45.892   7.104  12.807  0.00  0.00    +0.000 C 
ENDROOT
BRANCH   1   5
ATOM      2  C   UNL     1      44.157   4.586   9.978  0.00  0.00    +0.000 C 
ATOM      3  N   UNL     1      43.224   5.501  10.621  0.00  0.00    +0.000 NA
ATOM      4  C   UNL     1      43.774   6.201  11.766  0.00  0.00    +0.000 C 
ATOM      5  C   UNL     1      45.143   6.826  11.495  0.00  0.00    +0.000 C 
ATOM      6  C   UNL     1      46.032   5.950  10.609  0.00  0.00    +0.000 C 
ATOM      7  O   UNL     1      45.339   5.270   9.581  0.00  0.00    +0.000 OA
ATOM      8  H   UNL     1      42.366   5.018  10.868  0.00  0.00    +0.000 HD
BRANCH   2  10
ATOM      9  C   UNL     1      43.120   2.754  11.418  0.00  0.00    +0.000 C 
ATOM     10  C   UNL     1      44.387   3.168  10.634  0.00  0.00    +0.000 C 
ATOM     11  C   UNL     1      45.565   3.065  11.620  0.00  0.00    +0.000 C 
ATOM     12  C   UNL     1      44.623   2.119   9.524  0.00  0.00    +0.000 C 
ENDBRANCH   2  10
ENDBRANCH   1   5
BRANCH   1  13
ATOM     13  O   UNL     1      47.171   6.457  12.834  0.00  0.00    +0.000 OA
BRANCH  13  14
ATOM     14  C   UNL     1      47.394   5.804  14.033  0.00  0.00    +0.000 A 
ATOM     15  C   UNL     1      46.635   4.673  14.324  0.00  0.00    +0.000 A 
ATOM     16  N   UNL     1      46.794   3.944  15.461  0.00  0.00    +0.000 NA
ATOM     17  C   UNL     1      47.761   4.409  16.304  0.00  0.00    +0.000 A 
ATOM     18  C   UNL     1      48.515   5.539  16.020  0.00  0.00    +0.000 A 
ATOM     19  N   UNL     1      48.349   6.259  14.880  0.00  0.00    +0.000 NA
BRANCH  17  20
ATOM     20  C   UNL     1      48.027   3.661  17.567  0.00  0.00    +0.000 C 
ATOM     21  N   UNL     1      47.054   2.779  17.953  0.00  0.00    +0.000 N 
ATOM     22  O   UNL     1      49.050   3.822  18.219  0.00  0.00    +0.000 OA
ATOM     23  H   UNL     1      46.220   2.657  17.397  0.00  0.00    +0.000 HD
ATOM     24  H   UNL     1      47.190   2.235  18.797  0.00  0.00    +0.000 HD
ENDBRANCH  17  20
ENDBRANCH  13  14
ENDBRANCH   1  13
TORSDOF 5
ENDMDL
MODEL 5
REMARK VINA RESULT:    -5.983      5.187      7.030
REMARK INTER + INTRA:          -7.946
REMARK INTER:                  -7.822
REMARK INTRA:                  -0.123
REMARK UNBOUND:                -0.214
REMARK  Name = 
REMARK  8 active torsions:
REMARK  status: ('A' for Active; 'I' for Inactive)
REMARK    1  A    between atoms: C_1  and  C_2
REMARK    2  A    between atoms: C_2  and  C_3
REMARK    3  A    between atoms: C_2  and  C_4
REMARK    4  A    between atoms: C_2  and  C_5
REMARK    5  A    between atoms: C_8  and  C_9
REMARK    6  A    between atoms: C_9  and  O_10
REMARK    7  A    between atoms: O_10  and  C_11
REMARK    8  A    between atoms: C_14  and  C_15
REMARK                            x       y       z     vdW  Elec       q    Type
REMARK                         _______ _______ _______ _____ _____    ______ ____
ROOT
ATOM      1  C   UNL     1      47.320   3.761  15.819  0.00  0.00    +0.000 C 
ENDROOT
BRANCH   1   5
ATOM      2  C   UNL     1      49.624   5.279  18.939  0.00  0.00    +0.000 C 
ATOM      3  N   UNL     1      49.692   3.832  18.791  0.00  0.00    +0.000 NA
ATOM      4  C   UNL     1      48.713   3.283  17.873  0.00  0.00    +0.000 C 
ATOM      5  C   UNL     1      48.652   4.026  16.537  0.00  0.00    +0.000 C 
ATOM      6  C   UNL     1      48.826   5.538  16.688  0.00  0.00    +0.000 C 
ATOM      7  O   UNL     1      49.761   5.920  17.677  0.00  0.00    +0.000 OA
ATOM      8  H   UNL     1      49.633   3.379  19.698  0.00  0.00    +0.000 HD
BRANCH   2  10
ATOM      9  C   UNL     1      48.363   4.987  21.137  0.00  0.00    +0.000 C 
ATOM     10  C   UNL     1      48.515   5.884  19.886  0.00  0.00    +0.000 C 
ATOM     11  C   UNL     1      47.108   6.023  19.274  0.00  0.00    +0.000 C 
ATOM     12  C   UNL     1      48.951   7.289  20.359  0.00  0.00    +0.000 C 
ENDBRANCH   2  10
ENDBRANCH   1   5
BRANCH   1  13
ATOM     13  O   UNL     1      47.521   3.414  14.442  0.00  0.00    +0.000 OA
BRANCH  13  14
ATOM     14  C   UNL     1      46.458   3.811  13.650  0.00  0.00    +0.000 A 
ATOM     15  C   UNL     1      46.115   5.161  13.626  0.00  0.00    +0.000 A 
ATOM     16  N   UNL     1      45.106   5.659  12.862  0.00  0.00    +0.000 NA
ATOM     17  C   UNL     1      44.449   4.727  12.113  0.00  0.00    +0.000 A 
ATOM     18  C   UNL     1      44.783   3.380  12.138  0.00  0.00    +0.000 A 
ATOM     19  N   UNL     1      45.794   2.895  12.905  0.00  0.00    +0.000 NA
BRANCH  17  20
ATOM     20  C   UNL     1      43.341   5.180  11.222  0.00  0.00    +0.000 C 
ATOM     21  N   UNL     1      43.608   5.152   9.879  0.00  0.00    +0.000 N 
ATOM     22  O   UNL     1      42.260   5.552  11.659  0.00  0.00    +0.000 OA
ATOM     23  H   UNL     1      44.504   4.836   9.538  0.00  0.00    +0.000 HD
ATOM     24  H   UNL     1      42.885   5.437   9.228  0.00  0.00    +0.000 HD
ENDBRANCH  17  20
ENDBRANCH  13  14
ENDBRANCH   1  13
TORSDOF 5
ENDMDL
MODEL 6
REMARK VINA RESULT:    -5.768      5.214      6.956
REMARK INTER + INTRA:          -7.667
REMARK INTER:                  -7.636
REMARK INTRA:                  -0.031
REMARK UNBOUND:                -0.214
REMARK  Name = 
REMARK  8 active torsions:
REMARK  status: ('A' for Active; 'I' for Inactive)
REMARK    1  A    between atoms: C_1  and  C_2
REMARK    2  A    between atoms: C_2  and  C_3
REMARK    3  A    between atoms: C_2  and  C_4
REMARK    4  A    between atoms: C_2  and  C_5
REMARK    5  A    between atoms: C_8  and  C_9
REMARK    6  A    between atoms: C_9  and  O_10
REMARK    7  A    between atoms: O_10  and  C_11
REMARK    8  A    between atoms: C_14  and  C_15
REMARK                            x       y       z     vdW  Elec       q    Type
REMARK                         _______ _______ _______ _____ _____    ______ ____
ROOT
ATOM      1  C   UNL     1      47.287   3.896  15.876  0.00  0.00    +0.000 C 
ENDROOT
BRANCH   1   5
ATOM      2  C   UNL     1      50.022   5.160  18.751  0.00  0.00    +0.000 C 
ATOM      3  N   UNL     1      49.467   6.233  17.937  0.00  0.00    +0.000 NA
ATOM      4  C   UNL     1      48.709   5.774  16.789  0.00  0.00    +0.000 C 
ATOM      5  C   UNL     1      47.691   4.685  17.130  0.00  0.00    +0.000 C 
ATOM      6  C   UNL     1      48.206   3.695  18.177  0.00  0.00    +0.000 C 
ATOM      7  O   UNL     1      48.995   4.282  19.193  0.00  0.00    +0.000 OA
ATOM      8  H   UNL     1      50.198   6.880  17.655  0.00  0.00    +0.000 HD
BRANCH   2  10
ATOM      9  C   UNL     1      52.080   5.381  17.260  0.00  0.00    +0.000 C 
ATOM     10  C   UNL     1      51.347   4.456  18.259  0.00  0.00    +0.000 C 
ATOM     11  C   UNL     1      51.166   3.101  17.549  0.00  0.00    +0.000 C 
ATOM     12  C   UNL     1      52.284   4.221  19.464  0.00  0.00    +0.000 C 
ENDBRANCH   2  10
ENDBRANCH   1   5
BRANCH   1  13
ATOM     13  O   UNL     1      47.722   4.549  14.676  0.00  0.00    +0.000 OA
BRANCH  13  14
ATOM     14  C   UNL     1      46.714   4.619  13.731  0.00  0.00    +0.000 A 
ATOM     15  C   UNL     1      46.338   5.873  13.253  0.00  0.00    +0.000 A 
ATOM     16  N   UNL     1      45.378   6.050  12.306  0.00  0.00    +0.000 NA
ATOM     17  C   UNL     1      44.805   4.896  11.855  0.00  0.00    +0.000 A 
ATOM     18  C   UNL     1      45.172   3.646  12.334  0.00  0.00    +0.000 A 
ATOM     19  N   UNL     1      46.134   3.481  13.280  0.00  0.00    +0.000 NA
BRANCH  17  20
ATOM     20  C   UNL     1      43.758   4.986  10.797  0.00  0.00    +0.000 C 
ATOM     21  N   UNL     1      44.166   4.677   9.527  0.00  0.00    +0.000 N 
ATOM     22  O   UNL     1      42.604   5.313  11.044  0.00  0.00    +0.000 OA
ATOM     23  H   UNL     1      45.121   4.404   9.345  0.00  0.00    +0.000 HD
ATOM     24  H   UNL     1      43.491   4.709   8.772  0.00  0.00    +0.000 HD
ENDBRANCH  17  20
ENDBRANCH  13  14
ENDBRANCH   1  13
TORSDOF 5
ENDMDL
MODEL 7
REMARK VINA RESULT:    -5.574      4.129      7.781
REMARK INTER + INTRA:          -7.417
REMARK INTER:                  -7.138
REMARK INTRA:                  -0.279
REMARK UNBOUND:                -0.214
REMARK  Name = 
REMARK  8 active torsions:
REMARK  status: ('A' for Active; 'I' for Inactive)
REMARK    1  A    between atoms: C_1  and  C_2
REMARK    2  A    between atoms: C_2  and  C_3
REMARK    3  A    between atoms: C_2  and  C_4
REMARK    4  A    between atoms: C_2  and  C_5
REMARK    5  A    between atoms: C_8  and  C_9
REMARK    6  A    between atoms: C_9  and  O_10
REMARK    7  A    between atoms: O_10  and  C_11
REMARK    8  A    between atoms: C_14  and  C_15
REMARK                            x       y       z     vdW  Elec       q    Type
REMARK                         _______ _______ _______ _____ _____    ______ ____
ROOT
ATOM      1  C   UNL     1      47.632   7.517  13.635  0.00  0.00    +0.000 C 
ENDROOT
BRANCH   1   5
ATOM      2  C   UNL     1      44.566   6.267  11.108  0.00  0.00    +0.000 C 
ATOM      3  N   UNL     1      44.351   7.574  11.713  0.00  0.00    +0.000 NA
ATOM      4  C   UNL     1      45.289   7.900  12.770  0.00  0.00    +0.000 C 
ATOM      5  C   UNL     1      46.747   7.644  12.386  0.00  0.00    +0.000 C 
ATOM      6  C   UNL     1      46.928   6.384  11.537  0.00  0.00    +0.000 C 
ATOM      7  O   UNL     1      45.891   6.160  10.602  0.00  0.00    +0.000 OA
ATOM      8  H   UNL     1      43.393   7.661  12.039  0.00  0.00    +0.000 HD
BRANCH   2  10
ATOM      9  C   UNL     1      42.636   5.298  12.465  0.00  0.00    +0.000 C 
ATOM     10  C   UNL     1      44.030   4.992  11.869  0.00  0.00    +0.000 C 
ATOM     11  C   UNL     1      44.902   4.484  13.033  0.00  0.00    +0.000 C 
ATOM     12  C   UNL     1      43.872   3.824  10.870  0.00  0.00    +0.000 C 
ENDBRANCH   2  10
ENDBRANCH   1   5
BRANCH   1  13
ATOM     13  O   UNL     1      48.225   6.215  13.733  0.00  0.00    +0.000 OA
BRANCH  13  14
ATOM     14  C   UNL     1      48.254   5.758  15.039  0.00  0.00    +0.000 A 
ATOM     15  C   UNL     1      48.919   6.523  15.995  0.00  0.00    +0.000 A 
ATOM     16  N   UNL     1      48.983   6.178  17.309  0.00  0.00    +0.000 NA
ATOM     17  C   UNL     1      48.343   5.015  17.623  0.00  0.00    +0.000 A 
ATOM     18  C   UNL     1      47.685   4.247  16.672  0.00  0.00    +0.000 A 
ATOM     19  N   UNL     1      47.626   4.603  15.362  0.00  0.00    +0.000 NA
BRANCH  17  20
ATOM     20  C   UNL     1      48.337   4.565  19.045  0.00  0.00    +0.000 C 
ATOM     21  N   UNL     1      48.420   3.213  19.243  0.00  0.00    +0.000 N 
ATOM     22  O   UNL     1      48.265   5.352  19.980  0.00  0.00    +0.000 OA
ATOM     23  H   UNL     1      48.485   2.581  18.459  0.00  0.00    +0.000 HD
ATOM     24  H   UNL     1      48.433   2.854  20.191  0.00  0.00    +0.000 HD
ENDBRANCH  17  20
ENDBRANCH  13  14
ENDBRANCH   1  13
TORSDOF 5
ENDMDL
MODEL 8
REMARK VINA RESULT:    -5.405      4.845      6.846
REMARK INTER + INTRA:          -7.198
REMARK INTER:                  -7.100
REMARK INTRA:                  -0.098
REMARK UNBOUND:                -0.214
REMARK  Name = 
REMARK  8 active torsions:
REMARK  status: ('A' for Active; 'I' for Inactive)
REMARK    1  A    between atoms: C_1  and  C_2
REMARK    2  A    between atoms: C_2  and  C_3
REMARK    3  A    between atoms: C_2  and  C_4
REMARK    4  A    between atoms: C_2  and  C_5
REMARK    5  A    between atoms: C_8  and  C_9
REMARK    6  A    between atoms: C_9  and  O_10
REMARK    7  A    between atoms: O_10  and  C_11
REMARK    8  A    between atoms: C_14  and  C_15
REMARK                            x       y       z     vdW  Elec       q    Type
REMARK                         _______ _______ _______ _____ _____    ______ ____
ROOT
ATOM      1  C   UNL     1      48.219   6.356  14.797  0.00  0.00    +0.000 C 
ENDROOT
BRANCH   1   5
ATOM      2  C   UNL     1      49.408   7.032  18.732  0.00  0.00    +0.000 C 
ATOM      3  N   UNL     1      50.009   5.857  18.116  0.00  0.00    +0.000 NA
ATOM      4  C   UNL     1      49.417   5.486  16.845  0.00  0.00    +0.000 C 
ATOM      5  C   UNL     1      49.264   6.663  15.880  0.00  0.00    +0.000 C 
ATOM      6  C   UNL     1      48.862   7.961  16.584  0.00  0.00    +0.000 C 
ATOM      7  O   UNL     1      49.464   8.146  17.850  0.00  0.00    +0.000 OA
ATOM      8  H   UNL     1      50.002   5.074  18.762  0.00  0.00    +0.000 HD
BRANCH   2  10
ATOM      9  C   UNL     1      48.330   6.323  20.932  0.00  0.00    +0.000 C 
ATOM     10  C   UNL     1      48.044   6.855  19.509  0.00  0.00    +0.000 C 
ATOM     11  C   UNL     1      47.028   5.886  18.875  0.00  0.00    +0.000 C 
ATOM     12  C   UNL     1      47.347   8.227  19.645  0.00  0.00    +0.000 C 
ENDBRANCH   2  10
ENDBRANCH   1   5
BRANCH   1  13
ATOM     13  O   UNL     1      47.782   4.991  14.855  0.00  0.00    +0.000 OA
BRANCH  13  14
ATOM     14  C   UNL     1      46.834   4.711  13.887  0.00  0.00    +0.000 A 
ATOM     15  C   UNL     1      46.224   5.776  13.227  0.00  0.00    +0.000 A 
ATOM     16  N   UNL     1      45.301   5.610  12.243  0.00  0.00    +0.000 NA
ATOM     17  C   UNL     1      45.013   4.309  11.948  0.00  0.00    +0.000 A 
ATOM     18  C   UNL     1      45.613   3.246  12.607  0.00  0.00    +0.000 A 
ATOM     19  N   UNL     1      46.536   3.424  13.588  0.00  0.00    +0.000 NA
BRANCH  17  20
ATOM     20  C   UNL     1      44.029   4.025  10.863  0.00  0.00    +0.000 C 
ATOM     21  N   UNL     1      43.609   5.109  10.140  0.00  0.00    +0.000 N 
ATOM     22  O   UNL     1      43.621   2.894  10.630  0.00  0.00    +0.000 OA
ATOM     23  H   UNL     1      43.962   6.032  10.344  0.00  0.00    +0.000 HD
ATOM     24  H   UNL     1      42.950   4.970   9.383  0.00  0.00    +0.000 HD
ENDBRANCH  17  20
ENDBRANCH  13  14
ENDBRANCH   1  13
TORSDOF 5
ENDMDL
