MODEL 1
REMARK VINA RESULT:    -8.654      0.000      0.000
REMARK INTER + INTRA:         -11.668
REMARK INTER:                 -11.184
REMARK INTRA:                  -0.485
REMARK UNBOUND:                -0.485
REMARK  Name = 
REMARK  5 active torsions:
REMARK  status: ('A' for Active; 'I' for Inactive)
REMARK    1  A    between atoms: C_2  and  C_4
REMARK    2  A    between atoms: N_8  and  C_9
REMARK    3  A    between atoms: C_9  and  C_10
REMARK    4  A    between atoms: C_13  and  O_14
REMARK    5  A    between atoms: O_14  and  C_15
REMARK                            x       y       z     vdW  Elec       q    Type
REMARK                         _______ _______ _______ _____ _____    ______ ____
ROOT
ATOM      1  C   UNL     1      46.359   2.288   7.668  0.00  0.00    +0.000 A 
ATOM      2  C   UNL     1      45.626   1.774   8.731  0.00  0.00    +0.000 A 
ATOM      3  C   UNL     1      44.798   2.628   9.465  0.00  0.00    +0.000 A 
ATOM      4  C   UNL     1      44.727   3.976   9.133  0.00  0.00    +0.000 A 
ATOM      5  N   UNL     1      43.890   4.871   9.759  0.00  0.00    +0.000 N 
ATOM      6  N   UNL     1      45.443   4.487   8.112  0.00  0.00    +0.000 NA
ATOM      7  C   UNL     1      46.247   3.645   7.409  0.00  0.00    +0.000 A 
ATOM      8  H   UNL     1      44.063   5.804   9.396  0.00  0.00    +0.000 HD
ENDROOT
BRANCH   1  10
ATOM      9  N   UNL     1      48.311   2.091   6.233  0.00  0.00    +0.000 N 
ATOM     10  C   UNL     1      47.249   1.464   6.828  0.00  0.00    +0.000 C 
ATOM     11  O   UNL     1      47.068   0.260   6.693  0.00  0.00    +0.000 OA
ATOM     12  H   UNL     1      48.967   1.498   5.744  0.00  0.00    +0.000 HD
ATOM     13  H   UNL     1      48.637   3.002   6.527  0.00  0.00    +0.000 HD
ENDBRANCH   1  10
BRANCH   5  14
ATOM     14  C   UNL     1      43.567   4.802  11.171  0.00  0.00    +0.000 C 
BRANCH  14  15
ATOM     15  C   UNL     1      44.752   4.857  12.112  0.00  0.00    +0.000 A 
ATOM     16  C   UNL     1      45.304   6.043  12.615  0.00  0.00    +0.000 A 
ATOM     17  C   UNL     1      46.385   6.016  13.507  0.00  0.00    +0.000 A 
ATOM     18  C   UNL     1      46.908   4.804  13.946  0.00  0.00    +0.000 A 
ATOM     19  C   UNL     1      46.400   3.618  13.416  0.00  0.00    +0.000 A 
ATOM     20  C   UNL     1      45.332   3.641  12.514  0.00  0.00    +0.000 A 
BRANCH  18  21
ATOM     21  O   UNL     1      47.930   4.641  14.831  0.00  0.00    +0.000 OA
BRANCH  21  22
ATOM     22  C   UNL     1      47.670   4.080  16.110  0.00  0.00    +0.000 C 
ATOM     23  F   UNL     1      46.404   4.246  16.550  0.00  0.00    +0.000 F 
ATOM     24  F   UNL     1      47.909   2.750  16.050  0.00  0.00    +0.000 F 
ATOM     25  F   UNL     1      48.519   4.617  17.013  0.00  0.00    +0.000 F 
ENDBRANCH  21  22
ENDBRANCH  18  21
ENDBRANCH  14  15
ENDBRANCH   5  14
TORSDOF 5
ENDMDL
MODEL 2
REMARK VINA RESULT:    -8.472      1.956      2.478
REMARK INTER + INTRA:         -11.433
REMARK INTER:                 -10.523
REMARK INTRA:                  -0.910
REMARK UNBOUND:                -0.485
REMARK  Name = 
REMARK  5 active torsions:
REMARK  status: ('A' for Active; 'I' for Inactive)
REMARK    1  A    between atoms: C_2  and  C_4
REMARK    2  A    between atoms: N_8  and  C_9
REMARK    3  A    between atoms: C_9  and  C_10
REMARK    4  A    between atoms: C_13  and  O_14
REMARK    5  A    between atoms: O_14  and  C_15
REMARK                            x       y       z     vdW  Elec       q    Type
REMARK                         _______ _______ _______ _____ _____    ______ ____
ROOT
ATOM      1  C   UNL     1      46.365   2.285   7.675  0.00  0.00    +0.000 A 
ATOM      2  C   UNL     1      45.661   1.795   8.768  0.00  0.00    +0.000 A 
ATOM      3  C   UNL     1      44.816   2.653   9.476  0.00  0.00    +0.000 A 
ATOM      4  C   UNL     1      44.698   3.984   9.088  0.00  0.00    +0.000 A 
ATOM      5  N   UNL     1      43.841   4.878   9.687  0.00  0.00    +0.000 N 
ATOM      6  N   UNL     1      45.385   4.471   8.036  0.00  0.00    +0.000 NA
ATOM      7  C   UNL     1      46.207   3.625   7.359  0.00  0.00    +0.000 A 
ATOM      8  H   UNL     1      43.980   5.800   9.281  0.00  0.00    +0.000 HD
ENDROOT
BRANCH   1  10
ATOM      9  N   UNL     1      48.351   2.073   6.289  0.00  0.00    +0.000 N 
ATOM     10  C   UNL     1      47.271   1.454   6.859  0.00  0.00    +0.000 C 
ATOM     11  O   UNL     1      47.085   0.251   6.721  0.00  0.00    +0.000 OA
ATOM     12  H   UNL     1      49.015   1.475   5.818  0.00  0.00    +0.000 HD
ATOM     13  H   UNL     1      48.675   2.982   6.590  0.00  0.00    +0.000 HD
ENDBRANCH   1  10
BRANCH   5  14
ATOM     14  C   UNL     1      43.537   4.860  11.104  0.00  0.00    +0.000 C 
BRANCH  14  15
ATOM     15  C   UNL     1      44.677   5.260  12.018  0.00  0.00    +0.000 A 
ATOM     16  C   UNL     1      45.414   4.358  12.797  0.00  0.00    +0.000 A 
ATOM     17  C   UNL     1      46.477   4.796  13.599  0.00  0.00    +0.000 A 
ATOM     18  C   UNL     1      46.850   6.137  13.607  0.00  0.00    +0.000 A 
ATOM     19  C   UNL     1      46.093   7.051  12.875  0.00  0.00    +0.000 A 
ATOM     20  C   UNL     1      45.023   6.620  12.085  0.00  0.00    +0.000 A 
BRANCH  18  21
ATOM     21  O   UNL     1      47.877   6.683  14.313  0.00  0.00    +0.000 OA
BRANCH  21  22
ATOM     22  C   UNL     1      49.041   7.129  13.631  0.00  0.00    +0.000 C 
ATOM     23  F   UNL     1      49.314   6.462  12.490  0.00  0.00    +0.000 F 
ATOM     24  F   UNL     1      48.873   8.433  13.310  0.00  0.00    +0.000 F 
ATOM     25  F   UNL     1      50.105   7.035  14.456  0.00  0.00    +0.000 F 
ENDBRANCH  21  22
ENDBRANCH  18  21
ENDBRANCH  14  15
ENDBRANCH   5  14
TORSDOF 5
ENDMDL
MODEL 3
REMARK VINA RESULT:    -8.083      4.459      7.397
REMARK INTER + INTRA:         -10.930
REMARK INTER:                 -10.460
REMARK INTRA:                  -0.469
REMARK UNBOUND:                -0.485
REMARK  Name = 
REMARK  5 active torsions:
REMARK  status: ('A' for Active; 'I' for Inactive)
REMARK    1  A    between atoms: C_2  and  C_4
REMARK    2  A    between atoms: N_8  and  C_9
REMARK    3  A    between atoms: C_9  and  C_10
REMARK    4  A    between atoms: C_13  and  O_14
REMARK    5  A    between atoms: O_14  and  C_15
REMARK                            x       y       z     vdW  Elec       q    Type
REMARK                         _______ _______ _______ _____ _____    ______ ____
ROOT
ATOM      1  C   UNL     1      47.202   5.607  13.873  0.00  0.00    +0.000 A 
ATOM      2  C   UNL     1      46.165   6.127  13.107  0.00  0.00    +0.000 A 
ATOM      3  C   UNL     1      45.177   5.266  12.624  0.00  0.00    +0.000 A 
ATOM      4  C   UNL     1      45.247   3.905  12.903  0.00  0.00    +0.000 A 
ATOM      5  N   UNL     1      44.284   2.999  12.523  0.00  0.00    +0.000 N 
ATOM      6  N   UNL     1      46.255   3.390  13.634  0.00  0.00    +0.000 NA
ATOM      7  C   UNL     1      47.212   4.239  14.095  0.00  0.00    +0.000 A 
ATOM      8  H   UNL     1      44.586   2.062  12.776  0.00  0.00    +0.000 HD
ENDROOT
BRANCH   1  10
ATOM      9  N   UNL     1      48.281   6.641  15.791  0.00  0.00    +0.000 N 
ATOM     10  C   UNL     1      48.284   6.437  14.437  0.00  0.00    +0.000 C 
ATOM     11  O   UNL     1      49.170   6.900  13.729  0.00  0.00    +0.000 OA
ATOM     12  H   UNL     1      49.079   7.126  16.174  0.00  0.00    +0.000 HD
ATOM     13  H   UNL     1      47.734   6.072  16.423  0.00  0.00    +0.000 HD
ENDBRANCH   1  10
BRANCH   5  14
ATOM     14  C   UNL     1      43.543   3.101  11.282  0.00  0.00    +0.000 C 
BRANCH  14  15
ATOM     15  C   UNL     1      44.378   3.040  10.019  0.00  0.00    +0.000 A 
ATOM     16  C   UNL     1      44.951   1.867   9.511  0.00  0.00    +0.000 A 
ATOM     17  C   UNL     1      45.688   1.880   8.319  0.00  0.00    +0.000 A 
ATOM     18  C   UNL     1      45.833   3.057   7.591  0.00  0.00    +0.000 A 
ATOM     19  C   UNL     1      45.309   4.240   8.111  0.00  0.00    +0.000 A 
ATOM     20  C   UNL     1      44.586   4.234   9.307  0.00  0.00    +0.000 A 
BRANCH  18  21
ATOM     21  O   UNL     1      46.494   3.197   6.410  0.00  0.00    +0.000 OA
BRANCH  21  22
ATOM     22  C   UNL     1      47.531   2.286   6.072  0.00  0.00    +0.000 C 
ATOM     23  F   UNL     1      47.186   0.984   6.158  0.00  0.00    +0.000 F 
ATOM     24  F   UNL     1      47.908   2.524   4.795  0.00  0.00    +0.000 F 
ATOM     25  F   UNL     1      48.597   2.508   6.871  0.00  0.00    +0.000 F 
ENDBRANCH  21  22
ENDBRANCH  18  21
ENDBRANCH  14  15
ENDBRANCH   5  14
TORSDOF 5
ENDMDL
MODEL 4
REMARK VINA RESULT:    -7.550      2.981      3.624
REMARK INTER + INTRA:         -10.242
REMARK INTER:                  -9.467
REMARK INTRA:                  -0.775
REMARK UNBOUND:                -0.485
REMARK  Name = 
REMARK  5 active torsions:
REMARK  status: ('A' for Active; 'I' for Inactive)
REMARK    1  A    between atoms: C_2  and  C_4
REMARK    2  A    between atoms: N_8  and  C_9
REMARK    3  A    between atoms: C_9  and  C_10
REMARK    4  A    between atoms: C_13  and  O_14
REMARK    5  A    between atoms: O_14  and  C_15
REMARK                            x       y       z     vdW  Elec       q    Type
REMARK                         _______ _______ _______ _____ _____    ______ ____
ROOT
ATOM      1  C   UNL     1      46.718   2.461   7.216  0.00  0.00    +0.000 A 
ATOM      2  C   UNL     1      46.391   3.686   7.785  0.00  0.00    +0.000 A 
ATOM      3  C   UNL     1      45.603   3.713   8.938  0.00  0.00    +0.000 A 
ATOM      4  C   UNL     1      45.147   2.523   9.493  0.00  0.00    +0.000 A 
ATOM      5  N   UNL     1      44.423   2.455  10.662  0.00  0.00    +0.000 N 
ATOM      6  N   UNL     1      45.448   1.330   8.942  0.00  0.00    +0.000 NA
ATOM      7  C   UNL     1      46.213   1.319   7.818  0.00  0.00    +0.000 A 
ATOM      8  H   UNL     1      44.145   1.492  10.829  0.00  0.00    +0.000 HD
ENDROOT
BRANCH   1  10
ATOM      9  N   UNL     1      47.344   3.229   4.996  0.00  0.00    +0.000 N 
ATOM     10  C   UNL     1      47.554   2.330   6.006  0.00  0.00    +0.000 C 
ATOM     11  O   UNL     1      48.423   1.472   5.920  0.00  0.00    +0.000 OA
ATOM     12  H   UNL     1      47.989   3.190   4.219  0.00  0.00    +0.000 HD
ATOM     13  H   UNL     1      46.834   4.091   5.135  0.00  0.00    +0.000 HD
ENDBRANCH   1  10
BRANCH   5  14
ATOM     14  C   UNL     1      43.457   3.461  11.056  0.00  0.00    +0.000 C 
BRANCH  14  15
ATOM     15  C   UNL     1      44.040   4.717  11.671  0.00  0.00    +0.000 A 
ATOM     16  C   UNL     1      44.945   4.723  12.741  0.00  0.00    +0.000 A 
ATOM     17  C   UNL     1      45.468   5.924  13.240  0.00  0.00    +0.000 A 
ATOM     18  C   UNL     1      45.128   7.140  12.653  0.00  0.00    +0.000 A 
ATOM     19  C   UNL     1      44.191   7.151  11.620  0.00  0.00    +0.000 A 
ATOM     20  C   UNL     1      43.656   5.956  11.129  0.00  0.00    +0.000 A 
BRANCH  18  21
ATOM     21  O   UNL     1      45.587   8.366  13.020  0.00  0.00    +0.000 OA
BRANCH  21  22
ATOM     22  C   UNL     1      46.850   8.816  12.545  0.00  0.00    +0.000 C 
ATOM     23  F   UNL     1      47.487   7.946  11.734  0.00  0.00    +0.000 F 
ATOM     24  F   UNL     1      46.660   9.959  11.848  0.00  0.00    +0.000 F 
ATOM     25  F   UNL     1      47.647   9.096  13.598  0.00  0.00    +0.000 F 
ENDBRANCH  21  22
ENDBRANCH  18  21
ENDBRANCH  14  15
ENDBRANCH   5  14
TORSDOF 5
ENDMDL
MODEL 5
REMARK VINA RESULT:    -7.090      4.954      8.198
REMARK INTER + INTRA:          -9.647
REMARK INTER:                  -9.135
REMARK INTRA:                  -0.512
REMARK UNBOUND:                -0.485
REMARK  Name = 
REMARK  5 active torsions:
REMARK  status: ('A' for Active; 'I' for Inactive)
REMARK    1  A    between atoms: C_2  and  C_4
REMARK    2  A    between atoms: N_8  and  C_9
REMARK    3  A    between atoms: C_9  and  C_10
REMARK    4  A    between atoms: C_13  and  O_14
REMARK    5  A    between atoms: O_14  and  C_15
REMARK                            x       y       z     vdW  Elec       q    Type
REMARK                         _______ _______ _______ _____ _____    ______ ____
ROOT
ATOM      1  C   UNL     1      48.640   4.439  17.595  0.00  0.00    +0.000 A 
ATOM      2  C   UNL     1      47.650   3.616  17.070  0.00  0.00    +0.000 A 
ATOM      3  C   UNL     1      47.072   3.944  15.841  0.00  0.00    +0.000 A 
ATOM      4  C   UNL     1      47.483   5.089  15.166  0.00  0.00    +0.000 A 
ATOM      5  N   UNL     1      47.014   5.449  13.924  0.00  0.00    +0.000 N 
ATOM      6  N   UNL     1      48.433   5.899  15.673  0.00  0.00    +0.000 NA
ATOM      7  C   UNL     1      48.984   5.569  16.871  0.00  0.00    +0.000 A 
ATOM      8  H   UNL     1      47.404   6.352  13.667  0.00  0.00    +0.000 HD
ENDROOT
BRANCH   1  10
ATOM      9  N   UNL     1      50.654   3.875  18.835  0.00  0.00    +0.000 N 
ATOM     10  C   UNL     1      49.317   4.170  18.878  0.00  0.00    +0.000 C 
ATOM     11  O   UNL     1      48.718   4.238  19.944  0.00  0.00    +0.000 OA
ATOM     12  H   UNL     1      51.124   3.792  19.725  0.00  0.00    +0.000 HD
ATOM     13  H   UNL     1      51.225   4.066  18.022  0.00  0.00    +0.000 HD
ENDBRANCH   1  10
BRANCH   5  14
ATOM     14  C   UNL     1      45.653   5.211  13.488  0.00  0.00    +0.000 C 
BRANCH  14  15
ATOM     15  C   UNL     1      45.486   4.907  12.013  0.00  0.00    +0.000 A 
ATOM     16  C   UNL     1      45.771   5.816  10.986  0.00  0.00    +0.000 A 
ATOM     17  C   UNL     1      45.621   5.456   9.639  0.00  0.00    +0.000 A 
ATOM     18  C   UNL     1      45.222   4.168   9.293  0.00  0.00    +0.000 A 
ATOM     19  C   UNL     1      44.887   3.271  10.307  0.00  0.00    +0.000 A 
ATOM     20  C   UNL     1      45.022   3.631  11.651  0.00  0.00    +0.000 A 
BRANCH  18  21
ATOM     21  O   UNL     1      45.069   3.685   8.030  0.00  0.00    +0.000 OA
BRANCH  21  22
ATOM     22  C   UNL     1      46.201   3.202   7.320  0.00  0.00    +0.000 C 
ATOM     23  F   UNL     1      45.972   2.924   6.019  0.00  0.00    +0.000 F 
ATOM     24  F   UNL     1      47.170   4.145   7.370  0.00  0.00    +0.000 F 
ATOM     25  F   UNL     1      46.668   2.091   7.928  0.00  0.00    +0.000 F 
ENDBRANCH  21  22
ENDBRANCH  18  21
ENDBRANCH  14  15
ENDBRANCH   5  14
TORSDOF 5
ENDMDL
MODEL 6
REMARK VINA RESULT:    -7.057      4.776      7.447
REMARK INTER + INTRA:          -9.604
REMARK INTER:                  -8.995
REMARK INTRA:                  -0.609
REMARK UNBOUND:                -0.485
REMARK  Name = 
REMARK  5 active torsions:
REMARK  status: ('A' for Active; 'I' for Inactive)
REMARK    1  A    between atoms: C_2  and  C_4
REMARK    2  A    between atoms: N_8  and  C_9
REMARK    3  A    between atoms: C_9  and  C_10
REMARK    4  A    between atoms: C_13  and  O_14
REMARK    5  A    between atoms: O_14  and  C_15
REMARK                            x       y       z     vdW  Elec       q    Type
REMARK                         _______ _______ _______ _____ _____    ______ ____
ROOT
ATOM      1  C   UNL     1      48.621   8.076  12.460  0.00  0.00    +0.000 A 
ATOM      2  C   UNL     1      47.300   8.328  12.107  0.00  0.00    +0.000 A 
ATOM      3  C   UNL     1      46.355   7.307  12.228  0.00  0.00    +0.000 A 
ATOM      4  C   UNL     1      46.745   6.053  12.685  0.00  0.00    +0.000 A 
ATOM      5  N   UNL     1      45.869   5.013  12.896  0.00  0.00    +0.000 N 
ATOM      6  N   UNL     1      48.025   5.794  13.018  0.00  0.00    +0.000 NA
ATOM      7  C   UNL     1      48.935   6.797  12.892  0.00  0.00    +0.000 A 
ATOM      8  H   UNL     1      46.391   4.183  13.162  0.00  0.00    +0.000 HD
ENDROOT
BRANCH   1  10
ATOM      9  N   UNL     1      49.366  10.298  11.814  0.00  0.00    +0.000 N 
ATOM     10  C   UNL     1      49.687   9.092  12.379  0.00  0.00    +0.000 C 
ATOM     11  O   UNL     1      50.807   8.882  12.828  0.00  0.00    +0.000 OA
ATOM     12  H   UNL     1      50.075  11.016  11.856  0.00  0.00    +0.000 HD
ATOM     13  H   UNL     1      48.409  10.594  11.678  0.00  0.00    +0.000 HD
ENDBRANCH   1  10
BRANCH   5  14
ATOM     14  C   UNL     1      44.703   4.777  12.069  0.00  0.00    +0.000 C 
BRANCH  14  15
ATOM     15  C   UNL     1      44.987   4.228  10.685  0.00  0.00    +0.000 A 
ATOM     16  C   UNL     1      44.759   2.899  10.305  0.00  0.00    +0.000 A 
ATOM     17  C   UNL     1      45.019   2.467   8.997  0.00  0.00    +0.000 A 
ATOM     18  C   UNL     1      45.472   3.364   8.033  0.00  0.00    +0.000 A 
ATOM     19  C   UNL     1      45.748   4.677   8.413  0.00  0.00    +0.000 A 
ATOM     20  C   UNL     1      45.505   5.108   9.720  0.00  0.00    +0.000 A 
BRANCH  18  21
ATOM     21  O   UNL     1      45.730   3.080   6.728  0.00  0.00    +0.000 OA
BRANCH  21  22
ATOM     22  C   UNL     1      46.934   2.411   6.378  0.00  0.00    +0.000 C 
ATOM     23  F   UNL     1      46.881   1.067   6.483  0.00  0.00    +0.000 F 
ATOM     24  F   UNL     1      47.228   2.708   5.091  0.00  0.00    +0.000 F 
ATOM     25  F   UNL     1      47.940   2.870   7.153  0.00  0.00    +0.000 F 
ENDBRANCH  21  22
ENDBRANCH  18  21
ENDBRANCH  14  15
ENDBRANCH   5  14
TORSDOF 5
ENDMDL
MODEL 7
REMARK VINA RESULT:    -6.951      4.520      7.569
REMARK INTER + INTRA:          -9.468
REMARK INTER:                  -9.145
REMARK INTRA:                  -0.323
REMARK UNBOUND:                -0.485
REMARK  Name = 
REMARK  5 active torsions:
REMARK  status: ('A' for Active; 'I' for Inactive)
REMARK    1  A    between atoms: C_2  and  C_4
REMARK    2  A    between atoms: N_8  and  C_9
REMARK    3  A    between atoms: C_9  and  C_10
REMARK    4  A    between atoms: C_13  and  O_14
REMARK    5  A    between atoms: O_14  and  C_15
REMARK                            x       y       z     vdW  Elec       q    Type
REMARK                         _______ _______ _______ _____ _____    ______ ____
ROOT
ATOM      1  C   UNL     1      47.263   7.885  13.448  0.00  0.00    +0.000 A 
ATOM      2  C   UNL     1      47.411   6.616  12.900  0.00  0.00    +0.000 A 
ATOM      3  C   UNL     1      46.380   6.085  12.121  0.00  0.00    +0.000 A 
ATOM      4  C   UNL     1      45.219   6.822  11.913  0.00  0.00    +0.000 A 
ATOM      5  N   UNL     1      44.186   6.403  11.107  0.00  0.00    +0.000 N 
ATOM      6  N   UNL     1      45.061   8.049  12.450  0.00  0.00    +0.000 NA
ATOM      7  C   UNL     1      46.071   8.551  13.209  0.00  0.00    +0.000 A 
ATOM      8  H   UNL     1      43.422   7.072  11.166  0.00  0.00    +0.000 HD
ENDROOT
BRANCH   1  10
ATOM      9  N   UNL     1      47.929   9.638  14.995  0.00  0.00    +0.000 N 
ATOM     10  C   UNL     1      48.299   8.535  14.273  0.00  0.00    +0.000 C 
ATOM     11  O   UNL     1      49.438   8.088  14.338  0.00  0.00    +0.000 OA
ATOM     12  H   UNL     1      48.620  10.012  15.630  0.00  0.00    +0.000 HD
ATOM     13  H   UNL     1      46.961   9.872  15.170  0.00  0.00    +0.000 HD
ENDBRANCH   1  10
BRANCH   5  14
ATOM     14  C   UNL     1      43.790   5.015  10.981  0.00  0.00    +0.000 C 
BRANCH  14  15
ATOM     15  C   UNL     1      44.511   4.230   9.904  0.00  0.00    +0.000 A 
ATOM     16  C   UNL     1      45.312   4.809   8.910  0.00  0.00    +0.000 A 
ATOM     17  C   UNL     1      45.974   4.017   7.962  0.00  0.00    +0.000 A 
ATOM     18  C   UNL     1      45.881   2.629   8.013  0.00  0.00    +0.000 A 
ATOM     19  C   UNL     1      45.047   2.043   8.966  0.00  0.00    +0.000 A 
ATOM     20  C   UNL     1      44.374   2.831   9.904  0.00  0.00    +0.000 A 
BRANCH  18  21
ATOM     21  O   UNL     1      46.496   1.750   7.176  0.00  0.00    +0.000 OA
BRANCH  21  22
ATOM     22  C   UNL     1      47.443   2.225   6.229  0.00  0.00    +0.000 C 
ATOM     23  F   UNL     1      46.932   3.047   5.288  0.00  0.00    +0.000 F 
ATOM     24  F   UNL     1      48.402   2.911   6.892  0.00  0.00    +0.000 F 
ATOM     25  F   UNL     1      48.028   1.173   5.617  0.00  0.00    +0.000 F 
ENDBRANCH  21  22
ENDBRANCH  18  21
ENDBRANCH  14  15
ENDBRANCH   5  14
TORSDOF 5
ENDMDL
MODEL 8
REMARK VINA RESULT:    -6.785      5.022      8.168
REMARK INTER + INTRA:          -9.253
REMARK INTER:                  -8.682
REMARK INTRA:                  -0.571
REMARK UNBOUND:                -0.485
REMARK  Name = 
REMARK  5 active torsions:
REMARK  status: ('A' for Active; 'I' for Inactive)
REMARK    1  A    between atoms: C_2  and  C_4
REMARK    2  A    between atoms: N_8  and  C_9
REMARK    3  A    between atoms: C_9  and  C_10
REMARK    4  A    between atoms: C_13  and  O_14
REMARK    5  A    between atoms: O_14  and  C_15
REMARK                            x       y       z     vdW  Elec       q    Type
REMARK                         _______ _______ _______ _____ _____    ______ ____
ROOT
ATOM      1  C   UNL     1      49.666   3.917  17.387  0.00  0.00    +0.000 A 
ATOM      2  C   UNL     1      49.251   5.201  17.054  0.00  0.00    +0.000 A 
ATOM      3  C   UNL     1      48.135   5.364  16.229  0.00  0.00    +0.000 A 
ATOM      4  C   UNL     1      47.464   4.248  15.743  0.00  0.00    +0.000 A 
ATOM      5  N   UNL     1      46.320   4.319  14.981  0.00  0.00    +0.000 N 
ATOM      6  N   UNL     1      47.866   2.998  16.050  0.00  0.00    +0.000 NA
ATOM      7  C   UNL     1      48.955   2.854  16.851  0.00  0.00    +0.000 A 
ATOM      8  H   UNL     1      46.054   3.383  14.688  0.00  0.00    +0.000 HD
ENDROOT
BRANCH   1  10
ATOM      9  N   UNL     1      51.465   2.445  18.098  0.00  0.00    +0.000 N 
ATOM     10  C   UNL     1      50.823   3.643  18.260  0.00  0.00    +0.000 C 
ATOM     11  O   UNL     1      51.218   4.467  19.076  0.00  0.00    +0.000 OA
ATOM     12  H   UNL     1      52.313   2.313  18.631  0.00  0.00    +0.000 HD
ATOM     13  H   UNL     1      51.336   1.868  17.277  0.00  0.00    +0.000 HD
ENDBRANCH   1  10
BRANCH   5  14
ATOM     14  C   UNL     1      46.075   5.369  14.013  0.00  0.00    +0.000 C 
BRANCH  14  15
ATOM     15  C   UNL     1      45.780   4.897  12.603  0.00  0.00    +0.000 A 
ATOM     16  C   UNL     1      45.352   3.602  12.280  0.00  0.00    +0.000 A 
ATOM     17  C   UNL     1      45.069   3.244  10.955  0.00  0.00    +0.000 A 
ATOM     18  C   UNL     1      45.169   4.183   9.933  0.00  0.00    +0.000 A 
ATOM     19  C   UNL     1      45.641   5.461  10.235  0.00  0.00    +0.000 A 
ATOM     20  C   UNL     1      45.938   5.817  11.553  0.00  0.00    +0.000 A 
BRANCH  18  21
ATOM     21  O   UNL     1      44.894   3.973   8.617  0.00  0.00    +0.000 OA
BRANCH  21  22
ATOM     22  C   UNL     1      45.897   3.437   7.765  0.00  0.00    +0.000 C 
ATOM     23  F   UNL     1      46.450   2.286   8.203  0.00  0.00    +0.000 F 
ATOM     24  F   UNL     1      45.342   3.188   6.557  0.00  0.00    +0.000 F 
ATOM     25  F   UNL     1      46.875   4.353   7.596  0.00  0.00    +0.000 F 
ENDBRANCH  21  22
ENDBRANCH  18  21
ENDBRANCH  14  15
ENDBRANCH   5  14
TORSDOF 5
ENDMDL
MODEL 9
REMARK VINA RESULT:    -6.096      5.528      7.237
REMARK INTER + INTRA:          -8.363
REMARK INTER:                  -7.562
REMARK INTRA:                  -0.801
REMARK UNBOUND:                -0.485
REMARK  Name = 
REMARK  5 active torsions:
REMARK  status: ('A' for Active; 'I' for Inactive)
REMARK    1  A    between atoms: C_2  and  C_4
REMARK    2  A    between atoms: N_8  and  C_9
REMARK    3  A    between atoms: C_9  and  C_10
REMARK    4  A    between atoms: C_13  and  O_14
REMARK    5  A    between atoms: O_14  and  C_15
REMARK                            x       y       z     vdW  Elec       q    Type
REMARK                         _______ _______ _______ _____ _____    ______ ____
ROOT
ATOM      1  C   UNL     1      50.922   9.295  11.172  0.00  0.00    +0.000 A 
ATOM      2  C   UNL     1      50.674   7.939  11.348  0.00  0.00    +0.000 A 
ATOM      3  C   UNL     1      49.398   7.525  11.738  0.00  0.00    +0.000 A 
ATOM      4  C   UNL     1      48.400   8.469  11.956  0.00  0.00    +0.000 A 
ATOM      5  N   UNL     1      47.102   8.144  12.277  0.00  0.00    +0.000 N 
ATOM      6  N   UNL     1      48.634   9.787  11.799  0.00  0.00    +0.000 NA
ATOM      7  C   UNL     1      49.882  10.176  11.422  0.00  0.00    +0.000 A 
ATOM      8  H   UNL     1      46.577   8.996  12.454  0.00  0.00    +0.000 HD
ENDROOT
BRANCH   1  10
ATOM      9  N   UNL     1      52.896  10.638  11.632  0.00  0.00    +0.000 N 
ATOM     10  C   UNL     1      52.232   9.828  10.750  0.00  0.00    +0.000 C 
ATOM     11  O   UNL     1      52.724   9.533   9.668  0.00  0.00    +0.000 OA
ATOM     12  H   UNL     1      53.832  10.913  11.372  0.00  0.00    +0.000 HD
ATOM     13  H   UNL     1      52.651  10.687  12.612  0.00  0.00    +0.000 HD
ENDBRANCH   1  10
BRANCH   5  14
ATOM     14  C   UNL     1      46.749   7.010  13.108  0.00  0.00    +0.000 C 
BRANCH  14  15
ATOM     15  C   UNL     1      46.088   5.855  12.384  0.00  0.00    +0.000 A 
ATOM     16  C   UNL     1      45.911   4.579  12.935  0.00  0.00    +0.000 A 
ATOM     17  C   UNL     1      45.262   3.565  12.217  0.00  0.00    +0.000 A 
ATOM     18  C   UNL     1      44.742   3.818  10.951  0.00  0.00    +0.000 A 
ATOM     19  C   UNL     1      44.955   5.069  10.372  0.00  0.00    +0.000 A 
ATOM     20  C   UNL     1      45.614   6.078  11.079  0.00  0.00    +0.000 A 
BRANCH  18  21
ATOM     21  O   UNL     1      44.067   2.935  10.167  0.00  0.00    +0.000 OA
BRANCH  21  22
ATOM     22  C   UNL     1      44.734   2.304   9.081  0.00  0.00    +0.000 C 
ATOM     23  F   UNL     1      46.078   2.255   9.200  0.00  0.00    +0.000 F 
ATOM     24  F   UNL     1      44.286   1.031   8.987  0.00  0.00    +0.000 F 
ATOM     25  F   UNL     1      44.421   2.944   7.934  0.00  0.00    +0.000 F 
ENDBRANCH  21  22
ENDBRANCH  18  21
ENDBRANCH  14  15
ENDBRANCH   5  14
TORSDOF 5
ENDMDL
