MODEL 1
REMARK VINA RESULT:    -8.667      0.000      0.000
REMARK INTER + INTRA:         -11.937
REMARK INTER:                 -11.201
REMARK INTRA:                  -0.736
REMARK UNBOUND:                -0.736
REMARK  Name = 
REMARK  5 active torsions:
REMARK  status: ('A' for Active; 'I' for Inactive)
REMARK    1  A    between atoms: C_2  and  C_4
REMARK    2  A    between atoms: C_7  and  N_8
REMARK    3  A    between atoms: N_8  and  C_9
REMARK    4  A    between atoms: C_9  and  C_10
REMARK    5  A    between atoms: C_15  and  C_16
REMARK                            x       y       z     vdW  Elec       q    Type
REMARK                         _______ _______ _______ _____ _____    ______ ____
ROOT
ATOM      1  C   UNL     1      43.583   4.628  11.101  0.00  0.00    +0.000 C 
ENDROOT
BRANCH   1   2
ATOM      2  C   UNL     1      44.820   4.998  11.897  0.00  0.00    +0.000 A 
ATOM      3  C   UNL     1      45.340   4.125  12.860  0.00  0.00    +0.000 A 
ATOM      4  C   UNL     1      46.465   4.489  13.595  0.00  0.00    +0.000 A 
ATOM      5  C   UNL     1      47.078   5.724  13.376  0.00  0.00    +0.000 A 
ATOM      6  F   UNL     1      48.145   6.027  14.133  0.00  0.00    +0.000 F 
ATOM      7  C   UNL     1      46.603   6.633  12.414  0.00  0.00    +0.000 A 
ATOM      8  C   UNL     1      45.458   6.240  11.689  0.00  0.00    +0.000 A 
BRANCH   7   9
ATOM      9  C   UNL     1      47.267   7.932  12.156  0.00  0.00    +0.000 A 
ATOM     10  C   UNL     1      48.601   8.021  11.723  0.00  0.00    +0.000 A 
ATOM     11  C   UNL     1      49.205   9.261  11.512  0.00  0.00    +0.000 A 
ATOM     12  C   UNL     1      48.457  10.402  11.732  0.00  0.00    +0.000 A 
ATOM     13  N   UNL     1      47.175  10.381  12.144  0.00  0.00    +0.000 NA
ATOM     14  C   UNL     1      46.620   9.158  12.343  0.00  0.00    +0.000 A 
ENDBRANCH   7   9
ENDBRANCH   1   2
BRANCH   1  15
ATOM     15  N   UNL     1      43.829   4.898   9.688  0.00  0.00    +0.000 N 
ATOM     16  H   UNL     1      44.191   5.837   9.545  0.00  0.00    +0.000 HD
BRANCH  15  20
ATOM     17  C   UNL     1      46.210   2.041   7.926  0.00  0.00    +0.000 A 
ATOM     18  C   UNL     1      46.342   3.377   7.583  0.00  0.00    +0.000 A 
ATOM     19  N   UNL     1      45.566   4.356   8.129  0.00  0.00    +0.000 NA
ATOM     20  C   UNL     1      44.641   3.961   9.032  0.00  0.00    +0.000 A 
ATOM     21  C   UNL     1      44.526   2.601   9.362  0.00  0.00    +0.000 A 
ATOM     22  N   UNL     1      45.286   1.610   8.827  0.00  0.00    +0.000 NA
BRANCH  17  24
ATOM     23  N   UNL     1      46.856  -0.280   7.658  0.00  0.00    +0.000 N 
ATOM     24  C   UNL     1      47.109   1.022   7.314  0.00  0.00    +0.000 C 
ATOM     25  O   UNL     1      48.019   1.325   6.553  0.00  0.00    +0.000 OA
ATOM     26  H   UNL     1      47.435  -1.016   7.281  0.00  0.00    +0.000 HD
ATOM     27  H   UNL     1      46.092  -0.501   8.287  0.00  0.00    +0.000 HD
ENDBRANCH  17  24
ENDBRANCH  15  20
ENDBRANCH   1  15
TORSDOF 5
ENDMDL
MODEL 2
REMARK VINA RESULT:    -8.308      2.264      3.889
REMARK INTER + INTRA:         -11.472
REMARK INTER:                 -10.741
REMARK INTRA:                  -0.731
REMARK UNBOUND:                -0.736
REMARK  Name = 
REMARK  5 active torsions:
REMARK  status: ('A' for Active; 'I' for Inactive)
REMARK    1  A    between atoms: C_2  and  C_4
REMARK    2  A    between atoms: C_7  and  N_8
REMARK    3  A    between atoms: N_8  and  C_9
REMARK    4  A    between atoms: C_9  and  C_10
REMARK    5  A    between atoms: C_15  and  C_16
REMARK                            x       y       z     vdW  Elec       q    Type
REMARK                         _______ _______ _______ _____ _____    ______ ____
ROOT
ATOM      1  C   UNL     1      43.697   4.419  11.269  0.00  0.00    +0.000 C 
ENDROOT
BRANCH   1   2
ATOM      2  C   UNL     1      44.846   5.074  12.013  0.00  0.00    +0.000 A 
ATOM      3  C   UNL     1      45.337   6.322  11.616  0.00  0.00    +0.000 A 
ATOM      4  C   UNL     1      46.404   6.900  12.300  0.00  0.00    +0.000 A 
ATOM      5  C   UNL     1      46.989   6.236  13.380  0.00  0.00    +0.000 A 
ATOM      6  F   UNL     1      48.029   6.834  13.982  0.00  0.00    +0.000 F 
ATOM      7  C   UNL     1      46.527   4.985  13.825  0.00  0.00    +0.000 A 
ATOM      8  C   UNL     1      45.449   4.422  13.110  0.00  0.00    +0.000 A 
BRANCH   7   9
ATOM      9  C   UNL     1      47.122   4.290  14.990  0.00  0.00    +0.000 A 
ATOM     10  C   UNL     1      47.050   4.809  16.293  0.00  0.00    +0.000 A 
ATOM     11  C   UNL     1      47.643   4.142  17.365  0.00  0.00    +0.000 A 
ATOM     12  C   UNL     1      48.299   2.951  17.117  0.00  0.00    +0.000 A 
ATOM     13  N   UNL     1      48.399   2.402  15.892  0.00  0.00    +0.000 NA
ATOM     14  C   UNL     1      47.814   3.080  14.870  0.00  0.00    +0.000 A 
ENDBRANCH   7   9
ENDBRANCH   1   2
BRANCH   1  15
ATOM     15  N   UNL     1      43.787   4.765   9.855  0.00  0.00    +0.000 N 
ATOM     16  H   UNL     1      44.022   5.745   9.725  0.00  0.00    +0.000 HD
BRANCH  15  20
ATOM     17  C   UNL     1      46.322   2.277   7.776  0.00  0.00    +0.000 A 
ATOM     18  C   UNL     1      46.287   3.635   7.503  0.00  0.00    +0.000 A 
ATOM     19  N   UNL     1      45.454   4.495   8.155  0.00  0.00    +0.000 NA
ATOM     20  C   UNL     1      44.643   3.957   9.093  0.00  0.00    +0.000 A 
ATOM     21  C   UNL     1      44.696   2.578   9.350  0.00  0.00    +0.000 A 
ATOM     22  N   UNL     1      45.516   1.703   8.710  0.00  0.00    +0.000 NA
BRANCH  17  24
ATOM     23  N   UNL     1      48.418   1.998   6.594  0.00  0.00    +0.000 N 
ATOM     24  C   UNL     1      47.276   1.394   7.048  0.00  0.00    +0.000 C 
ATOM     25  O   UNL     1      47.056   0.204   6.864  0.00  0.00    +0.000 OA
ATOM     26  H   UNL     1      49.101   1.454   6.086  0.00  0.00    +0.000 HD
ATOM     27  H   UNL     1      48.576   2.985   6.765  0.00  0.00    +0.000 HD
ENDBRANCH  17  24
ENDBRANCH  15  20
ENDBRANCH   1  15
TORSDOF 5
ENDMDL
MODEL 3
REMARK VINA RESULT:    -7.859      1.926      2.571
REMARK INTER + INTRA:         -10.893
REMARK INTER:                 -10.205
REMARK INTRA:                  -0.688
REMARK UNBOUND:                -0.736
REMARK  Name = 
REMARK  5 active torsions:
REMARK  status: ('A' for Active; 'I' for Inactive)
REMARK    1  A    between atoms: C_2  and  C_4
REMARK    2  A    between atoms: C_7  and  N_8
REMARK    3  A    between atoms: N_8  and  C_9
REMARK    4  A    between atoms: C_9  and  C_10
REMARK    5  A    between atoms: C_15  and  C_16
REMARK                            x       y       z     vdW  Elec       q    Type
REMARK                         _______ _______ _______ _____ _____    ______ ____
ROOT
ATOM      1  C   UNL     1      44.296   3.686  11.610  0.00  0.00    +0.000 C 
ENDROOT
BRANCH   1   2
ATOM      2  C   UNL     1      44.711   5.142  11.707  0.00  0.00    +0.000 A 
ATOM      3  C   UNL     1      43.818   6.166  11.372  0.00  0.00    +0.000 A 
ATOM      4  C   UNL     1      44.222   7.496  11.450  0.00  0.00    +0.000 A 
ATOM      5  C   UNL     1      45.519   7.813  11.859  0.00  0.00    +0.000 A 
ATOM      6  F   UNL     1      45.855   9.112  11.890  0.00  0.00    +0.000 F 
ATOM      7  C   UNL     1      46.452   6.824  12.216  0.00  0.00    +0.000 A 
ATOM      8  C   UNL     1      46.015   5.485  12.122  0.00  0.00    +0.000 A 
BRANCH   7   9
ATOM      9  C   UNL     1      47.819   7.156  12.681  0.00  0.00    +0.000 A 
ATOM     10  C   UNL     1      48.743   7.838  11.872  0.00  0.00    +0.000 A 
ATOM     11  C   UNL     1      50.031   8.113  12.331  0.00  0.00    +0.000 A 
ATOM     12  C   UNL     1      50.376   7.706  13.606  0.00  0.00    +0.000 A 
ATOM     13  N   UNL     1      49.534   7.051  14.428  0.00  0.00    +0.000 NA
ATOM     14  C   UNL     1      48.289   6.796  13.948  0.00  0.00    +0.000 A 
ENDBRANCH   7   9
ENDBRANCH   1   2
BRANCH   1  15
ATOM     15  N   UNL     1      43.794   3.423  10.266  0.00  0.00    +0.000 N 
ATOM     16  H   UNL     1      43.207   4.181   9.932  0.00  0.00    +0.000 HD
BRANCH  15  20
ATOM     17  C   UNL     1      46.587   2.647   7.344  0.00  0.00    +0.000 A 
ATOM     18  C   UNL     1      46.158   1.640   8.193  0.00  0.00    +0.000 A 
ATOM     19  N   UNL     1      45.246   1.853   9.184  0.00  0.00    +0.000 NA
ATOM     20  C   UNL     1      44.774   3.112   9.311  0.00  0.00    +0.000 A 
ATOM     21  C   UNL     1      45.225   4.116   8.439  0.00  0.00    +0.000 A 
ATOM     22  N   UNL     1      46.135   3.926   7.448  0.00  0.00    +0.000 NA
BRANCH  17  24
ATOM     23  N   UNL     1      47.492   3.142   5.151  0.00  0.00    +0.000 N 
ATOM     24  C   UNL     1      47.565   2.343   6.261  0.00  0.00    +0.000 C 
ATOM     25  O   UNL     1      48.382   1.437   6.354  0.00  0.00    +0.000 OA
ATOM     26  H   UNL     1      48.123   2.981   4.380  0.00  0.00    +0.000 HD
ATOM     27  H   UNL     1      46.806   3.888   5.104  0.00  0.00    +0.000 HD
ENDBRANCH  17  24
ENDBRANCH  15  20
ENDBRANCH   1  15
TORSDOF 5
ENDMDL
MODEL 4
REMARK VINA RESULT:    -7.710      3.791      7.165
REMARK INTER + INTRA:         -10.700
REMARK INTER:                 -10.684
REMARK INTRA:                  -0.016
REMARK UNBOUND:                -0.736
REMARK  Name = 
REMARK  5 active torsions:
REMARK  status: ('A' for Active; 'I' for Inactive)
REMARK    1  A    between atoms: C_2  and  C_4
REMARK    2  A    between atoms: C_7  and  N_8
REMARK    3  A    between atoms: N_8  and  C_9
REMARK    4  A    between atoms: C_9  and  C_10
REMARK    5  A    between atoms: C_15  and  C_16
REMARK                            x       y       z     vdW  Elec       q    Type
REMARK                         _______ _______ _______ _____ _____    ______ ____
ROOT
ATOM      1  C   UNL     1      45.087   6.416  11.046  0.00  0.00    +0.000 C 
ENDROOT
BRANCH   1   2
ATOM      2  C   UNL     1      44.884   5.021  10.485  0.00  0.00    +0.000 A 
ATOM      3  C   UNL     1      43.954   4.146  11.056  0.00  0.00    +0.000 A 
ATOM      4  C   UNL     1      43.794   2.864  10.539  0.00  0.00    +0.000 A 
ATOM      5  C   UNL     1      44.561   2.445   9.450  0.00  0.00    +0.000 A 
ATOM      6  F   UNL     1      44.378   1.189   9.012  0.00  0.00    +0.000 F 
ATOM      7  C   UNL     1      45.502   3.287   8.832  0.00  0.00    +0.000 A 
ATOM      8  C   UNL     1      45.647   4.578   9.382  0.00  0.00    +0.000 A 
BRANCH   7   9
ATOM      9  C   UNL     1      46.297   2.859   7.657  0.00  0.00    +0.000 A 
ATOM     10  C   UNL     1      46.310   3.583   6.454  0.00  0.00    +0.000 A 
ATOM     11  C   UNL     1      47.050   3.140   5.358  0.00  0.00    +0.000 A 
ATOM     12  C   UNL     1      47.778   1.972   5.485  0.00  0.00    +0.000 A 
ATOM     13  N   UNL     1      47.807   1.236   6.612  0.00  0.00    +0.000 NA
ATOM     14  C   UNL     1      47.073   1.695   7.659  0.00  0.00    +0.000 A 
ENDBRANCH   7   9
ENDBRANCH   1   2
BRANCH   1  15
ATOM     15  N   UNL     1      46.475   6.559  11.474  0.00  0.00    +0.000 N 
ATOM     16  H   UNL     1      46.776   7.529  11.445  0.00  0.00    +0.000 HD
BRANCH  15  20
ATOM     17  C   UNL     1      47.558   4.926  15.093  0.00  0.00    +0.000 A 
ATOM     18  C   UNL     1      46.404   4.509  14.449  0.00  0.00    +0.000 A 
ATOM     19  N   UNL     1      45.998   5.031  13.257  0.00  0.00    +0.000 NA
ATOM     20  C   UNL     1      46.778   5.995  12.722  0.00  0.00    +0.000 A 
ATOM     21  C   UNL     1      47.942   6.402  13.395  0.00  0.00    +0.000 A 
ATOM     22  N   UNL     1      48.362   5.897  14.585  0.00  0.00    +0.000 NA
BRANCH  17  24
ATOM     23  N   UNL     1      47.014   3.512  16.985  0.00  0.00    +0.000 N 
ATOM     24  C   UNL     1      47.962   4.295  16.381  0.00  0.00    +0.000 C 
ATOM     25  O   UNL     1      49.070   4.463  16.873  0.00  0.00    +0.000 OA
ATOM     26  H   UNL     1      47.226   3.063  17.865  0.00  0.00    +0.000 HD
ATOM     27  H   UNL     1      46.105   3.387  16.552  0.00  0.00    +0.000 HD
ENDBRANCH  17  24
ENDBRANCH  15  20
ENDBRANCH   1  15
TORSDOF 5
ENDMDL
MODEL 5
REMARK VINA RESULT:    -6.970      1.934      2.647
REMARK INTER + INTRA:          -9.743
REMARK INTER:                  -9.013
REMARK INTRA:                  -0.729
REMARK UNBOUND:                -0.736
REMARK  Name = 
REMARK  5 active torsions:
REMARK  status: ('A' for Active; 'I' for Inactive)
REMARK    1  A    between atoms: C_2  and  C_4
REMARK    2  A    between atoms: C_7  and  N_8
REMARK    3  A    between atoms: N_8  and  C_9
REMARK    4  A    between atoms: C_9  and  C_10
REMARK    5  A    between atoms: C_15  and  C_16
REMARK                            x       y       z     vdW  Elec       q    Type
REMARK                         _______ _______ _______ _____ _____    ______ ____
ROOT
ATOM      1  C   UNL     1      45.047   5.277  11.606  0.00  0.00    +0.000 C 
ENDROOT
BRANCH   1   2
ATOM      2  C   UNL     1      45.639   6.657  11.823  0.00  0.00    +0.000 A 
ATOM      3  C   UNL     1      44.821   7.792  11.852  0.00  0.00    +0.000 A 
ATOM      4  C   UNL     1      45.384   9.052  12.035  0.00  0.00    +0.000 A 
ATOM      5  C   UNL     1      46.765   9.189  12.186  0.00  0.00    +0.000 A 
ATOM      6  F   UNL     1      47.250  10.433  12.334  0.00  0.00    +0.000 F 
ATOM      7  C   UNL     1      47.631   8.081  12.174  0.00  0.00    +0.000 A 
ATOM      8  C   UNL     1      47.033   6.818  11.982  0.00  0.00    +0.000 A 
BRANCH   7   9
ATOM      9  C   UNL     1      49.094   8.218  12.366  0.00  0.00    +0.000 A 
ATOM     10  C   UNL     1      49.964   8.535  11.310  0.00  0.00    +0.000 A 
ATOM     11  C   UNL     1      51.340   8.631  11.519  0.00  0.00    +0.000 A 
ATOM     12  C   UNL     1      51.828   8.415  12.793  0.00  0.00    +0.000 A 
ATOM     13  N   UNL     1      51.045   8.110  13.845  0.00  0.00    +0.000 NA
ATOM     14  C   UNL     1      49.711   8.021  13.606  0.00  0.00    +0.000 A 
ENDBRANCH   7   9
ENDBRANCH   1   2
BRANCH   1  15
ATOM     15  N   UNL     1      44.429   5.227  10.286  0.00  0.00    +0.000 N 
ATOM     16  H   UNL     1      44.298   6.158   9.899  0.00  0.00    +0.000 HD
BRANCH  15  20
ATOM     17  C   UNL     1      46.327   2.663   7.686  0.00  0.00    +0.000 A 
ATOM     18  C   UNL     1      46.535   4.030   7.605  0.00  0.00    +0.000 A 
ATOM     19  N   UNL     1      45.917   4.919   8.434  0.00  0.00    +0.000 NA
ATOM     20  C   UNL     1      45.073   4.402   9.353  0.00  0.00    +0.000 A 
ATOM     21  C   UNL     1      44.877   3.012   9.415  0.00  0.00    +0.000 A 
ATOM     22  N   UNL     1      45.480   2.111   8.596  0.00  0.00    +0.000 NA
BRANCH  17  24
ATOM     23  N   UNL     1      47.538   2.307   5.618  0.00  0.00    +0.000 N 
ATOM     24  C   UNL     1      47.055   1.742   6.768  0.00  0.00    +0.000 C 
ATOM     25  O   UNL     1      47.212   0.555   7.022  0.00  0.00    +0.000 OA
ATOM     26  H   UNL     1      48.034   1.732   4.952  0.00  0.00    +0.000 HD
ATOM     27  H   UNL     1      47.397   3.295   5.437  0.00  0.00    +0.000 HD
ENDBRANCH  17  24
ENDBRANCH  15  20
ENDBRANCH   1  15
TORSDOF 5
ENDMDL
MODEL 6
REMARK VINA RESULT:    -6.590      1.889      2.111
REMARK INTER + INTRA:          -9.252
REMARK INTER:                  -8.542
REMARK INTRA:                  -0.710
REMARK UNBOUND:                -0.736
REMARK  Name = 
REMARK  5 active torsions:
REMARK  status: ('A' for Active; 'I' for Inactive)
REMARK    1  A    between atoms: C_2  and  C_4
REMARK    2  A    between atoms: C_7  and  N_8
REMARK    3  A    between atoms: N_8  and  C_9
REMARK    4  A    between atoms: C_9  and  C_10
REMARK    5  A    between atoms: C_15  and  C_16
REMARK                            x       y       z     vdW  Elec       q    Type
REMARK                         _______ _______ _______ _____ _____    ______ ____
ROOT
ATOM      1  C   UNL     1      44.742   6.145  10.932  0.00  0.00    +0.000 C 
ENDROOT
BRANCH   1   2
ATOM      2  C   UNL     1      45.645   5.871  12.121  0.00  0.00    +0.000 A 
ATOM      3  C   UNL     1      45.497   4.705  12.880  0.00  0.00    +0.000 A 
ATOM      4  C   UNL     1      46.323   4.479  13.978  0.00  0.00    +0.000 A 
ATOM      5  C   UNL     1      47.299   5.415  14.327  0.00  0.00    +0.000 A 
ATOM      6  F   UNL     1      48.047   5.151  15.411  0.00  0.00    +0.000 F 
ATOM      7  C   UNL     1      47.496   6.598  13.593  0.00  0.00    +0.000 A 
ATOM      8  C   UNL     1      46.641   6.802  12.489  0.00  0.00    +0.000 A 
BRANCH   7   9
ATOM      9  C   UNL     1      48.550   7.579  13.940  0.00  0.00    +0.000 A 
ATOM     10  C   UNL     1      48.359   8.575  14.911  0.00  0.00    +0.000 A 
ATOM     11  C   UNL     1      49.364   9.500  15.197  0.00  0.00    +0.000 A 
ATOM     12  C   UNL     1      50.558   9.408  14.507  0.00  0.00    +0.000 A 
ATOM     13  N   UNL     1      50.800   8.475  13.567  0.00  0.00    +0.000 NA
ATOM     14  C   UNL     1      49.799   7.593  13.311  0.00  0.00    +0.000 A 
ENDBRANCH   7   9
ENDBRANCH   1   2
BRANCH   1  15
ATOM     15  N   UNL     1      44.234   4.877  10.420  0.00  0.00    +0.000 N 
ATOM     16  H   UNL     1      43.254   4.947  10.158  0.00  0.00    +0.000 HD
BRANCH  15  20
ATOM     17  C   UNL     1      46.432   3.059   7.454  0.00  0.00    +0.000 A 
ATOM     18  C   UNL     1      46.492   4.431   7.634  0.00  0.00    +0.000 A 
ATOM     19  N   UNL     1      45.771   5.079   8.593  0.00  0.00    +0.000 NA
ATOM     20  C   UNL     1      44.975   4.313   9.372  0.00  0.00    +0.000 A 
ATOM     21  C   UNL     1      44.931   2.924   9.169  0.00  0.00    +0.000 A 
ATOM     22  N   UNL     1      45.638   2.260   8.217  0.00  0.00    +0.000 NA
BRANCH  17  24
ATOM     23  N   UNL     1      48.279   1.606   6.863  0.00  0.00    +0.000 N 
ATOM     24  C   UNL     1      47.267   2.407   6.406  0.00  0.00    +0.000 C 
ATOM     25  O   UNL     1      47.066   2.577   5.210  0.00  0.00    +0.000 OA
ATOM     26  H   UNL     1      48.885   1.143   6.201  0.00  0.00    +0.000 HD
ATOM     27  H   UNL     1      48.419   1.481   7.860  0.00  0.00    +0.000 HD
ENDBRANCH  17  24
ENDBRANCH  15  20
ENDBRANCH   1  15
TORSDOF 5
ENDMDL
MODEL 7
REMARK VINA RESULT:    -6.545      5.141      8.277
REMARK INTER + INTRA:          -9.195
REMARK INTER:                  -8.501
REMARK INTRA:                  -0.693
REMARK UNBOUND:                -0.736
REMARK  Name = 
REMARK  5 active torsions:
REMARK  status: ('A' for Active; 'I' for Inactive)
REMARK    1  A    between atoms: C_2  and  C_4
REMARK    2  A    between atoms: C_7  and  N_8
REMARK    3  A    between atoms: N_8  and  C_9
REMARK    4  A    between atoms: C_9  and  C_10
REMARK    5  A    between atoms: C_15  and  C_16
REMARK                            x       y       z     vdW  Elec       q    Type
REMARK                         _______ _______ _______ _____ _____    ______ ____
ROOT
ATOM      1  C   UNL     1      48.689   6.982  13.937  0.00  0.00    +0.000 C 
ENDROOT
BRANCH   1   2
ATOM      2  C   UNL     1      47.386   7.146  13.178  0.00  0.00    +0.000 A 
ATOM      3  C   UNL     1      46.617   8.307  13.316  0.00  0.00    +0.000 A 
ATOM      4  C   UNL     1      45.414   8.432  12.626  0.00  0.00    +0.000 A 
ATOM      5  C   UNL     1      44.970   7.401  11.796  0.00  0.00    +0.000 A 
ATOM      6  F   UNL     1      43.791   7.571  11.177  0.00  0.00    +0.000 F 
ATOM      7  C   UNL     1      45.709   6.218  11.614  0.00  0.00    +0.000 A 
ATOM      8  C   UNL     1      46.920   6.118  12.331  0.00  0.00    +0.000 A 
BRANCH   7   9
ATOM      9  C   UNL     1      45.258   5.134  10.711  0.00  0.00    +0.000 A 
ATOM     10  C   UNL     1      45.620   5.086   9.355  0.00  0.00    +0.000 A 
ATOM     11  C   UNL     1      45.158   4.065   8.525  0.00  0.00    +0.000 A 
ATOM     12  C   UNL     1      44.340   3.093   9.071  0.00  0.00    +0.000 A 
ATOM     13  N   UNL     1      43.961   3.084  10.363  0.00  0.00    +0.000 NA
ATOM     14  C   UNL     1      44.426   4.095  11.141  0.00  0.00    +0.000 A 
ENDBRANCH   7   9
ENDBRANCH   1   2
BRANCH   1  15
ATOM     15  N   UNL     1      48.572   7.643  15.232  0.00  0.00    +0.000 N 
ATOM     16  H   UNL     1      47.734   8.215  15.285  0.00  0.00    +0.000 HD
BRANCH  15  20
ATOM     17  C   UNL     1      48.888   5.301  18.602  0.00  0.00    +0.000 A 
ATOM     18  C   UNL     1      48.952   4.732  17.340  0.00  0.00    +0.000 A 
ATOM     19  N   UNL     1      48.838   5.465  16.196  0.00  0.00    +0.000 NA
ATOM     20  C   UNL     1      48.650   6.795  16.347  0.00  0.00    +0.000 A 
ATOM     21  C   UNL     1      48.586   7.347  17.636  0.00  0.00    +0.000 A 
ATOM     22  N   UNL     1      48.694   6.634  18.788  0.00  0.00    +0.000 NA
BRANCH  17  24
ATOM     23  N   UNL     1      48.406   3.239  19.780  0.00  0.00    +0.000 N 
ATOM     24  C   UNL     1      49.048   4.448  19.813  0.00  0.00    +0.000 C 
ATOM     25  O   UNL     1      49.711   4.803  20.779  0.00  0.00    +0.000 OA
ATOM     26  H   UNL     1      48.471   2.619  20.574  0.00  0.00    +0.000 HD
ATOM     27  H   UNL     1      47.868   2.970  18.963  0.00  0.00    +0.000 HD
ENDBRANCH  17  24
ENDBRANCH  15  20
ENDBRANCH   1  15
TORSDOF 5
ENDMDL
MODEL 8
REMARK VINA RESULT:    -6.337      4.318      7.609
REMARK INTER + INTRA:          -8.926
REMARK INTER:                  -8.200
REMARK INTRA:                  -0.725
REMARK UNBOUND:                -0.736
REMARK  Name = 
REMARK  5 active torsions:
REMARK  status: ('A' for Active; 'I' for Inactive)
REMARK    1  A    between atoms: C_2  and  C_4
REMARK    2  A    between atoms: C_7  and  N_8
REMARK    3  A    between atoms: N_8  and  C_9
REMARK    4  A    between atoms: C_9  and  C_10
REMARK    5  A    between atoms: C_15  and  C_16
REMARK                            x       y       z     vdW  Elec       q    Type
REMARK                         _______ _______ _______ _____ _____    ______ ____
ROOT
ATOM      1  C   UNL     1      47.330   7.819  12.522  0.00  0.00    +0.000 C 
ENDROOT
BRANCH   1   2
ATOM      2  C   UNL     1      46.138   7.046  11.992  0.00  0.00    +0.000 A 
ATOM      3  C   UNL     1      44.841   7.338  12.429  0.00  0.00    +0.000 A 
ATOM      4  C   UNL     1      43.761   6.606  11.945  0.00  0.00    +0.000 A 
ATOM      5  C   UNL     1      43.966   5.578  11.023  0.00  0.00    +0.000 A 
ATOM      6  F   UNL     1      42.887   4.893  10.613  0.00  0.00    +0.000 F 
ATOM      7  C   UNL     1      45.246   5.250  10.544  0.00  0.00    +0.000 A 
ATOM      8  C   UNL     1      46.322   6.005  11.056  0.00  0.00    +0.000 A 
BRANCH   7   9
ATOM      9  C   UNL     1      45.466   4.180   9.542  0.00  0.00    +0.000 A 
ATOM     10  C   UNL     1      45.963   4.445   8.256  0.00  0.00    +0.000 A 
ATOM     11  C   UNL     1      46.136   3.418   7.328  0.00  0.00    +0.000 A 
ATOM     12  C   UNL     1      45.813   2.129   7.706  0.00  0.00    +0.000 A 
ATOM     13  N   UNL     1      45.336   1.812   8.925  0.00  0.00    +0.000 NA
ATOM     14  C   UNL     1      45.177   2.836   9.802  0.00  0.00    +0.000 A 
ENDBRANCH   7   9
ENDBRANCH   1   2
BRANCH   1  15
ATOM     15  N   UNL     1      48.372   6.877  12.915  0.00  0.00    +0.000 N 
ATOM     16  H   UNL     1      49.300   7.246  12.728  0.00  0.00    +0.000 HD
BRANCH  15  20
ATOM     17  C   UNL     1      48.315   5.604  16.829  0.00  0.00    +0.000 A 
ATOM     18  C   UNL     1      47.744   4.834  15.829  0.00  0.00    +0.000 A 
ATOM     19  N   UNL     1      47.726   5.221  14.522  0.00  0.00    +0.000 NA
ATOM     20  C   UNL     1      48.293   6.413  14.237  0.00  0.00    +0.000 A 
ATOM     21  C   UNL     1      48.865   7.176  15.268  0.00  0.00    +0.000 A 
ATOM     22  N   UNL     1      48.890   6.811  16.576  0.00  0.00    +0.000 NA
BRANCH  17  24
ATOM     23  N   UNL     1      47.302   4.272  18.581  0.00  0.00    +0.000 N 
ATOM     24  C   UNL     1      48.327   5.111  18.235  0.00  0.00    +0.000 C 
ATOM     25  O   UNL     1      49.196   5.435  19.034  0.00  0.00    +0.000 OA
ATOM     26  H   UNL     1      47.251   3.910  19.523  0.00  0.00    +0.000 HD
ATOM     27  H   UNL     1      46.598   4.017  17.896  0.00  0.00    +0.000 HD
ENDBRANCH  17  24
ENDBRANCH  15  20
ENDBRANCH   1  15
TORSDOF 5
ENDMDL
MODEL 9
REMARK VINA RESULT:    -6.315      5.364      7.566
REMARK INTER + INTRA:          -8.897
REMARK INTER:                  -8.164
REMARK INTRA:                  -0.733
REMARK UNBOUND:                -0.736
REMARK  Name = 
REMARK  5 active torsions:
REMARK  status: ('A' for Active; 'I' for Inactive)
REMARK    1  A    between atoms: C_2  and  C_4
REMARK    2  A    between atoms: C_7  and  N_8
REMARK    3  A    between atoms: N_8  and  C_9
REMARK    4  A    between atoms: C_9  and  C_10
REMARK    5  A    between atoms: C_15  and  C_16
REMARK                            x       y       z     vdW  Elec       q    Type
REMARK                         _______ _______ _______ _____ _____    ______ ____
ROOT
ATOM      1  C   UNL     1      48.743   7.612  15.291  0.00  0.00    +0.000 C 
ENDROOT
BRANCH   1   2
ATOM      2  C   UNL     1      49.013   6.864  16.583  0.00  0.00    +0.000 A 
ATOM      3  C   UNL     1      48.548   7.357  17.807  0.00  0.00    +0.000 A 
ATOM      4  C   UNL     1      48.820   6.666  18.985  0.00  0.00    +0.000 A 
ATOM      5  C   UNL     1      49.559   5.482  18.950  0.00  0.00    +0.000 A 
ATOM      6  F   UNL     1      49.808   4.875  20.122  0.00  0.00    +0.000 F 
ATOM      7  C   UNL     1      50.041   4.938  17.747  0.00  0.00    +0.000 A 
ATOM      8  C   UNL     1      49.754   5.662  16.570  0.00  0.00    +0.000 A 
BRANCH   7   9
ATOM      9  C   UNL     1      50.798   3.665  17.700  0.00  0.00    +0.000 A 
ATOM     10  C   UNL     1      52.144   3.577  18.089  0.00  0.00    +0.000 A 
ATOM     11  C   UNL     1      52.836   2.368  18.010  0.00  0.00    +0.000 A 
ATOM     12  C   UNL     1      52.163   1.254  17.545  0.00  0.00    +0.000 A 
ATOM     13  N   UNL     1      50.872   1.276  17.160  0.00  0.00    +0.000 NA
ATOM     14  C   UNL     1      50.230   2.470  17.247  0.00  0.00    +0.000 A 
ENDBRANCH   7   9
ENDBRANCH   1   2
BRANCH   1  15
ATOM     15  N   UNL     1      48.675   6.655  14.193  0.00  0.00    +0.000 N 
ATOM     16  H   UNL     1      49.309   5.874  14.338  0.00  0.00    +0.000 HD
BRANCH  15  20
ATOM     17  C   UNL     1      44.979   5.092  13.278  0.00  0.00    +0.000 A 
ATOM     18  C   UNL     1      45.312   6.383  12.900  0.00  0.00    +0.000 A 
ATOM     19  N   UNL     1      46.517   6.948  13.193  0.00  0.00    +0.000 NA
ATOM     20  C   UNL     1      47.390   6.184  13.887  0.00  0.00    +0.000 A 
ATOM     21  C   UNL     1      47.029   4.879  14.260  0.00  0.00    +0.000 A 
ATOM     22  N   UNL     1      45.832   4.300  13.980  0.00  0.00    +0.000 NA
BRANCH  17  24
ATOM     23  N   UNL     1      42.681   5.434  12.591  0.00  0.00    +0.000 N 
ATOM     24  C   UNL     1      43.655   4.523  12.901  0.00  0.00    +0.000 C 
ATOM     25  O   UNL     1      43.446   3.317  12.870  0.00  0.00    +0.000 OA
ATOM     26  H   UNL     1      41.759   5.110  12.335  0.00  0.00    +0.000 HD
ATOM     27  H   UNL     1      42.884   6.427  12.621  0.00  0.00    +0.000 HD
ENDBRANCH  17  24
ENDBRANCH  15  20
ENDBRANCH   1  15
TORSDOF 5
ENDMDL
