MODEL 1
REMARK VINA RESULT:    -7.821      0.000      0.000
REMARK INTER + INTRA:         -11.652
REMARK INTER:                 -10.565
REMARK INTRA:                  -1.088
REMARK UNBOUND:                -1.088
REMARK  Name = 
REMARK  6 active torsions:
REMARK  status: ('A' for Active; 'I' for Inactive)
REMARK    1  A    between atoms: C_2  and  C_25
REMARK    2  A    between atoms: N_3  and  C_4
REMARK    3  A    between atoms: C_4  and  C_5
REMARK    4  A    between atoms: C_8  and  C_9
REMARK    5  A    between atoms: C_9  and  N_10
REMARK    6  A    between atoms: C_11  and  C_13
REMARK                            x       y       z     vdW  Elec       q    Type
REMARK                         _______ _______ _______ _____ _____    ______ ____
ROOT
ATOM      1  C   UNL     1      44.792   5.691  10.879  0.00  0.00    +0.000 A 
ATOM      2  C   UNL     1      46.157   5.924  10.654  0.00  0.00    +0.000 A 
ATOM      3  C   UNL     1      46.896   6.754  11.510  0.00  0.00    +0.000 A 
ATOM      4  C   UNL     1      46.296   7.345  12.630  0.00  0.00    +0.000 A 
ATOM      5  C   UNL     1      44.933   7.108  12.857  0.00  0.00    +0.000 A 
ATOM      6  C   UNL     1      44.192   6.284  11.999  0.00  0.00    +0.000 A 
ENDROOT
BRANCH   1   7
ATOM      7  C   UNL     1      43.990   4.829   9.938  0.00  0.00    +0.000 C 
BRANCH   7  10
ATOM      8  O   UNL     1      44.850   2.191  10.034  0.00  0.00    +0.000 OA
ATOM      9  C   UNL     1      45.193   2.865   9.067  0.00  0.00    +0.000 C 
ATOM     10  N   UNL     1      44.817   4.188   8.946  0.00  0.00    +0.000 N 
ATOM     11  H   UNL     1      45.003   4.669   8.074  0.00  0.00    +0.000 HD
BRANCH   9  12
ATOM     12  C   UNL     1      45.999   2.331   7.987  0.00  0.00    +0.000 A 
ATOM     13  C   UNL     1      46.491   1.045   7.857  0.00  0.00    +0.000 A 
ATOM     14  N   UNL     1      47.265   0.802   6.736  0.00  0.00    +0.000 NA
ATOM     15  C   UNL     1      47.361   1.907   6.033  0.00  0.00    +0.000 A 
ATOM     16  S   UNL     1      46.521   3.270   6.645  0.00  0.00    +0.000 S 
ENDBRANCH   9  12
ENDBRANCH   7  10
ENDBRANCH   1   7
BRANCH   4  17
ATOM     17  C   UNL     1      47.081   8.237  13.568  0.00  0.00    +0.000 C 
BRANCH  17  18
ATOM     18  N   UNL     1      47.541   7.520  14.729  0.00  0.00    +0.000 N 
ATOM     19  C   UNL     1      48.777   6.916  14.771  0.00  0.00    +0.000 C 
ATOM     20  O   UNL     1      49.573   6.979  13.841  0.00  0.00    +0.000 OA
ATOM     21  H   UNL     1      46.829   7.213  15.382  0.00  0.00    +0.000 HD
BRANCH  19  22
ATOM     22  C   UNL     1      49.118   6.244  16.037  0.00  0.00    +0.000 A 
ATOM     23  C   UNL     1      50.157   6.723  16.824  0.00  0.00    +0.000 A 
ATOM     24  S   UNL     1      50.373   5.852  18.276  0.00  0.00    +0.000 S 
ATOM     25  C   UNL     1      49.119   4.772  17.882  0.00  0.00    +0.000 A 
ATOM     26  N   UNL     1      48.796   3.737  18.702  0.00  0.00    +0.000 NA
ATOM     27  C   UNL     1      47.844   2.985  18.267  0.00  0.00    +0.000 A 
ATOM     28  N   UNL     1      47.176   3.176  17.084  0.00  0.00    +0.000 N 
ATOM     29  C   UNL     1      47.443   4.228  16.243  0.00  0.00    +0.000 A 
ATOM     30  O   UNL     1      46.784   4.405  15.221  0.00  0.00    +0.000 OA
ATOM     31  C   UNL     1      48.523   5.091  16.673  0.00  0.00    +0.000 A 
ATOM     32  H   UNL     1      46.427   2.561  16.805  0.00  0.00    +0.000 HD
ENDBRANCH  19  22
ENDBRANCH  17  18
ENDBRANCH   4  17
TORSDOF 6
ENDMDL
MODEL 2
REMARK VINA RESULT:    -7.156      4.834      9.207
REMARK INTER + INTRA:         -10.755
REMARK INTER:                  -9.977
REMARK INTRA:                  -0.778
REMARK UNBOUND:                -1.088
REMARK  Name = 
REMARK  6 active torsions:
REMARK  status: ('A' for Active; 'I' for Inactive)
REMARK    1  A    between atoms: C_2  and  C_25
REMARK    2  A    between atoms: N_3  and  C_4
REMARK    3  A    between atoms: C_4  and  C_5
REMARK    4  A    between atoms: C_8  and  C_9
REMARK    5  A    between atoms: C_9  and  N_10
REMARK    6  A    between atoms: C_11  and  C_13
REMARK                            x       y       z     vdW  Elec       q    Type
REMARK                         _______ _______ _______ _____ _____    ______ ____
ROOT
ATOM      1  C   UNL     1      51.445   3.128  17.697  0.00  0.00    +0.000 A 
ATOM      2  C   UNL     1      50.787   4.343  17.939  0.00  0.00    +0.000 A 
ATOM      3  C   UNL     1      49.412   4.478  17.695  0.00  0.00    +0.000 A 
ATOM      4  C   UNL     1      48.656   3.393  17.234  0.00  0.00    +0.000 A 
ATOM      5  C   UNL     1      49.313   2.178  16.997  0.00  0.00    +0.000 A 
ATOM      6  C   UNL     1      50.688   2.043  17.234  0.00  0.00    +0.000 A 
ENDROOT
BRANCH   1   7
ATOM      7  C   UNL     1      52.929   2.995  17.924  0.00  0.00    +0.000 C 
BRANCH   7  10
ATOM      8  O   UNL     1      54.275   1.135  19.485  0.00  0.00    +0.000 OA
ATOM      9  C   UNL     1      54.093   0.858  18.303  0.00  0.00    +0.000 C 
ATOM     10  N   UNL     1      53.442   1.732  17.455  0.00  0.00    +0.000 N 
ATOM     11  H   UNL     1      53.192   1.413  16.527  0.00  0.00    +0.000 HD
BRANCH   9  12
ATOM     12  C   UNL     1      54.534  -0.390  17.714  0.00  0.00    +0.000 A 
ATOM     13  C   UNL     1      54.861  -0.630  16.391  0.00  0.00    +0.000 A 
ATOM     14  N   UNL     1      55.225  -1.929  16.083  0.00  0.00    +0.000 NA
ATOM     15  C   UNL     1      55.162  -2.663  17.171  0.00  0.00    +0.000 A 
ATOM     16  S   UNL     1      54.700  -1.850  18.607  0.00  0.00    +0.000 S 
ENDBRANCH   9  12
ENDBRANCH   7  10
ENDBRANCH   1   7
BRANCH   4  17
ATOM     17  C   UNL     1      47.170   3.519  16.974  0.00  0.00    +0.000 C 
BRANCH  17  18
ATOM     18  N   UNL     1      46.887   4.472  15.932  0.00  0.00    +0.000 N 
ATOM     19  C   UNL     1      46.987   4.147  14.599  0.00  0.00    +0.000 C 
ATOM     20  O   UNL     1      47.289   3.022  14.216  0.00  0.00    +0.000 OA
ATOM     21  H   UNL     1      46.914   5.450  16.195  0.00  0.00    +0.000 HD
BRANCH  19  22
ATOM     22  C   UNL     1      46.639   5.219  13.650  0.00  0.00    +0.000 A 
ATOM     23  C   UNL     1      47.567   6.203  13.337  0.00  0.00    +0.000 A 
ATOM     24  S   UNL     1      47.006   7.330  12.184  0.00  0.00    +0.000 S 
ATOM     25  C   UNL     1      45.485   6.573  12.100  0.00  0.00    +0.000 A 
ATOM     26  N   UNL     1      44.497   7.063  11.304  0.00  0.00    +0.000 NA
ATOM     27  C   UNL     1      43.389   6.404  11.358  0.00  0.00    +0.000 A 
ATOM     28  N   UNL     1      43.179   5.291  12.133  0.00  0.00    +0.000 N 
ATOM     29  C   UNL     1      44.158   4.741  12.921  0.00  0.00    +0.000 A 
ATOM     30  O   UNL     1      43.955   3.707  13.555  0.00  0.00    +0.000 OA
ATOM     31  C   UNL     1      45.417   5.457  12.918  0.00  0.00    +0.000 A 
ATOM     32  H   UNL     1      42.294   4.810  12.119  0.00  0.00    +0.000 HD
ENDBRANCH  19  22
ENDBRANCH  17  18
ENDBRANCH   4  17
TORSDOF 6
ENDMDL
MODEL 3
REMARK VINA RESULT:    -6.988      2.200      2.532
REMARK INTER + INTRA:         -10.527
REMARK INTER:                  -9.775
REMARK INTRA:                  -0.752
REMARK UNBOUND:                -1.088
REMARK  Name = 
REMARK  6 active torsions:
REMARK  status: ('A' for Active; 'I' for Inactive)
REMARK    1  A    between atoms: C_2  and  C_25
REMARK    2  A    between atoms: N_3  and  C_4
REMARK    3  A    between atoms: C_4  and  C_5
REMARK    4  A    between atoms: C_8  and  C_9
REMARK    5  A    between atoms: C_9  and  N_10
REMARK    6  A    between atoms: C_11  and  C_13
REMARK                            x       y       z     vdW  Elec       q    Type
REMARK                         _______ _______ _______ _____ _____    ______ ____
ROOT
ATOM      1  C   UNL     1      45.764   4.360  12.292  0.00  0.00    +0.000 A 
ATOM      2  C   UNL     1      46.328   3.834  13.463  0.00  0.00    +0.000 A 
ATOM      3  C   UNL     1      47.056   4.651  14.341  0.00  0.00    +0.000 A 
ATOM      4  C   UNL     1      47.209   6.021  14.085  0.00  0.00    +0.000 A 
ATOM      5  C   UNL     1      46.639   6.546  12.917  0.00  0.00    +0.000 A 
ATOM      6  C   UNL     1      45.918   5.729  12.036  0.00  0.00    +0.000 A 
ENDROOT
BRANCH   1   7
ATOM      7  C   UNL     1      45.014   3.474  11.331  0.00  0.00    +0.000 C 
BRANCH   7  10
ATOM      8  O   UNL     1      44.240   1.727   9.316  0.00  0.00    +0.000 OA
ATOM      9  C   UNL     1      45.319   2.299   9.188  0.00  0.00    +0.000 C 
ATOM     10  N   UNL     1      45.783   3.176  10.148  0.00  0.00    +0.000 N 
ATOM     11  H   UNL     1      46.607   3.729   9.944  0.00  0.00    +0.000 HD
BRANCH   9  12
ATOM     12  C   UNL     1      46.173   2.110   8.033  0.00  0.00    +0.000 A 
ATOM     13  C   UNL     1      46.843   0.959   7.658  0.00  0.00    +0.000 A 
ATOM     14  N   UNL     1      47.624   1.055   6.520  0.00  0.00    +0.000 NA
ATOM     15  C   UNL     1      47.545   2.278   6.047  0.00  0.00    +0.000 A 
ATOM     16  S   UNL     1      46.529   3.358   6.905  0.00  0.00    +0.000 S 
ENDBRANCH   9  12
ENDBRANCH   7  10
ENDBRANCH   1   7
BRANCH   4  17
ATOM     17  C   UNL     1      47.983   6.918  15.026  0.00  0.00    +0.000 C 
BRANCH  17  18
ATOM     18  N   UNL     1      49.124   6.246  15.590  0.00  0.00    +0.000 N 
ATOM     19  C   UNL     1      49.109   5.726  16.864  0.00  0.00    +0.000 C 
ATOM     20  O   UNL     1      48.118   5.773  17.583  0.00  0.00    +0.000 OA
ATOM     21  H   UNL     1      50.020   6.433  15.154  0.00  0.00    +0.000 HD
BRANCH  19  22
ATOM     22  C   UNL     1      50.342   5.042  17.291  0.00  0.00    +0.000 A 
ATOM     23  C   UNL     1      51.419   5.776  17.771  0.00  0.00    +0.000 A 
ATOM     24  S   UNL     1      52.738   4.813  18.266  0.00  0.00    +0.000 S 
ATOM     25  C   UNL     1      51.939   3.382  17.809  0.00  0.00    +0.000 A 
ATOM     26  N   UNL     1      52.536   2.168  17.939  0.00  0.00    +0.000 NA
ATOM     27  C   UNL     1      51.825   1.173  17.531  0.00  0.00    +0.000 A 
ATOM     28  N   UNL     1      50.560   1.280  17.009  0.00  0.00    +0.000 N 
ATOM     29  C   UNL     1      49.904   2.480  16.894  0.00  0.00    +0.000 A 
ATOM     30  O   UNL     1      48.748   2.532  16.479  0.00  0.00    +0.000 OA
ATOM     31  C   UNL     1      50.669   3.635  17.315  0.00  0.00    +0.000 A 
ATOM     32  H   UNL     1      50.047   0.461  16.722  0.00  0.00    +0.000 HD
ENDBRANCH  19  22
ENDBRANCH  17  18
ENDBRANCH   4  17
TORSDOF 6
ENDMDL
MODEL 4
REMARK VINA RESULT:    -6.569      4.585      7.475
REMARK INTER + INTRA:          -9.961
REMARK INTER:                  -9.098
REMARK INTRA:                  -0.862
REMARK UNBOUND:                -1.088
REMARK  Name = 
REMARK  6 active torsions:
REMARK  status: ('A' for Active; 'I' for Inactive)
REMARK    1  A    between atoms: C_2  and  C_25
REMARK    2  A    between atoms: N_3  and  C_4
REMARK    3  A    between atoms: C_4  and  C_5
REMARK    4  A    between atoms: C_8  and  C_9
REMARK    5  A    between atoms: C_9  and  N_10
REMARK    6  A    between atoms: C_11  and  C_13
REMARK                            x       y       z     vdW  Elec       q    Type
REMARK                         _______ _______ _______ _____ _____    ______ ____
ROOT
ATOM      1  C   UNL     1      50.489   8.920  11.342  0.00  0.00    +0.000 A 
ATOM      2  C   UNL     1      50.039   7.623  11.629  0.00  0.00    +0.000 A 
ATOM      3  C   UNL     1      48.722   7.397  12.058  0.00  0.00    +0.000 A 
ATOM      4  C   UNL     1      47.815   8.459  12.178  0.00  0.00    +0.000 A 
ATOM      5  C   UNL     1      48.265   9.754  11.885  0.00  0.00    +0.000 A 
ATOM      6  C   UNL     1      49.582   9.981  11.463  0.00  0.00    +0.000 A 
ENDROOT
BRANCH   1   7
ATOM      7  C   UNL     1      51.914   9.165  10.917  0.00  0.00    +0.000 C 
BRANCH   7  10
ATOM      8  O   UNL     1      53.726   7.062  10.864  0.00  0.00    +0.000 OA
ATOM      9  C   UNL     1      53.179   7.366   9.808  0.00  0.00    +0.000 C 
ATOM     10  N   UNL     1      52.273   8.407   9.744  0.00  0.00    +0.000 N 
ATOM     11  H   UNL     1      51.744   8.539   8.891  0.00  0.00    +0.000 HD
BRANCH   9  12
ATOM     12  C   UNL     1      53.431   6.665   8.565  0.00  0.00    +0.000 A 
ATOM     13  C   UNL     1      52.627   6.628   7.439  0.00  0.00    +0.000 A 
ATOM     14  N   UNL     1      53.088   5.853   6.390  0.00  0.00    +0.000 NA
ATOM     15  C   UNL     1      54.231   5.302   6.733  0.00  0.00    +0.000 A 
ATOM     16  S   UNL     1      54.824   5.696   8.292  0.00  0.00    +0.000 S 
ENDBRANCH   9  12
ENDBRANCH   7  10
ENDBRANCH   1   7
BRANCH   4  17
ATOM     17  C   UNL     1      46.389   8.232  12.631  0.00  0.00    +0.000 C 
BRANCH  17  18
ATOM     18  N   UNL     1      45.940   6.895  12.339  0.00  0.00    +0.000 N 
ATOM     19  C   UNL     1      44.782   6.652  11.636  0.00  0.00    +0.000 C 
ATOM     20  O   UNL     1      44.082   7.552  11.188  0.00  0.00    +0.000 OA
ATOM     21  H   UNL     1      46.322   6.155  12.916  0.00  0.00    +0.000 HD
BRANCH  19  22
ATOM     22  C   UNL     1      44.470   5.233  11.391  0.00  0.00    +0.000 A 
ATOM     23  C   UNL     1      43.712   4.516  12.307  0.00  0.00    +0.000 A 
ATOM     24  S   UNL     1      43.407   2.905  11.832  0.00  0.00    +0.000 S 
ATOM     25  C   UNL     1      44.319   3.092  10.409  0.00  0.00    +0.000 A 
ATOM     26  N   UNL     1      44.495   2.059   9.543  0.00  0.00    +0.000 NA
ATOM     27  C   UNL     1      45.229   2.335   8.519  0.00  0.00    +0.000 A 
ATOM     28  N   UNL     1      45.802   3.558   8.276  0.00  0.00    +0.000 N 
ATOM     29  C   UNL     1      45.621   4.638   9.103  0.00  0.00    +0.000 A 
ATOM     30  O   UNL     1      46.098   5.737   8.823  0.00  0.00    +0.000 OA
ATOM     31  C   UNL     1      44.824   4.376  10.283  0.00  0.00    +0.000 A 
ATOM     32  H   UNL     1      46.354   3.717   7.448  0.00  0.00    +0.000 HD
ENDBRANCH  19  22
ENDBRANCH  17  18
ENDBRANCH   4  17
TORSDOF 6
ENDMDL
MODEL 5
REMARK VINA RESULT:    -6.490      1.655      2.075
REMARK INTER + INTRA:          -9.854
REMARK INTER:                  -8.975
REMARK INTRA:                  -0.879
REMARK UNBOUND:                -1.088
REMARK  Name = 
REMARK  6 active torsions:
REMARK  status: ('A' for Active; 'I' for Inactive)
REMARK    1  A    between atoms: C_2  and  C_25
REMARK    2  A    between atoms: N_3  and  C_4
REMARK    3  A    between atoms: C_4  and  C_5
REMARK    4  A    between atoms: C_8  and  C_9
REMARK    5  A    between atoms: C_9  and  N_10
REMARK    6  A    between atoms: C_11  and  C_13
REMARK                            x       y       z     vdW  Elec       q    Type
REMARK                         _______ _______ _______ _____ _____    ______ ____
ROOT
ATOM      1  C   UNL     1      45.412   6.972  11.906  0.00  0.00    +0.000 A 
ATOM      2  C   UNL     1      45.247   8.303  12.316  0.00  0.00    +0.000 A 
ATOM      3  C   UNL     1      46.145   8.896  13.217  0.00  0.00    +0.000 A 
ATOM      4  C   UNL     1      47.248   8.181  13.704  0.00  0.00    +0.000 A 
ATOM      5  C   UNL     1      47.414   6.853  13.289  0.00  0.00    +0.000 A 
ATOM      6  C   UNL     1      46.514   6.258  12.395  0.00  0.00    +0.000 A 
ENDROOT
BRANCH   1   7
ATOM      7  C   UNL     1      44.427   6.326  10.967  0.00  0.00    +0.000 C 
BRANCH   7  10
ATOM      8  O   UNL     1      43.427   3.771  10.539  0.00  0.00    +0.000 OA
ATOM      9  C   UNL     1      44.471   4.075   9.970  0.00  0.00    +0.000 C 
ATOM     10  N   UNL     1      45.042   5.321  10.136  0.00  0.00    +0.000 N 
ATOM     11  H   UNL     1      45.824   5.580   9.547  0.00  0.00    +0.000 HD
BRANCH   9  12
ATOM     12  C   UNL     1      45.173   3.167   9.085  0.00  0.00    +0.000 A 
ATOM     13  C   UNL     1      45.226   1.786   9.161  0.00  0.00    +0.000 A 
ATOM     14  N   UNL     1      45.998   1.155   8.202  0.00  0.00    +0.000 NA
ATOM     15  C   UNL     1      46.530   2.061   7.414  0.00  0.00    +0.000 A 
ATOM     16  S   UNL     1      46.121   3.691   7.750  0.00  0.00    +0.000 S 
ENDBRANCH   9  12
ENDBRANCH   7  10
ENDBRANCH   1   7
BRANCH   4  17
ATOM     17  C   UNL     1      48.231   8.807  14.670  0.00  0.00    +0.000 C 
BRANCH  17  18
ATOM     18  N   UNL     1      49.149   7.836  15.205  0.00  0.00    +0.000 N 
ATOM     19  C   UNL     1      49.122   7.457  16.527  0.00  0.00    +0.000 C 
ATOM     20  O   UNL     1      48.297   7.893  17.321  0.00  0.00    +0.000 OA
ATOM     21  H   UNL     1      49.996   7.674  14.671  0.00  0.00    +0.000 HD
BRANCH  19  22
ATOM     22  C   UNL     1      50.106   6.432  16.919  0.00  0.00    +0.000 A 
ATOM     23  C   UNL     1      51.420   6.792  17.185  0.00  0.00    +0.000 A 
ATOM     24  S   UNL     1      52.402   5.484  17.674  0.00  0.00    +0.000 S 
ATOM     25  C   UNL     1      51.119   4.381  17.499  0.00  0.00    +0.000 A 
ATOM     26  N   UNL     1      51.293   3.053  17.734  0.00  0.00    +0.000 NA
ATOM     27  C   UNL     1      50.242   2.331  17.538  0.00  0.00    +0.000 A 
ATOM     28  N   UNL     1      49.024   2.818  17.133  0.00  0.00    +0.000 N 
ATOM     29  C   UNL     1      48.794   4.154  16.921  0.00  0.00    +0.000 A 
ATOM     30  O   UNL     1      47.674   4.563  16.619  0.00  0.00    +0.000 OA
ATOM     31  C   UNL     1      49.949   5.008  17.103  0.00  0.00    +0.000 A 
ATOM     32  H   UNL     1      48.235   2.203  17.013  0.00  0.00    +0.000 HD
ENDBRANCH  19  22
ENDBRANCH  17  18
ENDBRANCH   4  17
TORSDOF 6
ENDMDL
MODEL 6
REMARK VINA RESULT:    -6.471      2.236      3.665
REMARK INTER + INTRA:          -9.829
REMARK INTER:                  -8.903
REMARK INTRA:                  -0.926
REMARK UNBOUND:                -1.088
REMARK  Name = 
REMARK  6 active torsions:
REMARK  status: ('A' for Active; 'I' for Inactive)
REMARK    1  A    between atoms: C_2  and  C_25
REMARK    2  A    between atoms: N_3  and  C_4
REMARK    3  A    between atoms: C_4  and  C_5
REMARK    4  A    between atoms: C_8  and  C_9
REMARK    5  A    between atoms: C_9  and  N_10
REMARK    6  A    between atoms: C_11  and  C_13
REMARK                            x       y       z     vdW  Elec       q    Type
REMARK                         _______ _______ _______ _____ _____    ______ ____
ROOT
ATOM      1  C   UNL     1      45.068   4.450  11.507  0.00  0.00    +0.000 A 
ATOM      2  C   UNL     1      45.316   5.712  12.068  0.00  0.00    +0.000 A 
ATOM      3  C   UNL     1      45.938   5.834  13.319  0.00  0.00    +0.000 A 
ATOM      4  C   UNL     1      46.357   4.698  14.025  0.00  0.00    +0.000 A 
ATOM      5  C   UNL     1      46.114   3.438  13.461  0.00  0.00    +0.000 A 
ATOM      6  C   UNL     1      45.487   3.315  12.214  0.00  0.00    +0.000 A 
ENDROOT
BRANCH   1   7
ATOM      7  C   UNL     1      44.367   4.319  10.180  0.00  0.00    +0.000 C 
BRANCH   7  10
ATOM      8  O   UNL     1      44.716   1.733   9.232  0.00  0.00    +0.000 OA
ATOM      9  C   UNL     1      45.373   2.625   8.703  0.00  0.00    +0.000 C 
ATOM     10  N   UNL     1      45.268   3.937   9.121  0.00  0.00    +0.000 N 
ATOM     11  H   UNL     1      45.720   4.659   8.574  0.00  0.00    +0.000 HD
BRANCH   9  12
ATOM     12  C   UNL     1      46.292   2.378   7.610  0.00  0.00    +0.000 A 
ATOM     13  C   UNL     1      47.064   1.250   7.395  0.00  0.00    +0.000 A 
ATOM     14  N   UNL     1      47.887   1.281   6.283  0.00  0.00    +0.000 NA
ATOM     15  C   UNL     1      47.738   2.433   5.671  0.00  0.00    +0.000 A 
ATOM     16  S   UNL     1      46.604   3.517   6.361  0.00  0.00    +0.000 S 
ENDBRANCH   9  12
ENDBRANCH   7  10
ENDBRANCH   1   7
BRANCH   4  17
ATOM     17  C   UNL     1      47.038   4.812  15.372  0.00  0.00    +0.000 C 
BRANCH  17  18
ATOM     18  N   UNL     1      48.335   5.430  15.267  0.00  0.00    +0.000 N 
ATOM     19  C   UNL     1      48.901   6.120  16.314  0.00  0.00    +0.000 C 
ATOM     20  O   UNL     1      48.356   6.224  17.406  0.00  0.00    +0.000 OA
ATOM     21  H   UNL     1      48.676   5.605  14.329  0.00  0.00    +0.000 HD
BRANCH  19  22
ATOM     22  C   UNL     1      50.245   6.671  16.065  0.00  0.00    +0.000 A 
ATOM     23  C   UNL     1      51.300   6.345  16.905  0.00  0.00    +0.000 A 
ATOM     24  S   UNL     1      52.789   7.033  16.432  0.00  0.00    +0.000 S 
ATOM     25  C   UNL     1      52.067   7.833  15.116  0.00  0.00    +0.000 A 
ATOM     26  N   UNL     1      52.792   8.639  14.296  0.00  0.00    +0.000 NA
ATOM     27  C   UNL     1      52.112   9.200  13.355  0.00  0.00    +0.000 A 
ATOM     28  N   UNL     1      50.766   9.022  13.153  0.00  0.00    +0.000 N 
ATOM     29  C   UNL     1      50.003   8.190  13.932  0.00  0.00    +0.000 A 
ATOM     30  O   UNL     1      48.812   8.006  13.684  0.00  0.00    +0.000 OA
ATOM     31  C   UNL     1      50.713   7.553  15.021  0.00  0.00    +0.000 A 
ATOM     32  H   UNL     1      50.293   9.477  12.388  0.00  0.00    +0.000 HD
ENDBRANCH  19  22
ENDBRANCH  17  18
ENDBRANCH   4  17
TORSDOF 6
ENDMDL
MODEL 7
REMARK VINA RESULT:    -6.280      3.863      9.535
REMARK INTER + INTRA:          -9.570
REMARK INTER:                  -8.753
REMARK INTRA:                  -0.817
REMARK UNBOUND:                -1.088
REMARK  Name = 
REMARK  6 active torsions:
REMARK  status: ('A' for Active; 'I' for Inactive)
REMARK    1  A    between atoms: C_2  and  C_25
REMARK    2  A    between atoms: N_3  and  C_4
REMARK    3  A    between atoms: C_4  and  C_5
REMARK    4  A    between atoms: C_8  and  C_9
REMARK    5  A    between atoms: C_9  and  N_10
REMARK    6  A    between atoms: C_11  and  C_13
REMARK                            x       y       z     vdW  Elec       q    Type
REMARK                         _______ _______ _______ _____ _____    ______ ____
ROOT
ATOM      1  C   UNL     1      51.372   3.700  17.870  0.00  0.00    +0.000 A 
ATOM      2  C   UNL     1      50.507   4.792  18.023  0.00  0.00    +0.000 A 
ATOM      3  C   UNL     1      49.151   4.690  17.678  0.00  0.00    +0.000 A 
ATOM      4  C   UNL     1      48.621   3.483  17.201  0.00  0.00    +0.000 A 
ATOM      5  C   UNL     1      49.487   2.391  17.053  0.00  0.00    +0.000 A 
ATOM      6  C   UNL     1      50.842   2.493  17.392  0.00  0.00    +0.000 A 
ENDROOT
BRANCH   1   7
ATOM      7  C   UNL     1      52.836   3.821  18.206  0.00  0.00    +0.000 C 
BRANCH   7  10
ATOM      8  O   UNL     1      54.794   4.955  16.596  0.00  0.00    +0.000 OA
ATOM      9  C   UNL     1      54.247   5.681  17.421  0.00  0.00    +0.000 C 
ATOM     10  N   UNL     1      53.270   5.195  18.268  0.00  0.00    +0.000 N 
ATOM     11  H   UNL     1      52.750   5.851  18.838  0.00  0.00    +0.000 HD
BRANCH   9  12
ATOM     12  C   UNL     1      54.571   7.086  17.565  0.00  0.00    +0.000 A 
ATOM     13  C   UNL     1      54.222   7.931  18.604  0.00  0.00    +0.000 A 
ATOM     14  N   UNL     1      54.634   9.246  18.481  0.00  0.00    +0.000 NA
ATOM     15  C   UNL     1      55.284   9.388  17.348  0.00  0.00    +0.000 A 
ATOM     16  S   UNL     1      55.461   7.976  16.394  0.00  0.00    +0.000 S 
ENDBRANCH   9  12
ENDBRANCH   7  10
ENDBRANCH   1   7
BRANCH   4  17
ATOM     17  C   UNL     1      47.159   3.353  16.831  0.00  0.00    +0.000 C 
BRANCH  17  18
ATOM     18  N   UNL     1      46.762   4.339  15.860  0.00  0.00    +0.000 N 
ATOM     19  C   UNL     1      46.826   4.098  14.507  0.00  0.00    +0.000 C 
ATOM     20  O   UNL     1      47.190   3.022  14.046  0.00  0.00    +0.000 OA
ATOM     21  H   UNL     1      46.730   5.301  16.180  0.00  0.00    +0.000 HD
BRANCH  19  22
ATOM     22  C   UNL     1      46.359   5.193  13.639  0.00  0.00    +0.000 A 
ATOM     23  C   UNL     1      47.173   6.292  13.401  0.00  0.00    +0.000 A 
ATOM     24  S   UNL     1      46.487   7.433  12.332  0.00  0.00    +0.000 S 
ATOM     25  C   UNL     1      45.056   6.524  12.188  0.00  0.00    +0.000 A 
ATOM     26  N   UNL     1      44.017   6.960  11.428  0.00  0.00    +0.000 NA
ATOM     27  C   UNL     1      42.988   6.184  11.431  0.00  0.00    +0.000 A 
ATOM     28  N   UNL     1      42.903   5.000  12.121  0.00  0.00    +0.000 N 
ATOM     29  C   UNL     1      43.940   4.504  12.869  0.00  0.00    +0.000 A 
ATOM     30  O   UNL     1      43.853   3.410  13.425  0.00  0.00    +0.000 OA
ATOM     31  C   UNL     1      45.114   5.350  12.922  0.00  0.00    +0.000 A 
ATOM     32  H   UNL     1      42.075   4.428  12.069  0.00  0.00    +0.000 HD
ENDBRANCH  19  22
ENDBRANCH  17  18
ENDBRANCH   4  17
TORSDOF 6
ENDMDL
MODEL 8
REMARK VINA RESULT:    -6.028      3.258      4.588
REMARK INTER + INTRA:          -9.230
REMARK INTER:                  -8.362
REMARK INTRA:                  -0.868
REMARK UNBOUND:                -1.088
REMARK  Name = 
REMARK  6 active torsions:
REMARK  status: ('A' for Active; 'I' for Inactive)
REMARK    1  A    between atoms: C_2  and  C_25
REMARK    2  A    between atoms: N_3  and  C_4
REMARK    3  A    between atoms: C_4  and  C_5
REMARK    4  A    between atoms: C_8  and  C_9
REMARK    5  A    between atoms: C_9  and  N_10
REMARK    6  A    between atoms: C_11  and  C_13
REMARK                            x       y       z     vdW  Elec       q    Type
REMARK                         _______ _______ _______ _____ _____    ______ ____
ROOT
ATOM      1  C   UNL     1      48.118   7.532  13.117  0.00  0.00    +0.000 A 
ATOM      2  C   UNL     1      48.780   8.723  13.448  0.00  0.00    +0.000 A 
ATOM      3  C   UNL     1      49.358   8.897  14.714  0.00  0.00    +0.000 A 
ATOM      4  C   UNL     1      49.316   7.871  15.669  0.00  0.00    +0.000 A 
ATOM      5  C   UNL     1      48.659   6.679  15.334  0.00  0.00    +0.000 A 
ATOM      6  C   UNL     1      48.076   6.507  14.072  0.00  0.00    +0.000 A 
ENDROOT
BRANCH   1   7
ATOM      7  C   UNL     1      47.466   7.360  11.769  0.00  0.00    +0.000 C 
BRANCH   7  10
ATOM      8  O   UNL     1      44.710   7.299  11.436  0.00  0.00    +0.000 OA
ATOM      9  C   UNL     1      45.296   6.223  11.522  0.00  0.00    +0.000 C 
ATOM     10  N   UNL     1      46.664   6.164  11.699  0.00  0.00    +0.000 N 
ATOM     11  H   UNL     1      47.125   5.265  11.628  0.00  0.00    +0.000 HD
BRANCH   9  12
ATOM     12  C   UNL     1      44.610   4.949  11.437  0.00  0.00    +0.000 A 
ATOM     13  C   UNL     1      44.446   4.151  10.319  0.00  0.00    +0.000 A 
ATOM     14  N   UNL     1      43.718   2.989  10.504  0.00  0.00    +0.000 NA
ATOM     15  C   UNL     1      43.329   2.921  11.757  0.00  0.00    +0.000 A 
ATOM     16  S   UNL     1      43.828   4.206  12.775  0.00  0.00    +0.000 S 
ENDBRANCH   9  12
ENDBRANCH   7  10
ENDBRANCH   1   7
BRANCH   4  17
ATOM     17  C   UNL     1      49.942   8.039  17.037  0.00  0.00    +0.000 C 
BRANCH  17  18
ATOM     18  N   UNL     1      50.832   6.953  17.356  0.00  0.00    +0.000 N 
ATOM     19  C   UNL     1      50.515   6.002  18.299  0.00  0.00    +0.000 C 
ATOM     20  O   UNL     1      49.446   6.000  18.898  0.00  0.00    +0.000 OA
ATOM     21  H   UNL     1      51.805   7.077  17.101  0.00  0.00    +0.000 HD
BRANCH  19  22
ATOM     22  C   UNL     1      51.513   4.937  18.495  0.00  0.00    +0.000 A 
ATOM     23  C   UNL     1      52.692   5.202  19.180  0.00  0.00    +0.000 A 
ATOM     24  S   UNL     1      53.703   3.838  19.354  0.00  0.00    +0.000 S 
ATOM     25  C   UNL     1      52.627   2.856  18.476  0.00  0.00    +0.000 A 
ATOM     26  N   UNL     1      52.908   1.550  18.225  0.00  0.00    +0.000 NA
ATOM     27  C   UNL     1      52.016   0.933  17.528  0.00  0.00    +0.000 A 
ATOM     28  N   UNL     1      50.858   1.502  17.062  0.00  0.00    +0.000 N 
ATOM     29  C   UNL     1      50.515   2.805  17.323  0.00  0.00    +0.000 A 
ATOM     30  O   UNL     1      49.440   3.266  16.943  0.00  0.00    +0.000 OA
ATOM     31  C   UNL     1      51.496   3.553  18.083  0.00  0.00    +0.000 A 
ATOM     32  H   UNL     1      50.190   0.962  16.535  0.00  0.00    +0.000 HD
ENDBRANCH  19  22
ENDBRANCH  17  18
ENDBRANCH   4  17
TORSDOF 6
ENDMDL
MODEL 9
REMARK VINA RESULT:    -5.894      5.467      8.123
REMARK INTER + INTRA:          -9.049
REMARK INTER:                  -8.114
REMARK INTRA:                  -0.936
REMARK UNBOUND:                -1.088
REMARK  Name = 
REMARK  6 active torsions:
REMARK  status: ('A' for Active; 'I' for Inactive)
REMARK    1  A    between atoms: C_2  and  C_25
REMARK    2  A    between atoms: N_3  and  C_4
REMARK    3  A    between atoms: C_4  and  C_5
REMARK    4  A    between atoms: C_8  and  C_9
REMARK    5  A    between atoms: C_9  and  N_10
REMARK    6  A    between atoms: C_11  and  C_13
REMARK                            x       y       z     vdW  Elec       q    Type
REMARK                         _______ _______ _______ _____ _____    ______ ____
ROOT
ATOM      1  C   UNL     1      47.853   8.541  12.924  0.00  0.00    +0.000 A 
ATOM      2  C   UNL     1      48.785   7.870  13.729  0.00  0.00    +0.000 A 
ATOM      3  C   UNL     1      50.146   7.851  13.391  0.00  0.00    +0.000 A 
ATOM      4  C   UNL     1      50.613   8.529  12.257  0.00  0.00    +0.000 A 
ATOM      5  C   UNL     1      49.681   9.203  11.456  0.00  0.00    +0.000 A 
ATOM      6  C   UNL     1      48.320   9.218  11.790  0.00  0.00    +0.000 A 
ENDROOT
BRANCH   1   7
ATOM      7  C   UNL     1      46.386   8.531  13.269  0.00  0.00    +0.000 C 
BRANCH   7  10
ATOM      8  O   UNL     1      44.587   7.624  11.358  0.00  0.00    +0.000 OA
ATOM      9  C   UNL     1      44.939   6.832  12.228  0.00  0.00    +0.000 C 
ATOM     10  N   UNL     1      45.823   7.204  13.221  0.00  0.00    +0.000 N 
ATOM     11  H   UNL     1      46.192   6.490  13.836  0.00  0.00    +0.000 HD
BRANCH   9  12
ATOM     12  C   UNL     1      44.470   5.462  12.275  0.00  0.00    +0.000 A 
ATOM     13  C   UNL     1      45.028   4.402  12.968  0.00  0.00    +0.000 A 
ATOM     14  N   UNL     1      44.396   3.180  12.819  0.00  0.00    +0.000 NA
ATOM     15  C   UNL     1      43.371   3.322  12.009  0.00  0.00    +0.000 A 
ATOM     16  S   UNL     1      43.092   4.904  11.412  0.00  0.00    +0.000 S 
ENDBRANCH   9  12
ENDBRANCH   7  10
ENDBRANCH   1   7
BRANCH   4  17
ATOM     17  C   UNL     1      52.079   8.525  11.882  0.00  0.00    +0.000 C 
BRANCH  17  18
ATOM     18  N   UNL     1      52.282   8.121  10.515  0.00  0.00    +0.000 N 
ATOM     19  C   UNL     1      53.291   8.645   9.740  0.00  0.00    +0.000 C 
ATOM     20  O   UNL     1      54.098   9.459  10.173  0.00  0.00    +0.000 OA
ATOM     21  H   UNL     1      51.493   7.683  10.052  0.00  0.00    +0.000 HD
BRANCH  19  22
ATOM     22  C   UNL     1      53.390   8.112   8.370  0.00  0.00    +0.000 A 
ATOM     23  C   UNL     1      53.293   8.966   7.280  0.00  0.00    +0.000 A 
ATOM     24  S   UNL     1      53.482   8.180   5.776  0.00  0.00    +0.000 S 
ATOM     25  C   UNL     1      53.648   6.662   6.526  0.00  0.00    +0.000 A 
ATOM     26  N   UNL     1      53.811   5.528   5.794  0.00  0.00    +0.000 NA
ATOM     27  C   UNL     1      53.899   4.447   6.491  0.00  0.00    +0.000 A 
ATOM     28  N   UNL     1      53.846   4.395   7.861  0.00  0.00    +0.000 N 
ATOM     29  C   UNL     1      53.720   5.518   8.641  0.00  0.00    +0.000 A 
ATOM     30  O   UNL     1      53.738   5.441   9.868  0.00  0.00    +0.000 OA
ATOM     31  C   UNL     1      53.592   6.759   7.907  0.00  0.00    +0.000 A 
ATOM     32  H   UNL     1      53.937   3.519   8.351  0.00  0.00    +0.000 HD
ENDBRANCH  19  22
ENDBRANCH  17  18
ENDBRANCH   4  17
TORSDOF 6
ENDMDL
