MODEL 1
REMARK VINA RESULT:    -8.215      0.000      0.000
REMARK INTER + INTRA:         -12.842
REMARK INTER:                 -12.297
REMARK INTRA:                  -0.545
REMARK UNBOUND:                -0.545
REMARK  Name = 
REMARK  9 active torsions:
REMARK  status: ('A' for Active; 'I' for Inactive)
REMARK    1  A    between atoms: N_1  and  C_2
REMARK    2  A    between atoms: C_2  and  C_3
REMARK    3  A    between atoms: C_3  and  C_4
REMARK    4  A    between atoms: C_4  and  O_5
REMARK    5  A    between atoms: O_5  and  C_6
REMARK    6  A    between atoms: C_9  and  C_10
REMARK    7  A    between atoms: C_10  and  O_11
REMARK    8  A    between atoms: O_11  and  C_12
REMARK    9  A    between atoms: C_15  and  C_16
REMARK                            x       y       z     vdW  Elec       q    Type
REMARK                         _______ _______ _______ _____ _____    ______ ____
ROOT
ATOM      1  C   UNL     1      46.816   4.351  13.962  0.00  0.00    +0.000 A 
ATOM      2  C   UNL     1      46.301   5.588  13.598  0.00  0.00    +0.000 A 
ATOM      3  N   UNL     1      45.315   5.729  12.663  0.00  0.00    +0.000 NA
ATOM      4  C   UNL     1      44.864   4.573  12.101  0.00  0.00    +0.000 A 
ATOM      5  C   UNL     1      45.382   3.344  12.490  0.00  0.00    +0.000 A 
ATOM      6  N   UNL     1      46.342   3.209  13.429  0.00  0.00    +0.000 NA
ENDROOT
BRANCH   1   7
ATOM      7  O   UNL     1      47.830   4.262  14.887  0.00  0.00    +0.000 OA
BRANCH   7   8
ATOM      8  C   UNL     1      47.344   4.488  16.228  0.00  0.00    +0.000 C 
BRANCH   8   9
ATOM      9  C   UNL     1      47.524   3.210  17.044  0.00  0.00    +0.000 C 
BRANCH   9  10
ATOM     10  C   UNL     1      48.979   2.748  17.044  0.00  0.00    +0.000 C 
BRANCH  10  11
ATOM     11  N   UNL     1      49.224   1.815  15.948  0.00  0.00    +0.000 NA
ATOM     12  H   UNL     1      50.222   1.610  15.891  0.00  0.00    +0.000 HD
ATOM     13  H   UNL     1      48.974   2.250  15.061  0.00  0.00    +0.000 HD
ENDBRANCH  10  11
ENDBRANCH   9  10
ENDBRANCH   8   9
ENDBRANCH   7   8
ENDBRANCH   1   7
BRANCH   4  14
ATOM     14  C   UNL     1      43.775   4.629  11.053  0.00  0.00    +0.000 C 
BRANCH  14  15
ATOM     15  O   UNL     1      43.730   3.399  10.328  0.00  0.00    +0.000 OA
BRANCH  15  16
ATOM     16  C   UNL     1      44.660   3.223   9.340  0.00  0.00    +0.000 A 
ATOM     17  C   UNL     1      45.214   4.223   8.539  0.00  0.00    +0.000 A 
ATOM     18  C   UNL     1      46.173   3.899   7.568  0.00  0.00    +0.000 A 
ATOM     19  C   UNL     1      46.604   2.577   7.395  0.00  0.00    +0.000 A 
ATOM     20  C   UNL     1      46.064   1.577   8.212  0.00  0.00    +0.000 A 
ATOM     21  C   UNL     1      45.089   1.904   9.164  0.00  0.00    +0.000 A 
BRANCH  19  22
ATOM     22  C   UNL     1      47.591   2.288   6.324  0.00  0.00    +0.000 C 
ATOM     23  N   UNL     1      47.666   3.139   5.259  0.00  0.00    +0.000 N 
ATOM     24  O   UNL     1      48.315   1.290   6.377  0.00  0.00    +0.000 OA
ATOM     25  H   UNL     1      47.088   3.958   5.134  0.00  0.00    +0.000 HD
ATOM     26  H   UNL     1      48.347   2.919   4.544  0.00  0.00    +0.000 HD
ENDBRANCH  19  22
ENDBRANCH  15  16
ENDBRANCH  14  15
ENDBRANCH   4  14
TORSDOF 9
ENDMDL
MODEL 2
REMARK VINA RESULT:    -8.039      0.701      1.557
REMARK INTER + INTRA:         -12.579
REMARK INTER:                 -11.875
REMARK INTRA:                  -0.704
REMARK UNBOUND:                -0.545
REMARK  Name = 
REMARK  9 active torsions:
REMARK  status: ('A' for Active; 'I' for Inactive)
REMARK    1  A    between atoms: N_1  and  C_2
REMARK    2  A    between atoms: C_2  and  C_3
REMARK    3  A    between atoms: C_3  and  C_4
REMARK    4  A    between atoms: C_4  and  O_5
REMARK    5  A    between atoms: O_5  and  C_6
REMARK    6  A    between atoms: C_9  and  C_10
REMARK    7  A    between atoms: C_10  and  O_11
REMARK    8  A    between atoms: O_11  and  C_12
REMARK    9  A    between atoms: C_15  and  C_16
REMARK                            x       y       z     vdW  Elec       q    Type
REMARK                         _______ _______ _______ _____ _____    ______ ____
ROOT
ATOM      1  C   UNL     1      46.812   4.727  14.010  0.00  0.00    +0.000 A 
ATOM      2  C   UNL     1      46.741   3.395  13.618  0.00  0.00    +0.000 A 
ATOM      3  N   UNL     1      45.740   2.914  12.824  0.00  0.00    +0.000 NA
ATOM      4  C   UNL     1      44.804   3.825  12.435  0.00  0.00    +0.000 A 
ATOM      5  C   UNL     1      44.901   5.154  12.825  0.00  0.00    +0.000 A 
ATOM      6  N   UNL     1      45.904   5.629  13.594  0.00  0.00    +0.000 NA
ENDROOT
BRANCH   1   7
ATOM      7  O   UNL     1      47.823   5.158  14.836  0.00  0.00    +0.000 OA
BRANCH   7   8
ATOM      8  C   UNL     1      47.561   4.818  16.214  0.00  0.00    +0.000 C 
BRANCH   8   9
ATOM      9  C   UNL     1      48.758   4.052  16.774  0.00  0.00    +0.000 C 
BRANCH   9  10
ATOM     10  C   UNL     1      48.486   2.551  16.823  0.00  0.00    +0.000 C 
BRANCH  10  11
ATOM     11  N   UNL     1      49.473   1.823  16.031  0.00  0.00    +0.000 NA
ATOM     12  H   UNL     1      49.112   1.673  15.089  0.00  0.00    +0.000 HD
ATOM     13  H   UNL     1      49.619   0.895  16.428  0.00  0.00    +0.000 HD
ENDBRANCH  10  11
ENDBRANCH   9  10
ENDBRANCH   8   9
ENDBRANCH   7   8
ENDBRANCH   1   7
BRANCH   4  14
ATOM     14  C   UNL     1      43.655   3.384  11.556  0.00  0.00    +0.000 C 
BRANCH  14  15
ATOM     15  O   UNL     1      43.750   4.012  10.276  0.00  0.00    +0.000 OA
BRANCH  15  16
ATOM     16  C   UNL     1      44.677   3.508   9.403  0.00  0.00    +0.000 A 
ATOM     17  C   UNL     1      44.953   2.160   9.178  0.00  0.00    +0.000 A 
ATOM     18  C   UNL     1      45.927   1.785   8.239  0.00  0.00    +0.000 A 
ATOM     19  C   UNL     1      46.623   2.751   7.501  0.00  0.00    +0.000 A 
ATOM     20  C   UNL     1      46.330   4.104   7.711  0.00  0.00    +0.000 A 
ATOM     21  C   UNL     1      45.375   4.472   8.667  0.00  0.00    +0.000 A 
BRANCH  19  22
ATOM     22  C   UNL     1      47.670   2.297   6.550  0.00  0.00    +0.000 C 
ATOM     23  N   UNL     1      47.795   2.950   5.359  0.00  0.00    +0.000 N 
ATOM     24  O   UNL     1      48.397   1.336   6.815  0.00  0.00    +0.000 OA
ATOM     25  H   UNL     1      47.219   3.725   5.061  0.00  0.00    +0.000 HD
ATOM     26  H   UNL     1      48.517   2.621   4.730  0.00  0.00    +0.000 HD
ENDBRANCH  19  22
ENDBRANCH  15  16
ENDBRANCH  14  15
ENDBRANCH   4  14
TORSDOF 9
ENDMDL
MODEL 3
REMARK VINA RESULT:    -7.961      1.778      3.023
REMARK INTER + INTRA:         -12.462
REMARK INTER:                 -11.335
REMARK INTRA:                  -1.127
REMARK UNBOUND:                -0.545
REMARK  Name = 
REMARK  9 active torsions:
REMARK  status: ('A' for Active; 'I' for Inactive)
REMARK    1  A    between atoms: N_1  and  C_2
REMARK    2  A    between atoms: C_2  and  C_3
REMARK    3  A    between atoms: C_3  and  C_4
REMARK    4  A    between atoms: C_4  and  O_5
REMARK    5  A    between atoms: O_5  and  C_6
REMARK    6  A    between atoms: C_9  and  C_10
REMARK    7  A    between atoms: C_10  and  O_11
REMARK    8  A    between atoms: O_11  and  C_12
REMARK    9  A    between atoms: C_15  and  C_16
REMARK                            x       y       z     vdW  Elec       q    Type
REMARK                         _______ _______ _______ _____ _____    ______ ____
ROOT
ATOM      1  C   UNL     1      46.845   5.094  13.682  0.00  0.00    +0.000 A 
ATOM      2  C   UNL     1      46.845   3.712  13.537  0.00  0.00    +0.000 A 
ATOM      3  N   UNL     1      45.830   3.037  12.921  0.00  0.00    +0.000 NA
ATOM      4  C   UNL     1      44.807   3.806  12.454  0.00  0.00    +0.000 A 
ATOM      5  C   UNL     1      44.833   5.187  12.596  0.00  0.00    +0.000 A 
ATOM      6  N   UNL     1      45.848   5.851  13.188  0.00  0.00    +0.000 NA
ENDROOT
BRANCH   1   7
ATOM      7  O   UNL     1      47.876   5.726  14.338  0.00  0.00    +0.000 OA
BRANCH   7   8
ATOM      8  C   UNL     1      48.554   6.665  13.475  0.00  0.00    +0.000 C 
BRANCH   8   9
ATOM      9  C   UNL     1      49.149   7.783  14.328  0.00  0.00    +0.000 C 
BRANCH   9  10
ATOM     10  C   UNL     1      48.264   9.027  14.314  0.00  0.00    +0.000 C 
BRANCH  10  11
ATOM     11  N   UNL     1      46.868   8.664  14.091  0.00  0.00    +0.000 NA
ATOM     12  H   UNL     1      46.489   9.217  13.322  0.00  0.00    +0.000 HD
ATOM     13  H   UNL     1      46.313   8.903  14.912  0.00  0.00    +0.000 HD
ENDBRANCH  10  11
ENDBRANCH   9  10
ENDBRANCH   8   9
ENDBRANCH   7   8
ENDBRANCH   1   7
BRANCH   4  14
ATOM     14  C   UNL     1      43.636   3.145  11.759  0.00  0.00    +0.000 C 
BRANCH  14  15
ATOM     15  O   UNL     1      43.521   3.636  10.422  0.00  0.00    +0.000 OA
BRANCH  15  16
ATOM     16  C   UNL     1      44.471   3.227   9.525  0.00  0.00    +0.000 A 
ATOM     17  C   UNL     1      44.901   1.917   9.317  0.00  0.00    +0.000 A 
ATOM     18  C   UNL     1      45.879   1.639   8.349  0.00  0.00    +0.000 A 
ATOM     19  C   UNL     1      46.426   2.665   7.566  0.00  0.00    +0.000 A 
ATOM     20  C   UNL     1      45.978   3.977   7.759  0.00  0.00    +0.000 A 
ATOM     21  C   UNL     1      45.020   4.250   8.744  0.00  0.00    +0.000 A 
BRANCH  19  22
ATOM     22  C   UNL     1      47.485   2.317   6.585  0.00  0.00    +0.000 C 
ATOM     23  N   UNL     1      47.497   2.961   5.382  0.00  0.00    +0.000 N 
ATOM     24  O   UNL     1      48.326   1.449   6.836  0.00  0.00    +0.000 OA
ATOM     25  H   UNL     1      46.827   3.661   5.096  0.00  0.00    +0.000 HD
ATOM     26  H   UNL     1      48.230   2.706   4.733  0.00  0.00    +0.000 HD
ENDBRANCH  19  22
ENDBRANCH  15  16
ENDBRANCH  14  15
ENDBRANCH   4  14
TORSDOF 9
ENDMDL
MODEL 4
REMARK VINA RESULT:    -7.338      2.494      3.141
REMARK INTER + INTRA:         -11.530
REMARK INTER:                 -10.437
REMARK INTRA:                  -1.092
REMARK UNBOUND:                -0.545
REMARK  Name = 
REMARK  9 active torsions:
REMARK  status: ('A' for Active; 'I' for Inactive)
REMARK    1  A    between atoms: N_1  and  C_2
REMARK    2  A    between atoms: C_2  and  C_3
REMARK    3  A    between atoms: C_3  and  C_4
REMARK    4  A    between atoms: C_4  and  O_5
REMARK    5  A    between atoms: O_5  and  C_6
REMARK    6  A    between atoms: C_9  and  C_10
REMARK    7  A    between atoms: C_10  and  O_11
REMARK    8  A    between atoms: O_11  and  C_12
REMARK    9  A    between atoms: C_15  and  C_16
REMARK                            x       y       z     vdW  Elec       q    Type
REMARK                         _______ _______ _______ _____ _____    ______ ____
ROOT
ATOM      1  C   UNL     1      45.951   6.965  12.867  0.00  0.00    +0.000 A 
ATOM      2  C   UNL     1      44.679   6.987  12.308  0.00  0.00    +0.000 A 
ATOM      3  N   UNL     1      44.015   5.851  11.945  0.00  0.00    +0.000 NA
ATOM      4  C   UNL     1      44.681   4.682  12.161  0.00  0.00    +0.000 A 
ATOM      5  C   UNL     1      45.946   4.680  12.735  0.00  0.00    +0.000 A 
ATOM      6  N   UNL     1      46.590   5.805  13.110  0.00  0.00    +0.000 NA
ENDROOT
BRANCH   1   7
ATOM      7  O   UNL     1      46.593   8.139  13.189  0.00  0.00    +0.000 OA
BRANCH   7   8
ATOM      8  C   UNL     1      47.500   8.549  12.143  0.00  0.00    +0.000 C 
BRANCH   8   9
ATOM      9  C   UNL     1      48.809   9.016  12.776  0.00  0.00    +0.000 C 
BRANCH   9  10
ATOM     10  C   UNL     1      49.930   8.007  12.548  0.00  0.00    +0.000 C 
BRANCH  10  11
ATOM     11  N   UNL     1      49.477   6.654  12.857  0.00  0.00    +0.000 NA
ATOM     12  H   UNL     1      48.458   6.620  12.828  0.00  0.00    +0.000 HD
ATOM     13  H   UNL     1      49.741   6.410  13.810  0.00  0.00    +0.000 HD
ENDBRANCH  10  11
ENDBRANCH   9  10
ENDBRANCH   8   9
ENDBRANCH   7   8
ENDBRANCH   1   7
BRANCH   4  14
ATOM     14  C   UNL     1      44.026   3.371  11.787  0.00  0.00    +0.000 C 
BRANCH  14  15
ATOM     15  O   UNL     1      43.574   3.420  10.433  0.00  0.00    +0.000 OA
BRANCH  15  16
ATOM     16  C   UNL     1      44.517   3.249   9.455  0.00  0.00    +0.000 A 
ATOM     17  C   UNL     1      45.054   4.248   8.642  0.00  0.00    +0.000 A 
ATOM     18  C   UNL     1      46.029   3.930   7.684  0.00  0.00    +0.000 A 
ATOM     19  C   UNL     1      46.491   2.615   7.537  0.00  0.00    +0.000 A 
ATOM     20  C   UNL     1      45.968   1.617   8.367  0.00  0.00    +0.000 A 
ATOM     21  C   UNL     1      44.977   1.937   9.305  0.00  0.00    +0.000 A 
BRANCH  19  22
ATOM     22  C   UNL     1      47.494   2.332   6.480  0.00  0.00    +0.000 C 
ATOM     23  N   UNL     1      47.431   3.038   5.314  0.00  0.00    +0.000 N 
ATOM     24  O   UNL     1      48.355   1.461   6.635  0.00  0.00    +0.000 OA
ATOM     25  H   UNL     1      46.740   3.745   5.105  0.00  0.00    +0.000 HD
ATOM     26  H   UNL     1      48.126   2.826   4.611  0.00  0.00    +0.000 HD
ENDBRANCH  19  22
ENDBRANCH  15  16
ENDBRANCH  14  15
ENDBRANCH   4  14
TORSDOF 9
ENDMDL
MODEL 5
REMARK VINA RESULT:    -6.661      2.331      3.301
REMARK INTER + INTRA:         -10.516
REMARK INTER:                 -10.143
REMARK INTRA:                  -0.374
REMARK UNBOUND:                -0.545
REMARK  Name = 
REMARK  9 active torsions:
REMARK  status: ('A' for Active; 'I' for Inactive)
REMARK    1  A    between atoms: N_1  and  C_2
REMARK    2  A    between atoms: C_2  and  C_3
REMARK    3  A    between atoms: C_3  and  C_4
REMARK    4  A    between atoms: C_4  and  O_5
REMARK    5  A    between atoms: O_5  and  C_6
REMARK    6  A    between atoms: C_9  and  C_10
REMARK    7  A    between atoms: C_10  and  O_11
REMARK    8  A    between atoms: O_11  and  C_12
REMARK    9  A    between atoms: C_15  and  C_16
REMARK                            x       y       z     vdW  Elec       q    Type
REMARK                         _______ _______ _______ _____ _____    ______ ____
ROOT
ATOM      1  C   UNL     1      47.119   5.683  13.366  0.00  0.00    +0.000 A 
ATOM      2  C   UNL     1      46.944   6.261  12.115  0.00  0.00    +0.000 A 
ATOM      3  N   UNL     1      45.831   6.044  11.353  0.00  0.00    +0.000 NA
ATOM      4  C   UNL     1      44.894   5.217  11.897  0.00  0.00    +0.000 A 
ATOM      5  C   UNL     1      45.081   4.661  13.155  0.00  0.00    +0.000 A 
ATOM      6  N   UNL     1      46.174   4.894  13.913  0.00  0.00    +0.000 NA
ENDROOT
BRANCH   1   7
ATOM      7  O   UNL     1      48.271   5.907  14.083  0.00  0.00    +0.000 OA
BRANCH   7   8
ATOM      8  C   UNL     1      48.860   7.183  13.753  0.00  0.00    +0.000 C 
BRANCH   8   9
ATOM      9  C   UNL     1      48.156   8.277  14.554  0.00  0.00    +0.000 C 
BRANCH   9  10
ATOM     10  C   UNL     1      48.491   9.665  14.016  0.00  0.00    +0.000 C 
BRANCH  10  11
ATOM     11  N   UNL     1      49.494   9.580  12.959  0.00  0.00    +0.000 NA
ATOM     12  H   UNL     1      49.899  10.502  12.797  0.00  0.00    +0.000 HD
ATOM     13  H   UNL     1      49.051   9.308  12.082  0.00  0.00    +0.000 HD
ENDBRANCH  10  11
ENDBRANCH   9  10
ENDBRANCH   8   9
ENDBRANCH   7   8
ENDBRANCH   1   7
BRANCH   4  14
ATOM     14  C   UNL     1      43.629   4.916  11.125  0.00  0.00    +0.000 C 
BRANCH  14  15
ATOM     15  O   UNL     1      43.891   4.958   9.721  0.00  0.00    +0.000 OA
BRANCH  15  16
ATOM     16  C   UNL     1      44.607   3.919   9.190  0.00  0.00    +0.000 A 
ATOM     17  C   UNL     1      44.415   2.563   9.453  0.00  0.00    +0.000 A 
ATOM     18  C   UNL     1      45.219   1.600   8.824  0.00  0.00    +0.000 A 
ATOM     19  C   UNL     1      46.214   1.979   7.913  0.00  0.00    +0.000 A 
ATOM     20  C   UNL     1      46.393   3.339   7.632  0.00  0.00    +0.000 A 
ATOM     21  C   UNL     1      45.603   4.296   8.282  0.00  0.00    +0.000 A 
BRANCH  19  22
ATOM     22  C   UNL     1      47.061   0.920   7.308  0.00  0.00    +0.000 C 
ATOM     23  N   UNL     1      46.790  -0.383   7.610  0.00  0.00    +0.000 N 
ATOM     24  O   UNL     1      48.007   1.204   6.569  0.00  0.00    +0.000 OA
ATOM     25  H   UNL     1      46.052  -0.691   8.228  0.00  0.00    +0.000 HD
ATOM     26  H   UNL     1      47.382  -1.085   7.185  0.00  0.00    +0.000 HD
ENDBRANCH  19  22
ENDBRANCH  15  16
ENDBRANCH  14  15
ENDBRANCH   4  14
TORSDOF 9
ENDMDL
MODEL 6
REMARK VINA RESULT:    -6.304      2.257      8.896
REMARK INTER + INTRA:          -9.981
REMARK INTER:                  -9.510
REMARK INTRA:                  -0.472
REMARK UNBOUND:                -0.545
REMARK  Name = 
REMARK  9 active torsions:
REMARK  status: ('A' for Active; 'I' for Inactive)
REMARK    1  A    between atoms: N_1  and  C_2
REMARK    2  A    between atoms: C_2  and  C_3
REMARK    3  A    between atoms: C_3  and  C_4
REMARK    4  A    between atoms: C_4  and  O_5
REMARK    5  A    between atoms: O_5  and  C_6
REMARK    6  A    between atoms: C_9  and  C_10
REMARK    7  A    between atoms: C_10  and  O_11
REMARK    8  A    between atoms: O_11  and  C_12
REMARK    9  A    between atoms: C_15  and  C_16
REMARK                            x       y       z     vdW  Elec       q    Type
REMARK                         _______ _______ _______ _____ _____    ______ ____
ROOT
ATOM      1  C   UNL     1      44.706   4.153  10.649  0.00  0.00    +0.000 A 
ATOM      2  C   UNL     1      44.722   3.206  11.665  0.00  0.00    +0.000 A 
ATOM      3  N   UNL     1      45.381   3.404  12.845  0.00  0.00    +0.000 NA
ATOM      4  C   UNL     1      46.031   4.596  12.966  0.00  0.00    +0.000 A 
ATOM      5  C   UNL     1      45.990   5.535  11.944  0.00  0.00    +0.000 A 
ATOM      6  N   UNL     1      45.320   5.342  10.788  0.00  0.00    +0.000 NA
ENDROOT
BRANCH   1   7
ATOM      7  O   UNL     1      44.053   3.895   9.466  0.00  0.00    +0.000 OA
BRANCH   7   8
ATOM      8  C   UNL     1      44.945   4.001   8.336  0.00  0.00    +0.000 C 
BRANCH   8   9
ATOM      9  C   UNL     1      45.678   2.673   8.155  0.00  0.00    +0.000 C 
BRANCH   9  10
ATOM     10  C   UNL     1      46.790   2.787   7.117  0.00  0.00    +0.000 C 
BRANCH  10  11
ATOM     11  N   UNL     1      47.005   4.181   6.742  0.00  0.00    +0.000 NA
ATOM     12  H   UNL     1      46.228   4.503   6.164  0.00  0.00    +0.000 HD
ATOM     13  H   UNL     1      47.840   4.258   6.161  0.00  0.00    +0.000 HD
ENDBRANCH  10  11
ENDBRANCH   9  10
ENDBRANCH   8   9
ENDBRANCH   7   8
ENDBRANCH   1   7
BRANCH   4  14
ATOM     14  C   UNL     1      46.792   4.903  14.237  0.00  0.00    +0.000 C 
BRANCH  14  15
ATOM     15  O   UNL     1      47.002   3.703  14.983  0.00  0.00    +0.000 OA
BRANCH  15  16
ATOM     16  C   UNL     1      47.549   3.834  16.232  0.00  0.00    +0.000 A 
ATOM     17  C   UNL     1      47.598   2.851  17.220  0.00  0.00    +0.000 A 
ATOM     18  C   UNL     1      48.205   3.122  18.456  0.00  0.00    +0.000 A 
ATOM     19  C   UNL     1      48.785   4.371  18.714  0.00  0.00    +0.000 A 
ATOM     20  C   UNL     1      48.756   5.350  17.714  0.00  0.00    +0.000 A 
ATOM     21  C   UNL     1      48.127   5.082  16.491  0.00  0.00    +0.000 A 
BRANCH  19  22
ATOM     22  C   UNL     1      49.378   4.613  20.054  0.00  0.00    +0.000 C 
ATOM     23  N   UNL     1      50.718   4.418  20.220  0.00  0.00    +0.000 N 
ATOM     24  O   UNL     1      48.675   4.960  21.008  0.00  0.00    +0.000 OA
ATOM     25  H   UNL     1      51.350   4.109  19.495  0.00  0.00    +0.000 HD
ATOM     26  H   UNL     1      51.096   4.591  21.142  0.00  0.00    +0.000 HD
ENDBRANCH  19  22
ENDBRANCH  15  16
ENDBRANCH  14  15
ENDBRANCH   4  14
TORSDOF 9
ENDMDL
MODEL 7
REMARK VINA RESULT:    -6.171      2.526      3.073
REMARK INTER + INTRA:          -9.783
REMARK INTER:                  -9.004
REMARK INTRA:                  -0.779
REMARK UNBOUND:                -0.545
REMARK  Name = 
REMARK  9 active torsions:
REMARK  status: ('A' for Active; 'I' for Inactive)
REMARK    1  A    between atoms: N_1  and  C_2
REMARK    2  A    between atoms: C_2  and  C_3
REMARK    3  A    between atoms: C_3  and  C_4
REMARK    4  A    between atoms: C_4  and  O_5
REMARK    5  A    between atoms: O_5  and  C_6
REMARK    6  A    between atoms: C_9  and  C_10
REMARK    7  A    between atoms: C_10  and  O_11
REMARK    8  A    between atoms: O_11  and  C_12
REMARK    9  A    between atoms: C_15  and  C_16
REMARK                            x       y       z     vdW  Elec       q    Type
REMARK                         _______ _______ _______ _____ _____    ______ ____
ROOT
ATOM      1  C   UNL     1      47.590   6.172  13.450  0.00  0.00    +0.000 A 
ATOM      2  C   UNL     1      47.101   4.889  13.661  0.00  0.00    +0.000 A 
ATOM      3  N   UNL     1      45.873   4.487  13.219  0.00  0.00    +0.000 NA
ATOM      4  C   UNL     1      45.147   5.429  12.555  0.00  0.00    +0.000 A 
ATOM      5  C   UNL     1      45.660   6.702  12.341  0.00  0.00    +0.000 A 
ATOM      6  N   UNL     1      46.883   7.088  12.763  0.00  0.00    +0.000 NA
ENDROOT
BRANCH   1   7
ATOM      7  O   UNL     1      48.822   6.539  13.941  0.00  0.00    +0.000 OA
BRANCH   7   8
ATOM      8  C   UNL     1      48.739   7.749  14.724  0.00  0.00    +0.000 C 
BRANCH   8   9
ATOM      9  C   UNL     1      49.751   8.759  14.187  0.00  0.00    +0.000 C 
BRANCH   9  10
ATOM     10  C   UNL     1      51.180   8.355  14.535  0.00  0.00    +0.000 C 
BRANCH  10  11
ATOM     11  N   UNL     1      51.189   7.168  15.384  0.00  0.00    +0.000 NA
ATOM     12  H   UNL     1      51.161   7.449  16.364  0.00  0.00    +0.000 HD
ATOM     13  H   UNL     1      52.064   6.660  15.261  0.00  0.00    +0.000 HD
ENDBRANCH  10  11
ENDBRANCH   9  10
ENDBRANCH   8   9
ENDBRANCH   7   8
ENDBRANCH   1   7
BRANCH   4  14
ATOM     14  C   UNL     1      43.772   5.077  12.030  0.00  0.00    +0.000 C 
BRANCH  14  15
ATOM     15  O   UNL     1      43.730   5.253  10.613  0.00  0.00    +0.000 OA
BRANCH  15  16
ATOM     16  C   UNL     1      44.437   4.360   9.854  0.00  0.00    +0.000 A 
ATOM     17  C   UNL     1      45.373   4.672   8.868  0.00  0.00    +0.000 A 
ATOM     18  C   UNL     1      46.036   3.649   8.173  0.00  0.00    +0.000 A 
ATOM     19  C   UNL     1      45.784   2.301   8.466  0.00  0.00    +0.000 A 
ATOM     20  C   UNL     1      44.861   1.988   9.470  0.00  0.00    +0.000 A 
ATOM     21  C   UNL     1      44.185   3.015  10.143  0.00  0.00    +0.000 A 
BRANCH  19  22
ATOM     22  C   UNL     1      46.485   1.262   7.671  0.00  0.00    +0.000 C 
ATOM     23  N   UNL     1      47.100   1.632   6.510  0.00  0.00    +0.000 N 
ATOM     24  O   UNL     1      46.495   0.082   8.032  0.00  0.00    +0.000 OA
ATOM     25  H   UNL     1      47.111   2.571   6.137  0.00  0.00    +0.000 HD
ATOM     26  H   UNL     1      47.571   0.904   5.988  0.00  0.00    +0.000 HD
ENDBRANCH  19  22
ENDBRANCH  15  16
ENDBRANCH  14  15
ENDBRANCH   4  14
TORSDOF 9
ENDMDL
MODEL 8
REMARK VINA RESULT:    -5.822      3.883      8.859
REMARK INTER + INTRA:          -9.261
REMARK INTER:                  -8.296
REMARK INTRA:                  -0.964
REMARK UNBOUND:                -0.545
REMARK  Name = 
REMARK  9 active torsions:
REMARK  status: ('A' for Active; 'I' for Inactive)
REMARK    1  A    between atoms: N_1  and  C_2
REMARK    2  A    between atoms: C_2  and  C_3
REMARK    3  A    between atoms: C_3  and  C_4
REMARK    4  A    between atoms: C_4  and  O_5
REMARK    5  A    between atoms: O_5  and  C_6
REMARK    6  A    between atoms: C_9  and  C_10
REMARK    7  A    between atoms: C_10  and  O_11
REMARK    8  A    between atoms: O_11  and  C_12
REMARK    9  A    between atoms: C_15  and  C_16
REMARK                            x       y       z     vdW  Elec       q    Type
REMARK                         _______ _______ _______ _____ _____    ______ ____
ROOT
ATOM      1  C   UNL     1      46.667   5.027  13.817  0.00  0.00    +0.000 A 
ATOM      2  C   UNL     1      47.648   5.969  14.100  0.00  0.00    +0.000 A 
ATOM      3  N   UNL     1      48.384   5.942  15.251  0.00  0.00    +0.000 NA
ATOM      4  C   UNL     1      48.095   4.929  16.114  0.00  0.00    +0.000 A 
ATOM      5  C   UNL     1      47.121   3.988  15.805  0.00  0.00    +0.000 A 
ATOM      6  N   UNL     1      46.410   4.007  14.658  0.00  0.00    +0.000 NA
ENDROOT
BRANCH   1   7
ATOM      7  O   UNL     1      45.931   5.113  12.658  0.00  0.00    +0.000 OA
BRANCH   7   8
ATOM      8  C   UNL     1      44.742   5.910  12.846  0.00  0.00    +0.000 C 
BRANCH   8   9
ATOM      9  C   UNL     1      43.516   5.055  12.531  0.00  0.00    +0.000 C 
BRANCH   9  10
ATOM     10  C   UNL     1      43.889   3.827  11.706  0.00  0.00    +0.000 C 
BRANCH  10  11
ATOM     11  N   UNL     1      44.223   2.703  12.575  0.00  0.00    +0.000 NA
ATOM     12  H   UNL     1      43.944   2.917  13.532  0.00  0.00    +0.000 HD
ATOM     13  H   UNL     1      45.234   2.573  12.598  0.00  0.00    +0.000 HD
ENDBRANCH  10  11
ENDBRANCH   9  10
ENDBRANCH   8   9
ENDBRANCH   7   8
ENDBRANCH   1   7
BRANCH   4  14
ATOM     14  C   UNL     1      48.856   4.819  17.416  0.00  0.00    +0.000 C 
BRANCH  14  15
ATOM     15  O   UNL     1      50.262   4.893  17.169  0.00  0.00    +0.000 OA
BRANCH  15  16
ATOM     16  C   UNL     1      50.992   3.756  17.384  0.00  0.00    +0.000 A 
ATOM     17  C   UNL     1      50.552   2.444  17.202  0.00  0.00    +0.000 A 
ATOM     18  C   UNL     1      51.418   1.368  17.450  0.00  0.00    +0.000 A 
ATOM     19  C   UNL     1      52.738   1.588  17.865  0.00  0.00    +0.000 A 
ATOM     20  C   UNL     1      53.187   2.904  18.026  0.00  0.00    +0.000 A 
ATOM     21  C   UNL     1      52.310   3.974  17.800  0.00  0.00    +0.000 A 
BRANCH  19  22
ATOM     22  C   UNL     1      53.596   0.410  18.151  0.00  0.00    +0.000 C 
ATOM     23  N   UNL     1      53.714  -0.558  17.196  0.00  0.00    +0.000 N 
ATOM     24  O   UNL     1      54.174   0.291  19.235  0.00  0.00    +0.000 OA
ATOM     25  H   UNL     1      53.250  -0.542  16.298  0.00  0.00    +0.000 HD
ATOM     26  H   UNL     1      54.305  -1.349  17.416  0.00  0.00    +0.000 HD
ENDBRANCH  19  22
ENDBRANCH  15  16
ENDBRANCH  14  15
ENDBRANCH   4  14
TORSDOF 9
ENDMDL
MODEL 9
REMARK VINA RESULT:    -5.792      2.199      8.224
REMARK INTER + INTRA:          -9.215
REMARK INTER:                  -8.677
REMARK INTRA:                  -0.539
REMARK UNBOUND:                -0.545
REMARK  Name = 
REMARK  9 active torsions:
REMARK  status: ('A' for Active; 'I' for Inactive)
REMARK    1  A    between atoms: N_1  and  C_2
REMARK    2  A    between atoms: C_2  and  C_3
REMARK    3  A    between atoms: C_3  and  C_4
REMARK    4  A    between atoms: C_4  and  O_5
REMARK    5  A    between atoms: O_5  and  C_6
REMARK    6  A    between atoms: C_9  and  C_10
REMARK    7  A    between atoms: C_10  and  O_11
REMARK    8  A    between atoms: O_11  and  C_12
REMARK    9  A    between atoms: C_15  and  C_16
REMARK                            x       y       z     vdW  Elec       q    Type
REMARK                         _______ _______ _______ _____ _____    ______ ____
ROOT
ATOM      1  C   UNL     1      44.997   4.285  11.704  0.00  0.00    +0.000 A 
ATOM      2  C   UNL     1      45.587   3.262  12.436  0.00  0.00    +0.000 A 
ATOM      3  N   UNL     1      46.288   3.490  13.586  0.00  0.00    +0.000 NA
ATOM      4  C   UNL     1      46.378   4.792  13.975  0.00  0.00    +0.000 A 
ATOM      5  C   UNL     1      45.768   5.798  13.238  0.00  0.00    +0.000 A 
ATOM      6  N   UNL     1      45.059   5.566  12.113  0.00  0.00    +0.000 NA
ENDROOT
BRANCH   1   7
ATOM      7  O   UNL     1      44.327   4.009  10.535  0.00  0.00    +0.000 OA
BRANCH   7   8
ATOM      8  C   UNL     1      45.094   4.409   9.379  0.00  0.00    +0.000 C 
BRANCH   8   9
ATOM      9  C   UNL     1      44.879   3.390   8.262  0.00  0.00    +0.000 C 
BRANCH   9  10
ATOM     10  C   UNL     1      45.160   1.969   8.743  0.00  0.00    +0.000 C 
BRANCH  10  11
ATOM     11  N   UNL     1      46.349   1.429   8.091  0.00  0.00    +0.000 NA
ATOM     12  H   UNL     1      46.100   1.073   7.168  0.00  0.00    +0.000 HD
ATOM     13  H   UNL     1      46.700   0.630   8.618  0.00  0.00    +0.000 HD
ENDBRANCH  10  11
ENDBRANCH   9  10
ENDBRANCH   8   9
ENDBRANCH   7   8
ENDBRANCH   1   7
BRANCH   4  14
ATOM     14  C   UNL     1      47.138   5.142  15.236  0.00  0.00    +0.000 C 
BRANCH  14  15
ATOM     15  O   UNL     1      47.140   4.028  16.130  0.00  0.00    +0.000 OA
BRANCH  15  16
ATOM     16  C   UNL     1      48.359   3.585  16.570  0.00  0.00    +0.000 A 
ATOM     17  C   UNL     1      49.314   4.338  17.254  0.00  0.00    +0.000 A 
ATOM     18  C   UNL     1      50.521   3.748  17.658  0.00  0.00    +0.000 A 
ATOM     19  C   UNL     1      50.783   2.396  17.399  0.00  0.00    +0.000 A 
ATOM     20  C   UNL     1      49.817   1.635  16.731  0.00  0.00    +0.000 A 
ATOM     21  C   UNL     1      48.623   2.237  16.309  0.00  0.00    +0.000 A 
BRANCH  19  22
ATOM     22  C   UNL     1      52.095   1.837  17.814  0.00  0.00    +0.000 C 
ATOM     23  N   UNL     1      52.749   2.418  18.861  0.00  0.00    +0.000 N 
ATOM     24  O   UNL     1      52.600   0.884  17.214  0.00  0.00    +0.000 OA
ATOM     25  H   UNL     1      52.412   3.216  19.381  0.00  0.00    +0.000 HD
ATOM     26  H   UNL     1      53.640   2.017  19.124  0.00  0.00    +0.000 HD
ENDBRANCH  19  22
ENDBRANCH  15  16
ENDBRANCH  14  15
ENDBRANCH   4  14
TORSDOF 9
ENDMDL
