MODEL 1
REMARK VINA RESULT:    -7.855      0.000      0.000
REMARK INTER + INTRA:         -11.986
REMARK INTER:                 -11.069
REMARK INTRA:                  -0.917
REMARK UNBOUND:                -0.917
REMARK  Name = 
REMARK  8 active torsions:
REMARK  status: ('A' for Active; 'I' for Inactive)
REMARK    1  A    between atoms: N_1  and  C_2
REMARK    2  A    between atoms: C_2  and  C_3
REMARK    3  A    between atoms: C_7  and  O_8
REMARK    4  A    between atoms: O_8  and  C_9
REMARK    5  A    between atoms: C_9  and  C_10
REMARK    6  A    between atoms: C_10  and  C_13
REMARK    7  A    between atoms: C_16  and  C_17
REMARK    8  A    between atoms: C_17  and  O_19
REMARK                            x       y       z     vdW  Elec       q    Type
REMARK                         _______ _______ _______ _____ _____    ______ ____
ROOT
ATOM      1  C   UNL     1      43.738   4.107  12.317  0.00  0.00    +0.000 C 
ATOM      2  F   UNL     1      42.744   4.753  12.991  0.00  0.00    +0.000 F 
ATOM      3  F   UNL     1      43.759   2.837  12.813  0.00  0.00    +0.000 F 
ENDROOT
BRANCH   1   4
ATOM      4  C   UNL     1      45.084   4.805  12.489  0.00  0.00    +0.000 A 
ATOM      5  C   UNL     1      45.991   4.396  13.482  0.00  0.00    +0.000 A 
ATOM      6  C   UNL     1      47.210   5.064  13.660  0.00  0.00    +0.000 A 
ATOM      7  C   UNL     1      47.528   6.165  12.854  0.00  0.00    +0.000 A 
ATOM      8  C   UNL     1      46.635   6.571  11.857  0.00  0.00    +0.000 A 
ATOM      9  C   UNL     1      45.423   5.899  11.677  0.00  0.00    +0.000 A 
BRANCH   7  10
ATOM     10  C   UNL     1      48.816   6.897  12.973  0.00  0.00    +0.000 C 
ATOM     11  O   UNL     1      49.194   7.704  12.140  0.00  0.00    +0.000 OA
BRANCH  10  12
ATOM     12  O   UNL     1      49.507   6.629  14.101  0.00  0.00    +0.000 OA
ATOM     13  H   UNL     1      50.447   6.405  13.974  0.00  0.00    +0.000 HD
ENDBRANCH  10  12
ENDBRANCH   7  10
ENDBRANCH   1   4
BRANCH   1  14
ATOM     14  C   UNL     1      43.389   4.063  10.820  0.00  0.00    +0.000 C 
BRANCH  14  15
ATOM     15  O   UNL     1      43.854   2.872  10.164  0.00  0.00    +0.000 OA
BRANCH  15  20
ATOM     16  C   UNL     1      46.462   1.993   7.751  0.00  0.00    +0.000 A 
ATOM     17  C   UNL     1      46.825   3.253   7.256  0.00  0.00    +0.000 A 
ATOM     18  C   UNL     1      46.219   4.407   7.742  0.00  0.00    +0.000 A 
ATOM     19  C   UNL     1      45.230   4.316   8.720  0.00  0.00    +0.000 A 
ATOM     20  C   UNL     1      44.834   3.069   9.220  0.00  0.00    +0.000 A 
ATOM     21  C   UNL     1      45.459   1.914   8.734  0.00  0.00    +0.000 A 
BRANCH  16  22
ATOM     22  C   UNL     1      47.127   0.756   7.200  0.00  0.00    +0.000 C 
BRANCH  22  23
ATOM     23  N   UNL     1      46.695  -0.445   7.905  0.00  0.00    +0.000 NA
ATOM     24  H   UNL     1      45.688  -0.554   7.802  0.00  0.00    +0.000 HD
ATOM     25  H   UNL     1      46.871  -0.322   8.902  0.00  0.00    +0.000 HD
ENDBRANCH  22  23
ENDBRANCH  16  22
ENDBRANCH  15  20
ENDBRANCH  14  15
ENDBRANCH   1  14
TORSDOF 8
ENDMDL
MODEL 2
REMARK VINA RESULT:    -7.753      3.477      6.402
REMARK INTER + INTRA:         -11.842
REMARK INTER:                 -10.975
REMARK INTRA:                  -0.868
REMARK UNBOUND:                -0.917
REMARK  Name = 
REMARK  8 active torsions:
REMARK  status: ('A' for Active; 'I' for Inactive)
REMARK    1  A    between atoms: N_1  and  C_2
REMARK    2  A    between atoms: C_2  and  C_3
REMARK    3  A    between atoms: C_7  and  O_8
REMARK    4  A    between atoms: O_8  and  C_9
REMARK    5  A    between atoms: C_9  and  C_10
REMARK    6  A    between atoms: C_10  and  C_13
REMARK    7  A    between atoms: C_16  and  C_17
REMARK    8  A    between atoms: C_17  and  O_19
REMARK                            x       y       z     vdW  Elec       q    Type
REMARK                         _______ _______ _______ _____ _____    ______ ____
ROOT
ATOM      1  C   UNL     1      43.988   3.848  10.833  0.00  0.00    +0.000 C 
ATOM      2  F   UNL     1      43.041   2.903  11.103  0.00  0.00    +0.000 F 
ATOM      3  F   UNL     1      43.304   5.004  10.599  0.00  0.00    +0.000 F 
ENDROOT
BRANCH   1   4
ATOM      4  C   UNL     1      44.856   3.453   9.641  0.00  0.00    +0.000 A 
ATOM      5  C   UNL     1      45.152   2.105   9.376  0.00  0.00    +0.000 A 
ATOM      6  C   UNL     1      45.980   1.750   8.302  0.00  0.00    +0.000 A 
ATOM      7  C   UNL     1      46.538   2.745   7.490  0.00  0.00    +0.000 A 
ATOM      8  C   UNL     1      46.240   4.089   7.743  0.00  0.00    +0.000 A 
ATOM      9  C   UNL     1      45.408   4.440   8.810  0.00  0.00    +0.000 A 
BRANCH   7  10
ATOM     10  C   UNL     1      47.399   2.434   6.319  0.00  0.00    +0.000 C 
ATOM     11  O   UNL     1      48.148   1.472   6.290  0.00  0.00    +0.000 OA
BRANCH  10  12
ATOM     12  O   UNL     1      47.247   3.277   5.277  0.00  0.00    +0.000 OA
ATOM     13  H   UNL     1      46.746   4.091   5.465  0.00  0.00    +0.000 HD
ENDBRANCH  10  12
ENDBRANCH   7  10
ENDBRANCH   1   4
BRANCH   1  14
ATOM     14  C   UNL     1      44.889   4.029  12.066  0.00  0.00    +0.000 C 
BRANCH  14  15
ATOM     15  O   UNL     1      44.676   5.276  12.747  0.00  0.00    +0.000 OA
BRANCH  15  20
ATOM     16  C   UNL     1      46.073   8.609  12.166  0.00  0.00    +0.000 A 
ATOM     17  C   UNL     1      47.447   8.336  12.130  0.00  0.00    +0.000 A 
ATOM     18  C   UNL     1      47.915   7.034  12.274  0.00  0.00    +0.000 A 
ATOM     19  C   UNL     1      47.017   5.988  12.472  0.00  0.00    +0.000 A 
ATOM     20  C   UNL     1      45.639   6.233  12.531  0.00  0.00    +0.000 A 
ATOM     21  C   UNL     1      45.176   7.545  12.372  0.00  0.00    +0.000 A 
BRANCH  16  22
ATOM     22  C   UNL     1      45.591  10.030  12.018  0.00  0.00    +0.000 C 
BRANCH  22  23
ATOM     23  N   UNL     1      44.216  10.182  12.480  0.00  0.00    +0.000 NA
ATOM     24  H   UNL     1      43.656   9.403  12.139  0.00  0.00    +0.000 HD
ATOM     25  H   UNL     1      43.821  11.025  12.064  0.00  0.00    +0.000 HD
ENDBRANCH  22  23
ENDBRANCH  16  22
ENDBRANCH  15  20
ENDBRANCH  14  15
ENDBRANCH   1  14
TORSDOF 8
ENDMDL
MODEL 3
REMARK VINA RESULT:    -7.550      2.904      6.174
REMARK INTER + INTRA:         -11.556
REMARK INTER:                 -10.994
REMARK INTRA:                  -0.562
REMARK UNBOUND:                -0.917
REMARK  Name = 
REMARK  8 active torsions:
REMARK  status: ('A' for Active; 'I' for Inactive)
REMARK    1  A    between atoms: N_1  and  C_2
REMARK    2  A    between atoms: C_2  and  C_3
REMARK    3  A    between atoms: C_7  and  O_8
REMARK    4  A    between atoms: O_8  and  C_9
REMARK    5  A    between atoms: C_9  and  C_10
REMARK    6  A    between atoms: C_10  and  C_13
REMARK    7  A    between atoms: C_16  and  C_17
REMARK    8  A    between atoms: C_17  and  O_19
REMARK                            x       y       z     vdW  Elec       q    Type
REMARK                         _______ _______ _______ _____ _____    ______ ____
ROOT
ATOM      1  C   UNL     1      43.888   3.855  10.622  0.00  0.00    +0.000 C 
ATOM      2  F   UNL     1      43.041   2.848  10.982  0.00  0.00    +0.000 F 
ATOM      3  F   UNL     1      43.092   4.904  10.270  0.00  0.00    +0.000 F 
ENDROOT
BRANCH   1   4
ATOM      4  C   UNL     1      44.812   3.436   9.482  0.00  0.00    +0.000 A 
ATOM      5  C   UNL     1      45.125   2.084   9.263  0.00  0.00    +0.000 A 
ATOM      6  C   UNL     1      46.003   1.708   8.237  0.00  0.00    +0.000 A 
ATOM      7  C   UNL     1      46.593   2.686   7.427  0.00  0.00    +0.000 A 
ATOM      8  C   UNL     1      46.278   4.034   7.633  0.00  0.00    +0.000 A 
ATOM      9  C   UNL     1      45.397   4.406   8.652  0.00  0.00    +0.000 A 
BRANCH   7  10
ATOM     10  C   UNL     1      47.509   2.351   6.305  0.00  0.00    +0.000 C 
ATOM     11  O   UNL     1      48.304   1.428   6.357  0.00  0.00    +0.000 OA
BRANCH  10  12
ATOM     12  O   UNL     1      47.351   3.122   5.210  0.00  0.00    +0.000 OA
ATOM     13  H   UNL     1      48.083   3.093   4.567  0.00  0.00    +0.000 HD
ENDBRANCH  10  12
ENDBRANCH   7  10
ENDBRANCH   1   4
BRANCH   1  14
ATOM     14  C   UNL     1      44.746   4.251  11.836  0.00  0.00    +0.000 C 
BRANCH  14  15
ATOM     15  O   UNL     1      45.348   5.550  11.705  0.00  0.00    +0.000 OA
BRANCH  15  20
ATOM     16  C   UNL     1      47.357   5.165  14.740  0.00  0.00    +0.000 A 
ATOM     17  C   UNL     1      48.246   6.242  14.628  0.00  0.00    +0.000 A 
ATOM     18  C   UNL     1      48.165   7.120  13.552  0.00  0.00    +0.000 A 
ATOM     19  C   UNL     1      47.204   6.923  12.563  0.00  0.00    +0.000 A 
ATOM     20  C   UNL     1      46.314   5.844  12.638  0.00  0.00    +0.000 A 
ATOM     21  C   UNL     1      46.393   4.974  13.732  0.00  0.00    +0.000 A 
BRANCH  16  22
ATOM     22  C   UNL     1      47.472   4.222  15.911  0.00  0.00    +0.000 C 
BRANCH  22  23
ATOM     23  N   UNL     1      47.905   2.894  15.492  0.00  0.00    +0.000 NA
ATOM     24  H   UNL     1      48.532   2.506  16.193  0.00  0.00    +0.000 HD
ATOM     25  H   UNL     1      48.450   2.981  14.634  0.00  0.00    +0.000 HD
ENDBRANCH  22  23
ENDBRANCH  16  22
ENDBRANCH  15  20
ENDBRANCH  14  15
ENDBRANCH   1  14
TORSDOF 8
ENDMDL
MODEL 4
REMARK VINA RESULT:    -7.472      3.035      6.082
REMARK INTER + INTRA:         -11.447
REMARK INTER:                 -10.641
REMARK INTRA:                  -0.806
REMARK UNBOUND:                -0.917
REMARK  Name = 
REMARK  8 active torsions:
REMARK  status: ('A' for Active; 'I' for Inactive)
REMARK    1  A    between atoms: N_1  and  C_2
REMARK    2  A    between atoms: C_2  and  C_3
REMARK    3  A    between atoms: C_7  and  O_8
REMARK    4  A    between atoms: O_8  and  C_9
REMARK    5  A    between atoms: C_9  and  C_10
REMARK    6  A    between atoms: C_10  and  C_13
REMARK    7  A    between atoms: C_16  and  C_17
REMARK    8  A    between atoms: C_17  and  O_19
REMARK                            x       y       z     vdW  Elec       q    Type
REMARK                         _______ _______ _______ _____ _____    ______ ____
ROOT
ATOM      1  C   UNL     1      44.037   3.260  10.775  0.00  0.00    +0.000 C 
ATOM      2  F   UNL     1      43.226   2.193  11.026  0.00  0.00    +0.000 F 
ATOM      3  F   UNL     1      43.207   4.332  10.628  0.00  0.00    +0.000 F 
ENDROOT
BRANCH   1   4
ATOM      4  C   UNL     1      44.899   3.037   9.535  0.00  0.00    +0.000 A 
ATOM      5  C   UNL     1      45.316   1.747   9.166  0.00  0.00    +0.000 A 
ATOM      6  C   UNL     1      46.139   1.551   8.048  0.00  0.00    +0.000 A 
ATOM      7  C   UNL     1      46.568   2.650   7.294  0.00  0.00    +0.000 A 
ATOM      8  C   UNL     1      46.147   3.937   7.650  0.00  0.00    +0.000 A 
ATOM      9  C   UNL     1      45.322   4.129   8.761  0.00  0.00    +0.000 A 
BRANCH   7  10
ATOM     10  C   UNL     1      47.415   2.508   6.081  0.00  0.00    +0.000 C 
ATOM     11  O   UNL     1      47.128   3.021   5.013  0.00  0.00    +0.000 OA
BRANCH  10  12
ATOM     12  O   UNL     1      48.550   1.804   6.275  0.00  0.00    +0.000 OA
ATOM     13  H   UNL     1      49.337   2.330   6.504  0.00  0.00    +0.000 HD
ENDBRANCH  10  12
ENDBRANCH   7  10
ENDBRANCH   1   4
BRANCH   1  14
ATOM     14  C   UNL     1      44.958   3.491  11.985  0.00  0.00    +0.000 C 
BRANCH  14  15
ATOM     15  O   UNL     1      44.540   4.587  12.815  0.00  0.00    +0.000 OA
BRANCH  15  20
ATOM     16  C   UNL     1      47.379   6.853  13.262  0.00  0.00    +0.000 A 
ATOM     17  C   UNL     1      46.975   7.964  12.509  0.00  0.00    +0.000 A 
ATOM     18  C   UNL     1      45.741   7.974  11.867  0.00  0.00    +0.000 A 
ATOM     19  C   UNL     1      44.900   6.867  11.957  0.00  0.00    +0.000 A 
ATOM     20  C   UNL     1      45.285   5.736  12.687  0.00  0.00    +0.000 A 
ATOM     21  C   UNL     1      46.523   5.739  13.341  0.00  0.00    +0.000 A 
BRANCH  16  22
ATOM     22  C   UNL     1      48.726   6.862  13.940  0.00  0.00    +0.000 C 
BRANCH  22  23
ATOM     23  N   UNL     1      49.815   6.936  12.972  0.00  0.00    +0.000 NA
ATOM     24  H   UNL     1      50.292   6.037  12.932  0.00  0.00    +0.000 HD
ATOM     25  H   UNL     1      50.502   7.613  13.302  0.00  0.00    +0.000 HD
ENDBRANCH  22  23
ENDBRANCH  16  22
ENDBRANCH  15  20
ENDBRANCH  14  15
ENDBRANCH   1  14
TORSDOF 8
ENDMDL
MODEL 5
REMARK VINA RESULT:    -7.462      2.417      3.090
REMARK INTER + INTRA:         -11.432
REMARK INTER:                 -10.569
REMARK INTRA:                  -0.864
REMARK UNBOUND:                -0.917
REMARK  Name = 
REMARK  8 active torsions:
REMARK  status: ('A' for Active; 'I' for Inactive)
REMARK    1  A    between atoms: N_1  and  C_2
REMARK    2  A    between atoms: C_2  and  C_3
REMARK    3  A    between atoms: C_7  and  O_8
REMARK    4  A    between atoms: O_8  and  C_9
REMARK    5  A    between atoms: C_9  and  C_10
REMARK    6  A    between atoms: C_10  and  C_13
REMARK    7  A    between atoms: C_16  and  C_17
REMARK    8  A    between atoms: C_17  and  O_19
REMARK                            x       y       z     vdW  Elec       q    Type
REMARK                         _______ _______ _______ _____ _____    ______ ____
ROOT
ATOM      1  C   UNL     1      45.176   5.748  10.732  0.00  0.00    +0.000 C 
ATOM      2  F   UNL     1      46.127   5.960   9.777  0.00  0.00    +0.000 F 
ATOM      3  F   UNL     1      44.542   6.944  10.898  0.00  0.00    +0.000 F 
ENDROOT
BRANCH   1   4
ATOM      4  C   UNL     1      45.787   5.245  12.037  0.00  0.00    +0.000 A 
ATOM      5  C   UNL     1      46.561   6.092  12.848  0.00  0.00    +0.000 A 
ATOM      6  C   UNL     1      47.151   5.615  14.027  0.00  0.00    +0.000 A 
ATOM      7  C   UNL     1      46.986   4.275  14.399  0.00  0.00    +0.000 A 
ATOM      8  C   UNL     1      46.208   3.428  13.601  0.00  0.00    +0.000 A 
ATOM      9  C   UNL     1      45.615   3.908  12.430  0.00  0.00    +0.000 A 
BRANCH   7  10
ATOM     10  C   UNL     1      47.560   3.716  15.651  0.00  0.00    +0.000 C 
ATOM     11  O   UNL     1      47.294   4.161  16.754  0.00  0.00    +0.000 OA
BRANCH  10  12
ATOM     12  O   UNL     1      48.362   2.646  15.465  0.00  0.00    +0.000 OA
ATOM     13  H   UNL     1      48.661   2.199  16.278  0.00  0.00    +0.000 HD
ENDBRANCH  10  12
ENDBRANCH   7  10
ENDBRANCH   1   4
BRANCH   1  14
ATOM     14  C   UNL     1      44.168   4.704  10.221  0.00  0.00    +0.000 C 
BRANCH  14  15
ATOM     15  O   UNL     1      44.234   4.501   8.800  0.00  0.00    +0.000 OA
BRANCH  15  20
ATOM     16  C   UNL     1      46.576   2.544   6.781  0.00  0.00    +0.000 A 
ATOM     17  C   UNL     1      46.564   1.312   7.449  0.00  0.00    +0.000 A 
ATOM     18  C   UNL     1      45.754   1.118   8.564  0.00  0.00    +0.000 A 
ATOM     19  C   UNL     1      44.957   2.159   9.035  0.00  0.00    +0.000 A 
ATOM     20  C   UNL     1      44.963   3.406   8.399  0.00  0.00    +0.000 A 
ATOM     21  C   UNL     1      45.770   3.589   7.270  0.00  0.00    +0.000 A 
BRANCH  16  22
ATOM     22  C   UNL     1      47.470   2.732   5.581  0.00  0.00    +0.000 C 
BRANCH  22  23
ATOM     23  N   UNL     1      48.594   1.802   5.596  0.00  0.00    +0.000 NA
ATOM     24  H   UNL     1      48.244   0.849   5.514  0.00  0.00    +0.000 HD
ATOM     25  H   UNL     1      49.058   1.863   6.502  0.00  0.00    +0.000 HD
ENDBRANCH  22  23
ENDBRANCH  16  22
ENDBRANCH  15  20
ENDBRANCH  14  15
ENDBRANCH   1  14
TORSDOF 8
ENDMDL
MODEL 6
REMARK VINA RESULT:    -7.114      3.017      6.311
REMARK INTER + INTRA:         -10.942
REMARK INTER:                 -10.253
REMARK INTRA:                  -0.689
REMARK UNBOUND:                -0.917
REMARK  Name = 
REMARK  8 active torsions:
REMARK  status: ('A' for Active; 'I' for Inactive)
REMARK    1  A    between atoms: N_1  and  C_2
REMARK    2  A    between atoms: C_2  and  C_3
REMARK    3  A    between atoms: C_7  and  O_8
REMARK    4  A    between atoms: O_8  and  C_9
REMARK    5  A    between atoms: C_9  and  C_10
REMARK    6  A    between atoms: C_10  and  C_13
REMARK    7  A    between atoms: C_16  and  C_17
REMARK    8  A    between atoms: C_17  and  O_19
REMARK                            x       y       z     vdW  Elec       q    Type
REMARK                         _______ _______ _______ _____ _____    ______ ____
ROOT
ATOM      1  C   UNL     1      43.990   4.215  10.689  0.00  0.00    +0.000 C 
ATOM      2  F   UNL     1      43.351   3.190  11.323  0.00  0.00    +0.000 F 
ATOM      3  F   UNL     1      43.007   5.038  10.227  0.00  0.00    +0.000 F 
ENDROOT
BRANCH   1   4
ATOM      4  C   UNL     1      44.884   3.711   9.559  0.00  0.00    +0.000 A 
ATOM      5  C   UNL     1      45.067   2.335   9.338  0.00  0.00    +0.000 A 
ATOM      6  C   UNL     1      45.918   1.878   8.323  0.00  0.00    +0.000 A 
ATOM      7  C   UNL     1      46.612   2.796   7.525  0.00  0.00    +0.000 A 
ATOM      8  C   UNL     1      46.427   4.168   7.733  0.00  0.00    +0.000 A 
ATOM      9  C   UNL     1      45.573   4.621   8.741  0.00  0.00    +0.000 A 
BRANCH   7  10
ATOM     10  C   UNL     1      47.505   2.376   6.414  0.00  0.00    +0.000 C 
ATOM     11  O   UNL     1      48.300   1.458   6.519  0.00  0.00    +0.000 OA
BRANCH  10  12
ATOM     12  O   UNL     1      47.329   3.066   5.268  0.00  0.00    +0.000 OA
ATOM     13  H   UNL     1      46.795   3.877   5.344  0.00  0.00    +0.000 HD
ENDBRANCH  10  12
ENDBRANCH   7  10
ENDBRANCH   1   4
BRANCH   1  14
ATOM     14  C   UNL     1      44.857   4.977  11.705  0.00  0.00    +0.000 C 
BRANCH  14  15
ATOM     15  O   UNL     1      45.573   4.112  12.602  0.00  0.00    +0.000 OA
BRANCH  15  20
ATOM     16  C   UNL     1      48.124   6.542  13.593  0.00  0.00    +0.000 A 
ATOM     17  C   UNL     1      48.353   6.182  14.928  0.00  0.00    +0.000 A 
ATOM     18  C   UNL     1      47.675   5.111  15.500  0.00  0.00    +0.000 A 
ATOM     19  C   UNL     1      46.747   4.392  14.748  0.00  0.00    +0.000 A 
ATOM     20  C   UNL     1      46.485   4.740  13.418  0.00  0.00    +0.000 A 
ATOM     21  C   UNL     1      47.181   5.812  12.846  0.00  0.00    +0.000 A 
BRANCH  16  22
ATOM     22  C   UNL     1      48.864   7.714  12.999  0.00  0.00    +0.000 C 
BRANCH  22  23
ATOM     23  N   UNL     1      50.103   7.296  12.352  0.00  0.00    +0.000 NA
ATOM     24  H   UNL     1      50.669   8.117  12.144  0.00  0.00    +0.000 HD
ATOM     25  H   UNL     1      49.876   6.868  11.455  0.00  0.00    +0.000 HD
ENDBRANCH  22  23
ENDBRANCH  16  22
ENDBRANCH  15  20
ENDBRANCH  14  15
ENDBRANCH   1  14
TORSDOF 8
ENDMDL
MODEL 7
REMARK VINA RESULT:    -6.536      1.782      2.217
REMARK INTER + INTRA:         -10.128
REMARK INTER:                  -9.501
REMARK INTRA:                  -0.627
REMARK UNBOUND:                -0.917
REMARK  Name = 
REMARK  8 active torsions:
REMARK  status: ('A' for Active; 'I' for Inactive)
REMARK    1  A    between atoms: N_1  and  C_2
REMARK    2  A    between atoms: C_2  and  C_3
REMARK    3  A    between atoms: C_7  and  O_8
REMARK    4  A    between atoms: O_8  and  C_9
REMARK    5  A    between atoms: C_9  and  C_10
REMARK    6  A    between atoms: C_10  and  C_13
REMARK    7  A    between atoms: C_16  and  C_17
REMARK    8  A    between atoms: C_17  and  O_19
REMARK                            x       y       z     vdW  Elec       q    Type
REMARK                         _______ _______ _______ _____ _____    ______ ____
ROOT
ATOM      1  C   UNL     1      44.227   5.177  11.030  0.00  0.00    +0.000 C 
ATOM      2  F   UNL     1      42.981   5.733  11.051  0.00  0.00    +0.000 F 
ATOM      3  F   UNL     1      44.076   3.908  11.508  0.00  0.00    +0.000 F 
ENDROOT
BRANCH   1   4
ATOM      4  C   UNL     1      45.220   5.982  11.865  0.00  0.00    +0.000 A 
ATOM      5  C   UNL     1      46.393   5.391  12.362  0.00  0.00    +0.000 A 
ATOM      6  C   UNL     1      47.283   6.125  13.159  0.00  0.00    +0.000 A 
ATOM      7  C   UNL     1      46.998   7.457  13.482  0.00  0.00    +0.000 A 
ATOM      8  C   UNL     1      45.836   8.055  12.981  0.00  0.00    +0.000 A 
ATOM      9  C   UNL     1      44.954   7.323  12.181  0.00  0.00    +0.000 A 
BRANCH   7  10
ATOM     10  C   UNL     1      47.915   8.297  14.296  0.00  0.00    +0.000 C 
ATOM     11  O   UNL     1      49.129   8.227  14.205  0.00  0.00    +0.000 OA
BRANCH  10  12
ATOM     12  O   UNL     1      47.290   9.175  15.108  0.00  0.00    +0.000 OA
ATOM     13  H   UNL     1      47.293  10.102  14.807  0.00  0.00    +0.000 HD
ENDBRANCH  10  12
ENDBRANCH   7  10
ENDBRANCH   1   4
BRANCH   1  14
ATOM     14  C   UNL     1      44.731   5.118   9.578  0.00  0.00    +0.000 C 
BRANCH  14  15
ATOM     15  O   UNL     1      44.121   4.069   8.808  0.00  0.00    +0.000 OA
BRANCH  15  20
ATOM     16  C   UNL     1      46.693   2.566   6.681  0.00  0.00    +0.000 A 
ATOM     17  C   UNL     1      46.843   1.303   7.270  0.00  0.00    +0.000 A 
ATOM     18  C   UNL     1      46.068   0.935   8.366  0.00  0.00    +0.000 A 
ATOM     19  C   UNL     1      45.144   1.831   8.898  0.00  0.00    +0.000 A 
ATOM     20  C   UNL     1      44.985   3.107   8.342  0.00  0.00    +0.000 A 
ATOM     21  C   UNL     1      45.759   3.464   7.231  0.00  0.00    +0.000 A 
BRANCH  16  22
ATOM     22  C   UNL     1      47.551   2.945   5.501  0.00  0.00    +0.000 C 
BRANCH  22  23
ATOM     23  N   UNL     1      48.454   1.863   5.123  0.00  0.00    +0.000 NA
ATOM     24  H   UNL     1      49.115   1.696   5.880  0.00  0.00    +0.000 HD
ATOM     25  H   UNL     1      49.006   2.162   4.319  0.00  0.00    +0.000 HD
ENDBRANCH  22  23
ENDBRANCH  16  22
ENDBRANCH  15  20
ENDBRANCH  14  15
ENDBRANCH   1  14
TORSDOF 8
ENDMDL
MODEL 8
REMARK VINA RESULT:    -6.375      4.701      6.186
REMARK INTER + INTRA:          -9.900
REMARK INTER:                  -9.374
REMARK INTRA:                  -0.526
REMARK UNBOUND:                -0.917
REMARK  Name = 
REMARK  8 active torsions:
REMARK  status: ('A' for Active; 'I' for Inactive)
REMARK    1  A    between atoms: N_1  and  C_2
REMARK    2  A    between atoms: C_2  and  C_3
REMARK    3  A    between atoms: C_7  and  O_8
REMARK    4  A    between atoms: O_8  and  C_9
REMARK    5  A    between atoms: C_9  and  C_10
REMARK    6  A    between atoms: C_10  and  C_13
REMARK    7  A    between atoms: C_16  and  C_17
REMARK    8  A    between atoms: C_17  and  O_19
REMARK                            x       y       z     vdW  Elec       q    Type
REMARK                         _______ _______ _______ _____ _____    ______ ____
ROOT
ATOM      1  C   UNL     1      47.448   3.991  17.014  0.00  0.00    +0.000 C 
ATOM      2  F   UNL     1      47.010   4.928  17.904  0.00  0.00    +0.000 F 
ATOM      3  F   UNL     1      46.587   2.940  17.126  0.00  0.00    +0.000 F 
ENDROOT
BRANCH   1   4
ATOM      4  C   UNL     1      48.890   3.575  17.294  0.00  0.00    +0.000 A 
ATOM      5  C   UNL     1      49.818   4.489  17.821  0.00  0.00    +0.000 A 
ATOM      6  C   UNL     1      51.149   4.113  18.041  0.00  0.00    +0.000 A 
ATOM      7  C   UNL     1      51.573   2.817  17.720  0.00  0.00    +0.000 A 
ATOM      8  C   UNL     1      50.651   1.898  17.205  0.00  0.00    +0.000 A 
ATOM      9  C   UNL     1      49.322   2.274  16.992  0.00  0.00    +0.000 A 
BRANCH   7  10
ATOM     10  C   UNL     1      52.963   2.347  17.958  0.00  0.00    +0.000 C 
ATOM     11  O   UNL     1      53.942   3.005  17.649  0.00  0.00    +0.000 OA
BRANCH  10  12
ATOM     12  O   UNL     1      53.047   1.155  18.585  0.00  0.00    +0.000 OA
ATOM     13  H   UNL     1      53.350   1.188  19.511  0.00  0.00    +0.000 HD
ENDBRANCH  10  12
ENDBRANCH   7  10
ENDBRANCH   1   4
BRANCH   1  14
ATOM     14  C   UNL     1      47.365   4.568  15.590  0.00  0.00    +0.000 C 
BRANCH  14  15
ATOM     15  O   UNL     1      46.847   3.633  14.629  0.00  0.00    +0.000 OA
BRANCH  15  20
ATOM     16  C   UNL     1      44.887   3.911  11.550  0.00  0.00    +0.000 A 
ATOM     17  C   UNL     1      45.273   5.175  11.084  0.00  0.00    +0.000 A 
ATOM     18  C   UNL     1      46.208   5.933  11.780  0.00  0.00    +0.000 A 
ATOM     19  C   UNL     1      46.760   5.444  12.962  0.00  0.00    +0.000 A 
ATOM     20  C   UNL     1      46.381   4.192  13.463  0.00  0.00    +0.000 A 
ATOM     21  C   UNL     1      45.448   3.430  12.748  0.00  0.00    +0.000 A 
BRANCH  16  22
ATOM     22  C   UNL     1      43.864   3.113  10.783  0.00  0.00    +0.000 C 
BRANCH  22  23
ATOM     23  N   UNL     1      43.028   2.313  11.672  0.00  0.00    +0.000 NA
ATOM     24  H   UNL     1      43.610   1.637  12.164  0.00  0.00    +0.000 HD
ATOM     25  H   UNL     1      42.372   1.773  11.108  0.00  0.00    +0.000 HD
ENDBRANCH  22  23
ENDBRANCH  16  22
ENDBRANCH  15  20
ENDBRANCH  14  15
ENDBRANCH   1  14
TORSDOF 8
ENDMDL
MODEL 9
REMARK VINA RESULT:    -6.302      3.110      4.695
REMARK INTER + INTRA:          -9.798
REMARK INTER:                  -8.719
REMARK INTRA:                  -1.079
REMARK UNBOUND:                -0.917
REMARK  Name = 
REMARK  8 active torsions:
REMARK  status: ('A' for Active; 'I' for Inactive)
REMARK    1  A    between atoms: N_1  and  C_2
REMARK    2  A    between atoms: C_2  and  C_3
REMARK    3  A    between atoms: C_7  and  O_8
REMARK    4  A    between atoms: O_8  and  C_9
REMARK    5  A    between atoms: C_9  and  C_10
REMARK    6  A    between atoms: C_10  and  C_13
REMARK    7  A    between atoms: C_16  and  C_17
REMARK    8  A    between atoms: C_17  and  O_19
REMARK                            x       y       z     vdW  Elec       q    Type
REMARK                         _______ _______ _______ _____ _____    ______ ____
ROOT
ATOM      1  C   UNL     1      47.349   7.317  12.619  0.00  0.00    +0.000 C 
ATOM      2  F   UNL     1      47.801   6.892  11.404  0.00  0.00    +0.000 F 
ATOM      3  F   UNL     1      48.110   8.401  12.941  0.00  0.00    +0.000 F 
ENDROOT
BRANCH   1   4
ATOM      4  C   UNL     1      47.451   6.219  13.675  0.00  0.00    +0.000 A 
ATOM      5  C   UNL     1      46.844   4.967  13.479  0.00  0.00    +0.000 A 
ATOM      6  C   UNL     1      46.910   3.976  14.468  0.00  0.00    +0.000 A 
ATOM      7  C   UNL     1      47.571   4.234  15.675  0.00  0.00    +0.000 A 
ATOM      8  C   UNL     1      48.187   5.475  15.873  0.00  0.00    +0.000 A 
ATOM      9  C   UNL     1      48.126   6.460  14.882  0.00  0.00    +0.000 A 
BRANCH   7  10
ATOM     10  C   UNL     1      47.701   3.216  16.750  0.00  0.00    +0.000 C 
ATOM     11  O   UNL     1      48.716   2.560  16.916  0.00  0.00    +0.000 OA
BRANCH  10  12
ATOM     12  O   UNL     1      46.622   3.114  17.553  0.00  0.00    +0.000 OA
ATOM     13  H   UNL     1      46.078   3.919  17.631  0.00  0.00    +0.000 HD
ENDBRANCH  10  12
ENDBRANCH   7  10
ENDBRANCH   1   4
BRANCH   1  14
ATOM     14  C   UNL     1      45.878   7.747  12.491  0.00  0.00    +0.000 C 
BRANCH  14  15
ATOM     15  O   UNL     1      45.262   7.304  11.270  0.00  0.00    +0.000 OA
BRANCH  15  20
ATOM     16  C   UNL     1      44.161   3.921  10.409  0.00  0.00    +0.000 A 
ATOM     17  C   UNL     1      43.225   3.664  11.419  0.00  0.00    +0.000 A 
ATOM     18  C   UNL     1      42.936   4.627  12.380  0.00  0.00    +0.000 A 
ATOM     19  C   UNL     1      43.591   5.856  12.354  0.00  0.00    +0.000 A 
ATOM     20  C   UNL     1      44.545   6.135  11.367  0.00  0.00    +0.000 A 
ATOM     21  C   UNL     1      44.820   5.165  10.396  0.00  0.00    +0.000 A 
BRANCH  16  22
ATOM     22  C   UNL     1      44.465   2.857   9.384  0.00  0.00    +0.000 C 
BRANCH  22  23
ATOM     23  N   UNL     1      44.417   3.389   8.027  0.00  0.00    +0.000 NA
ATOM     24  H   UNL     1      45.142   4.096   7.915  0.00  0.00    +0.000 HD
ATOM     25  H   UNL     1      43.527   3.866   7.892  0.00  0.00    +0.000 HD
ENDBRANCH  22  23
ENDBRANCH  16  22
ENDBRANCH  15  20
ENDBRANCH  14  15
ENDBRANCH   1  14
TORSDOF 8
ENDMDL
