MODEL 1
REMARK VINA RESULT:    -7.790      0.000      0.000
REMARK INTER + INTRA:         -10.310
REMARK INTER:                  -9.839
REMARK INTRA:                  -0.471
REMARK UNBOUND:                -0.471
REMARK  Name = 
REMARK  6 active torsions:
REMARK  status: ('A' for Active; 'I' for Inactive)
REMARK    1  A    between atoms: C_1  and  S_2
REMARK    2  A    between atoms: S_2  and  C_3
REMARK    3  A    between atoms: N_5  and  C_6
REMARK    4  A    between atoms: C_6  and  C_7
REMARK    5  A    between atoms: C_10  and  C_11
REMARK    6  A    between atoms: C_11  and  N_12
REMARK                            x       y       z     vdW  Elec       q    Type
REMARK                         _______ _______ _______ _____ _____    ______ ____
ROOT
ATOM      1  C   UNL     1      45.351   6.911  12.191  0.00  0.00    +0.000 A 
ATOM      2  N   UNL     1      44.526   6.485  11.228  0.00  0.00    +0.000 NA
ATOM      3  N   UNL     1      44.586   5.134  11.343  0.00  0.00    +0.000 N 
ATOM      4  C   UNL     1      45.453   4.705  12.314  0.00  0.00    +0.000 A 
ATOM      5  N   UNL     1      45.748   3.427  12.630  0.00  0.00    +0.000 NA
ATOM      6  C   UNL     1      46.637   3.326  13.645  0.00  0.00    +0.000 A 
ATOM      7  C   UNL     1      47.222   4.392  14.318  0.00  0.00    +0.000 A 
ATOM      8  C   UNL     1      46.891   5.695  13.947  0.00  0.00    +0.000 A 
ATOM      9  C   UNL     1      45.968   5.855  12.900  0.00  0.00    +0.000 A 
ENDROOT
BRANCH   1  11
ATOM     10  C   UNL     1      44.460   9.363  11.335  0.00  0.00    +0.000 C 
ATOM     11  S   UNL     1      45.632   8.611  12.487  0.00  0.00    +0.000 S 
ENDBRANCH   1  11
BRANCH   3  12
ATOM     12  C   UNL     1      43.844   4.286  10.422  0.00  0.00    +0.000 C 
BRANCH  12  13
ATOM     13  C   UNL     1      44.753   3.632   9.409  0.00  0.00    +0.000 A 
ATOM     14  C   UNL     1      44.900   2.240   9.381  0.00  0.00    +0.000 A 
ATOM     15  C   UNL     1      45.777   1.631   8.478  0.00  0.00    +0.000 A 
ATOM     16  C   UNL     1      46.529   2.404   7.583  0.00  0.00    +0.000 A 
ATOM     17  C   UNL     1      46.372   3.796   7.603  0.00  0.00    +0.000 A 
ATOM     18  C   UNL     1      45.493   4.406   8.503  0.00  0.00    +0.000 A 
BRANCH  16  19
ATOM     19  C   UNL     1      47.534   1.761   6.660  0.00  0.00    +0.000 C 
BRANCH  19  20
ATOM     20  N   UNL     1      48.650   2.648   6.353  0.00  0.00    +0.000 NA
ATOM     21  H   UNL     1      49.522   2.138   6.499  0.00  0.00    +0.000 HD
ATOM     22  H   UNL     1      48.653   3.419   7.016  0.00  0.00    +0.000 HD
ENDBRANCH  19  20
ENDBRANCH  16  19
ENDBRANCH  12  13
ENDBRANCH   3  12
TORSDOF 5
ENDMDL
MODEL 2
REMARK VINA RESULT:    -7.294      1.217      3.054
REMARK INTER + INTRA:          -9.684
REMARK INTER:                  -9.156
REMARK INTRA:                  -0.528
REMARK UNBOUND:                -0.471
REMARK  Name = 
REMARK  6 active torsions:
REMARK  status: ('A' for Active; 'I' for Inactive)
REMARK    1  A    between atoms: C_1  and  S_2
REMARK    2  A    between atoms: S_2  and  C_3
REMARK    3  A    between atoms: N_5  and  C_6
REMARK    4  A    between atoms: C_6  and  C_7
REMARK    5  A    between atoms: C_10  and  C_11
REMARK    6  A    between atoms: C_11  and  N_12
REMARK                            x       y       z     vdW  Elec       q    Type
REMARK                         _______ _______ _______ _____ _____    ______ ____
ROOT
ATOM      1  C   UNL     1      46.469   5.872  12.925  0.00  0.00    +0.000 A 
ATOM      2  N   UNL     1      45.904   4.845  12.281  0.00  0.00    +0.000 NA
ATOM      3  N   UNL     1      44.982   5.446  11.486  0.00  0.00    +0.000 N 
ATOM      4  C   UNL     1      44.924   6.807  11.647  0.00  0.00    +0.000 A 
ATOM      5  N   UNL     1      44.085   7.661  11.026  0.00  0.00    +0.000 NA
ATOM      6  C   UNL     1      44.279   8.949  11.390  0.00  0.00    +0.000 A 
ATOM      7  C   UNL     1      45.221   9.398  12.308  0.00  0.00    +0.000 A 
ATOM      8  C   UNL     1      46.059   8.473  12.931  0.00  0.00    +0.000 A 
ATOM      9  C   UNL     1      45.900   7.121  12.584  0.00  0.00    +0.000 A 
ENDROOT
BRANCH   1  11
ATOM     10  C   UNL     1      47.044   4.367  15.148  0.00  0.00    +0.000 C 
ATOM     11  S   UNL     1      47.756   5.643  14.086  0.00  0.00    +0.000 S 
ENDBRANCH   1  11
BRANCH   3  12
ATOM     12  C   UNL     1      44.109   4.645  10.641  0.00  0.00    +0.000 C 
BRANCH  12  13
ATOM     13  C   UNL     1      44.884   3.905   9.579  0.00  0.00    +0.000 A 
ATOM     14  C   UNL     1      44.918   2.505   9.570  0.00  0.00    +0.000 A 
ATOM     15  C   UNL     1      45.674   1.813   8.619  0.00  0.00    +0.000 A 
ATOM     16  C   UNL     1      46.416   2.508   7.654  0.00  0.00    +0.000 A 
ATOM     17  C   UNL     1      46.371   3.909   7.656  0.00  0.00    +0.000 A 
ATOM     18  C   UNL     1      45.613   4.602   8.604  0.00  0.00    +0.000 A 
BRANCH  16  19
ATOM     19  C   UNL     1      47.294   1.772   6.674  0.00  0.00    +0.000 C 
BRANCH  19  20
ATOM     20  N   UNL     1      48.558   2.461   6.437  0.00  0.00    +0.000 NA
ATOM     21  H   UNL     1      48.375   3.295   5.879  0.00  0.00    +0.000 HD
ATOM     22  H   UNL     1      49.160   1.864   5.875  0.00  0.00    +0.000 HD
ENDBRANCH  19  20
ENDBRANCH  16  19
ENDBRANCH  12  13
ENDBRANCH   3  12
TORSDOF 5
ENDMDL
MODEL 3
REMARK VINA RESULT:    -6.429      2.183      3.472
REMARK INTER + INTRA:          -8.592
REMARK INTER:                  -8.163
REMARK INTRA:                  -0.428
REMARK UNBOUND:                -0.471
REMARK  Name = 
REMARK  6 active torsions:
REMARK  status: ('A' for Active; 'I' for Inactive)
REMARK    1  A    between atoms: C_1  and  S_2
REMARK    2  A    between atoms: S_2  and  C_3
REMARK    3  A    between atoms: N_5  and  C_6
REMARK    4  A    between atoms: C_6  and  C_7
REMARK    5  A    between atoms: C_10  and  C_11
REMARK    6  A    between atoms: C_11  and  N_12
REMARK                            x       y       z     vdW  Elec       q    Type
REMARK                         _______ _______ _______ _____ _____    ______ ____
ROOT
ATOM      1  C   UNL     1      46.948   4.477  14.646  0.00  0.00    +0.000 A 
ATOM      2  N   UNL     1      45.853   4.071  13.994  0.00  0.00    +0.000 NA
ATOM      3  N   UNL     1      45.596   5.101  13.148  0.00  0.00    +0.000 N 
ATOM      4  C   UNL     1      46.466   6.152  13.283  0.00  0.00    +0.000 A 
ATOM      5  N   UNL     1      46.436   7.321  12.610  0.00  0.00    +0.000 NA
ATOM      6  C   UNL     1      47.441   8.156  12.961  0.00  0.00    +0.000 A 
ATOM      7  C   UNL     1      48.418   7.893  13.914  0.00  0.00    +0.000 A 
ATOM      8  C   UNL     1      48.399   6.673  14.589  0.00  0.00    +0.000 A 
ATOM      9  C   UNL     1      47.378   5.767  14.259  0.00  0.00    +0.000 A 
ENDROOT
BRANCH   1  11
ATOM     10  C   UNL     1      47.228   4.360  17.375  0.00  0.00    +0.000 C 
ATOM     11  S   UNL     1      47.717   3.492  15.868  0.00  0.00    +0.000 S 
ENDBRANCH   1  11
BRANCH   3  12
ATOM     12  C   UNL     1      44.430   5.062  12.278  0.00  0.00    +0.000 C 
BRANCH  12  13
ATOM     13  C   UNL     1      44.779   4.561  10.897  0.00  0.00    +0.000 A 
ATOM     14  C   UNL     1      44.474   3.247  10.520  0.00  0.00    +0.000 A 
ATOM     15  C   UNL     1      44.839   2.763   9.260  0.00  0.00    +0.000 A 
ATOM     16  C   UNL     1      45.520   3.582   8.349  0.00  0.00    +0.000 A 
ATOM     17  C   UNL     1      45.813   4.901   8.723  0.00  0.00    +0.000 A 
ATOM     18  C   UNL     1      45.446   5.388   9.981  0.00  0.00    +0.000 A 
BRANCH  16  19
ATOM     19  C   UNL     1      45.985   3.043   7.020  0.00  0.00    +0.000 C 
BRANCH  19  20
ATOM     20  N   UNL     1      46.928   3.937   6.359  0.00  0.00    +0.000 NA
ATOM     21  H   UNL     1      47.185   3.533   5.458  0.00  0.00    +0.000 HD
ATOM     22  H   UNL     1      47.782   3.983   6.909  0.00  0.00    +0.000 HD
ENDBRANCH  19  20
ENDBRANCH  16  19
ENDBRANCH  12  13
ENDBRANCH   3  12
TORSDOF 5
ENDMDL
MODEL 4
REMARK VINA RESULT:    -5.849      3.917      7.314
REMARK INTER + INTRA:          -7.859
REMARK INTER:                  -7.596
REMARK INTRA:                  -0.263
REMARK UNBOUND:                -0.471
REMARK  Name = 
REMARK  6 active torsions:
REMARK  status: ('A' for Active; 'I' for Inactive)
REMARK    1  A    between atoms: C_1  and  S_2
REMARK    2  A    between atoms: S_2  and  C_3
REMARK    3  A    between atoms: N_5  and  C_6
REMARK    4  A    between atoms: C_6  and  C_7
REMARK    5  A    between atoms: C_10  and  C_11
REMARK    6  A    between atoms: C_11  and  N_12
REMARK                            x       y       z     vdW  Elec       q    Type
REMARK                         _______ _______ _______ _____ _____    ______ ____
ROOT
ATOM      1  C   UNL     1      48.245   6.498  13.738  0.00  0.00    +0.000 A 
ATOM      2  N   UNL     1      48.401   6.009  14.974  0.00  0.00    +0.000 NA
ATOM      3  N   UNL     1      47.412   5.085  15.069  0.00  0.00    +0.000 N 
ATOM      4  C   UNL     1      46.619   5.014  13.953  0.00  0.00    +0.000 A 
ATOM      5  N   UNL     1      45.542   4.222  13.773  0.00  0.00    +0.000 NA
ATOM      6  C   UNL     1      44.973   4.374  12.555  0.00  0.00    +0.000 A 
ATOM      7  C   UNL     1      45.405   5.247  11.563  0.00  0.00    +0.000 A 
ATOM      8  C   UNL     1      46.518   6.052  11.802  0.00  0.00    +0.000 A 
ATOM      9  C   UNL     1      47.149   5.929  13.051  0.00  0.00    +0.000 A 
ENDROOT
BRANCH   1  11
ATOM     10  C   UNL     1      50.507   7.897  14.423  0.00  0.00    +0.000 C 
ATOM     11  S   UNL     1      49.295   7.738  13.093  0.00  0.00    +0.000 S 
ENDBRANCH   1  11
BRANCH   3  12
ATOM     12  C   UNL     1      47.215   4.347  16.308  0.00  0.00    +0.000 C 
BRANCH  12  13
ATOM     13  C   UNL     1      48.473   3.634  16.741  0.00  0.00    +0.000 A 
ATOM     14  C   UNL     1      49.435   4.297  17.514  0.00  0.00    +0.000 A 
ATOM     15  C   UNL     1      50.625   3.658  17.877  0.00  0.00    +0.000 A 
ATOM     16  C   UNL     1      50.881   2.342  17.470  0.00  0.00    +0.000 A 
ATOM     17  C   UNL     1      49.912   1.675  16.707  0.00  0.00    +0.000 A 
ATOM     18  C   UNL     1      48.720   2.311  16.347  0.00  0.00    +0.000 A 
BRANCH  16  19
ATOM     19  C   UNL     1      52.194   1.674  17.791  0.00  0.00    +0.000 C 
BRANCH  19  20
ATOM     20  N   UNL     1      52.026   0.279  18.182  0.00  0.00    +0.000 NA
ATOM     21  H   UNL     1      52.001   0.225  19.201  0.00  0.00    +0.000 HD
ATOM     22  H   UNL     1      52.843  -0.249  17.885  0.00  0.00    +0.000 HD
ENDBRANCH  19  20
ENDBRANCH  16  19
ENDBRANCH  12  13
ENDBRANCH   3  12
TORSDOF 5
ENDMDL
MODEL 5
REMARK VINA RESULT:    -5.698      4.442      7.556
REMARK INTER + INTRA:          -7.668
REMARK INTER:                  -7.185
REMARK INTRA:                  -0.483
REMARK UNBOUND:                -0.471
REMARK  Name = 
REMARK  6 active torsions:
REMARK  status: ('A' for Active; 'I' for Inactive)
REMARK    1  A    between atoms: C_1  and  S_2
REMARK    2  A    between atoms: S_2  and  C_3
REMARK    3  A    between atoms: N_5  and  C_6
REMARK    4  A    between atoms: C_6  and  C_7
REMARK    5  A    between atoms: C_10  and  C_11
REMARK    6  A    between atoms: C_11  and  N_12
REMARK                            x       y       z     vdW  Elec       q    Type
REMARK                         _______ _______ _______ _____ _____    ______ ____
ROOT
ATOM      1  C   UNL     1      46.381   4.557  13.529  0.00  0.00    +0.000 A 
ATOM      2  N   UNL     1      46.355   4.082  14.780  0.00  0.00    +0.000 NA
ATOM      3  N   UNL     1      47.261   4.858  15.426  0.00  0.00    +0.000 N 
ATOM      4  C   UNL     1      47.882   5.770  14.612  0.00  0.00    +0.000 A 
ATOM      5  N   UNL     1      48.848   6.643  14.962  0.00  0.00    +0.000 NA
ATOM      6  C   UNL     1      49.253   7.422  13.932  0.00  0.00    +0.000 A 
ATOM      7  C   UNL     1      48.768   7.361  12.631  0.00  0.00    +0.000 A 
ATOM      8  C   UNL     1      47.775   6.434  12.318  0.00  0.00    +0.000 A 
ATOM      9  C   UNL     1      47.316   5.603  13.354  0.00  0.00    +0.000 A 
ENDROOT
BRANCH   1  11
ATOM     10  C   UNL     1      43.720   4.270  12.913  0.00  0.00    +0.000 C 
ATOM     11  S   UNL     1      45.367   3.900  12.266  0.00  0.00    +0.000 S 
ENDBRANCH   1  11
BRANCH   3  12
ATOM     12  C   UNL     1      47.561   4.620  16.830  0.00  0.00    +0.000 C 
BRANCH  12  13
ATOM     13  C   UNL     1      48.829   3.820  17.003  0.00  0.00    +0.000 A 
ATOM     14  C   UNL     1      48.865   2.462  16.662  0.00  0.00    +0.000 A 
ATOM     15  C   UNL     1      50.022   1.703  16.866  0.00  0.00    +0.000 A 
ATOM     16  C   UNL     1      51.170   2.287  17.418  0.00  0.00    +0.000 A 
ATOM     17  C   UNL     1      51.137   3.649  17.747  0.00  0.00    +0.000 A 
ATOM     18  C   UNL     1      49.982   4.410  17.541  0.00  0.00    +0.000 A 
BRANCH  16  19
ATOM     19  C   UNL     1      52.394   1.458  17.713  0.00  0.00    +0.000 C 
BRANCH  19  20
ATOM     20  N   UNL     1      53.144   1.964  18.857  0.00  0.00    +0.000 NA
ATOM     21  H   UNL     1      53.834   1.264  19.131  0.00  0.00    +0.000 HD
ATOM     22  H   UNL     1      52.511   2.070  19.647  0.00  0.00    +0.000 HD
ENDBRANCH  19  20
ENDBRANCH  16  19
ENDBRANCH  12  13
ENDBRANCH   3  12
TORSDOF 5
ENDMDL
MODEL 6
REMARK VINA RESULT:    -5.395      2.960      5.883
REMARK INTER + INTRA:          -7.286
REMARK INTER:                  -6.900
REMARK INTRA:                  -0.386
REMARK UNBOUND:                -0.471
REMARK  Name = 
REMARK  6 active torsions:
REMARK  status: ('A' for Active; 'I' for Inactive)
REMARK    1  A    between atoms: C_1  and  S_2
REMARK    2  A    between atoms: S_2  and  C_3
REMARK    3  A    between atoms: N_5  and  C_6
REMARK    4  A    between atoms: C_6  and  C_7
REMARK    5  A    between atoms: C_10  and  C_11
REMARK    6  A    between atoms: C_11  and  N_12
REMARK                            x       y       z     vdW  Elec       q    Type
REMARK                         _______ _______ _______ _____ _____    ______ ____
ROOT
ATOM      1  C   UNL     1      45.219   4.271   9.466  0.00  0.00    +0.000 A 
ATOM      2  N   UNL     1      45.728   5.507   9.522  0.00  0.00    +0.000 NA
ATOM      3  N   UNL     1      45.401   5.921  10.773  0.00  0.00    +0.000 N 
ATOM      4  C   UNL     1      44.669   5.002  11.480  0.00  0.00    +0.000 A 
ATOM      5  N   UNL     1      44.173   5.147  12.726  0.00  0.00    +0.000 NA
ATOM      6  C   UNL     1      43.500   4.055  13.155  0.00  0.00    +0.000 A 
ATOM      7  C   UNL     1      43.302   2.887  12.428  0.00  0.00    +0.000 A 
ATOM      8  C   UNL     1      43.828   2.791  11.140  0.00  0.00    +0.000 A 
ATOM      9  C   UNL     1      44.540   3.897  10.647  0.00  0.00    +0.000 A 
ENDROOT
BRANCH   1  11
ATOM     10  C   UNL     1      46.854   3.974   7.279  0.00  0.00    +0.000 C 
ATOM     11  S   UNL     1      45.376   3.268   8.042  0.00  0.00    +0.000 S 
ENDBRANCH   1  11
BRANCH   3  12
ATOM     12  C   UNL     1      45.747   7.263  11.215  0.00  0.00    +0.000 C 
BRANCH  12  13
ATOM     13  C   UNL     1      47.023   7.276  12.021  0.00  0.00    +0.000 A 
ATOM     14  C   UNL     1      47.019   6.875  13.363  0.00  0.00    +0.000 A 
ATOM     15  C   UNL     1      48.187   6.931  14.129  0.00  0.00    +0.000 A 
ATOM     16  C   UNL     1      49.387   7.392  13.570  0.00  0.00    +0.000 A 
ATOM     17  C   UNL     1      49.392   7.781  12.224  0.00  0.00    +0.000 A 
ATOM     18  C   UNL     1      48.226   7.723  11.455  0.00  0.00    +0.000 A 
BRANCH  16  19
ATOM     19  C   UNL     1      50.631   7.528  14.411  0.00  0.00    +0.000 C 
BRANCH  19  20
ATOM     20  N   UNL     1      50.620   6.637  15.565  0.00  0.00    +0.000 NA
ATOM     21  H   UNL     1      51.534   6.190  15.642  0.00  0.00    +0.000 HD
ATOM     22  H   UNL     1      49.948   5.891  15.401  0.00  0.00    +0.000 HD
ENDBRANCH  19  20
ENDBRANCH  16  19
ENDBRANCH  12  13
ENDBRANCH   3  12
TORSDOF 5
ENDMDL
MODEL 7
REMARK VINA RESULT:    -5.195      2.244      3.136
REMARK INTER + INTRA:          -7.032
REMARK INTER:                  -6.643
REMARK INTRA:                  -0.389
REMARK UNBOUND:                -0.471
REMARK  Name = 
REMARK  6 active torsions:
REMARK  status: ('A' for Active; 'I' for Inactive)
REMARK    1  A    between atoms: C_1  and  S_2
REMARK    2  A    between atoms: S_2  and  C_3
REMARK    3  A    between atoms: N_5  and  C_6
REMARK    4  A    between atoms: C_6  and  C_7
REMARK    5  A    between atoms: C_10  and  C_11
REMARK    6  A    between atoms: C_11  and  N_12
REMARK                            x       y       z     vdW  Elec       q    Type
REMARK                         _______ _______ _______ _____ _____    ______ ____
ROOT
ATOM      1  C   UNL     1      44.896   9.594  11.464  0.00  0.00    +0.000 A 
ATOM      2  N   UNL     1      44.165   8.481  11.328  0.00  0.00    +0.000 NA
ATOM      3  N   UNL     1      44.907   7.542  11.969  0.00  0.00    +0.000 N 
ATOM      4  C   UNL     1      46.094   8.022  12.459  0.00  0.00    +0.000 A 
ATOM      5  N   UNL     1      47.049   7.319  13.103  0.00  0.00    +0.000 NA
ATOM      6  C   UNL     1      48.104   8.080  13.473  0.00  0.00    +0.000 A 
ATOM      7  C   UNL     1      48.246   9.442  13.231  0.00  0.00    +0.000 A 
ATOM      8  C   UNL     1      47.235  10.121  12.553  0.00  0.00    +0.000 A 
ATOM      9  C   UNL     1      46.113   9.377  12.149  0.00  0.00    +0.000 A 
ENDROOT
BRANCH   1  11
ATOM     10  C   UNL     1      43.679  10.620   9.227  0.00  0.00    +0.000 C 
ATOM     11  S   UNL     1      44.374  11.131  10.814  0.00  0.00    +0.000 S 
ENDBRANCH   1  11
BRANCH   3  12
ATOM     12  C   UNL     1      44.462   6.157  12.006  0.00  0.00    +0.000 C 
BRANCH  12  13
ATOM     13  C   UNL     1      44.761   5.439  10.712  0.00  0.00    +0.000 A 
ATOM     14  C   UNL     1      43.952   4.379  10.285  0.00  0.00    +0.000 A 
ATOM     15  C   UNL     1      44.252   3.678   9.113  0.00  0.00    +0.000 A 
ATOM     16  C   UNL     1      45.372   4.021   8.343  0.00  0.00    +0.000 A 
ATOM     17  C   UNL     1      46.174   5.090   8.765  0.00  0.00    +0.000 A 
ATOM     18  C   UNL     1      45.873   5.794   9.935  0.00  0.00    +0.000 A 
BRANCH  16  19
ATOM     19  C   UNL     1      45.745   3.220   7.121  0.00  0.00    +0.000 C 
BRANCH  19  20
ATOM     20  N   UNL     1      47.065   3.573   6.610  0.00  0.00    +0.000 NA
ATOM     21  H   UNL     1      47.223   3.068   5.737  0.00  0.00    +0.000 HD
ATOM     22  H   UNL     1      47.772   3.246   7.264  0.00  0.00    +0.000 HD
ENDBRANCH  19  20
ENDBRANCH  16  19
ENDBRANCH  12  13
ENDBRANCH   3  12
TORSDOF 5
ENDMDL
MODEL 8
REMARK VINA RESULT:    -4.988      4.458      6.397
REMARK INTER + INTRA:          -6.771
REMARK INTER:                  -6.267
REMARK INTRA:                  -0.503
REMARK UNBOUND:                -0.471
REMARK  Name = 
REMARK  6 active torsions:
REMARK  status: ('A' for Active; 'I' for Inactive)
REMARK    1  A    between atoms: C_1  and  S_2
REMARK    2  A    between atoms: S_2  and  C_3
REMARK    3  A    between atoms: N_5  and  C_6
REMARK    4  A    between atoms: C_6  and  C_7
REMARK    5  A    between atoms: C_10  and  C_11
REMARK    6  A    between atoms: C_11  and  N_12
REMARK                            x       y       z     vdW  Elec       q    Type
REMARK                         _______ _______ _______ _____ _____    ______ ____
ROOT
ATOM      1  C   UNL     1      48.844   6.281  16.849  0.00  0.00    +0.000 A 
ATOM      2  N   UNL     1      48.645   5.610  15.710  0.00  0.00    +0.000 NA
ATOM      3  N   UNL     1      48.607   6.591  14.773  0.00  0.00    +0.000 N 
ATOM      4  C   UNL     1      48.730   7.853  15.296  0.00  0.00    +0.000 A 
ATOM      5  N   UNL     1      48.690   9.018  14.618  0.00  0.00    +0.000 NA
ATOM      6  C   UNL     1      48.853  10.098  15.417  0.00  0.00    +0.000 A 
ATOM      7  C   UNL     1      49.035  10.067  16.795  0.00  0.00    +0.000 A 
ATOM      8  C   UNL     1      49.059   8.836  17.450  0.00  0.00    +0.000 A 
ATOM      9  C   UNL     1      48.898   7.682  16.665  0.00  0.00    +0.000 A 
ENDROOT
BRANCH   1  11
ATOM     10  C   UNL     1      47.442   5.966  19.189  0.00  0.00    +0.000 C 
ATOM     11  S   UNL     1      48.985   5.470  18.391  0.00  0.00    +0.000 S 
ENDBRANCH   1  11
BRANCH   3  12
ATOM     12  C   UNL     1      48.357   6.263  13.377  0.00  0.00    +0.000 C 
BRANCH  12  13
ATOM     13  C   UNL     1      46.898   5.972  13.124  0.00  0.00    +0.000 A 
ATOM     14  C   UNL     1      46.393   4.677  13.290  0.00  0.00    +0.000 A 
ATOM     15  C   UNL     1      45.053   4.390  13.009  0.00  0.00    +0.000 A 
ATOM     16  C   UNL     1      44.189   5.394  12.553  0.00  0.00    +0.000 A 
ATOM     17  C   UNL     1      44.692   6.693  12.399  0.00  0.00    +0.000 A 
ATOM     18  C   UNL     1      46.031   6.982  12.682  0.00  0.00    +0.000 A 
BRANCH  16  19
ATOM     19  C   UNL     1      42.764   5.076  12.174  0.00  0.00    +0.000 C 
BRANCH  19  20
ATOM     20  N   UNL     1      42.039   6.253  11.710  0.00  0.00    +0.000 NA
ATOM     21  H   UNL     1      41.727   6.088  10.752  0.00  0.00    +0.000 HD
ATOM     22  H   UNL     1      42.678   7.043  11.673  0.00  0.00    +0.000 HD
ENDBRANCH  19  20
ENDBRANCH  16  19
ENDBRANCH  12  13
ENDBRANCH   3  12
TORSDOF 5
ENDMDL
MODEL 9
REMARK VINA RESULT:    -4.986      2.867      4.764
REMARK INTER + INTRA:          -6.768
REMARK INTER:                  -6.460
REMARK INTRA:                  -0.308
REMARK UNBOUND:                -0.471
REMARK  Name = 
REMARK  6 active torsions:
REMARK  status: ('A' for Active; 'I' for Inactive)
REMARK    1  A    between atoms: C_1  and  S_2
REMARK    2  A    between atoms: S_2  and  C_3
REMARK    3  A    between atoms: N_5  and  C_6
REMARK    4  A    between atoms: C_6  and  C_7
REMARK    5  A    between atoms: C_10  and  C_11
REMARK    6  A    between atoms: C_11  and  N_12
REMARK                            x       y       z     vdW  Elec       q    Type
REMARK                         _______ _______ _______ _____ _____    ______ ____
ROOT
ATOM      1  C   UNL     1      45.555  10.108  11.860  0.00  0.00    +0.000 A 
ATOM      2  N   UNL     1      45.293   8.944  12.466  0.00  0.00    +0.000 NA
ATOM      3  N   UNL     1      46.525   8.405  12.649  0.00  0.00    +0.000 N 
ATOM      4  C   UNL     1      47.540   9.172  12.138  0.00  0.00    +0.000 A 
ATOM      5  N   UNL     1      48.857   8.877  12.137  0.00  0.00    +0.000 NA
ATOM      6  C   UNL     1      49.613   9.843  11.565  0.00  0.00    +0.000 A 
ATOM      7  C   UNL     1      49.134  11.026  11.013  0.00  0.00    +0.000 A 
ATOM      8  C   UNL     1      47.763  11.279  11.032  0.00  0.00    +0.000 A 
ATOM      9  C   UNL     1      46.933  10.309  11.618  0.00  0.00    +0.000 A 
ENDROOT
BRANCH   1  11
ATOM     10  C   UNL     1      43.102  10.101  10.627  0.00  0.00    +0.000 C 
ATOM     11  S   UNL     1      44.287  11.221  11.404  0.00  0.00    +0.000 S 
ENDBRANCH   1  11
BRANCH   3  12
ATOM     12  C   UNL     1      46.667   7.088  13.252  0.00  0.00    +0.000 C 
BRANCH  12  13
ATOM     13  C   UNL     1      45.964   6.025  12.444  0.00  0.00    +0.000 A 
ATOM     14  C   UNL     1      45.441   4.886  13.071  0.00  0.00    +0.000 A 
ATOM     15  C   UNL     1      44.832   3.874  12.322  0.00  0.00    +0.000 A 
ATOM     16  C   UNL     1      44.735   3.978  10.928  0.00  0.00    +0.000 A 
ATOM     17  C   UNL     1      45.247   5.123  10.304  0.00  0.00    +0.000 A 
ATOM     18  C   UNL     1      45.854   6.137  11.051  0.00  0.00    +0.000 A 
BRANCH  16  19
ATOM     19  C   UNL     1      44.150   2.856  10.108  0.00  0.00    +0.000 C 
BRANCH  19  20
ATOM     20  N   UNL     1      44.573   2.911   8.713  0.00  0.00    +0.000 NA
ATOM     21  H   UNL     1      44.077   2.187   8.192  0.00  0.00    +0.000 HD
ATOM     22  H   UNL     1      45.562   2.681   8.657  0.00  0.00    +0.000 HD
ENDBRANCH  19  20
ENDBRANCH  16  19
ENDBRANCH  12  13
ENDBRANCH   3  12
TORSDOF 5
ENDMDL
