MODEL 1
REMARK VINA RESULT:    -7.225      0.000      0.000
REMARK INTER + INTRA:         -12.112
REMARK INTER:                 -10.181
REMARK INTRA:                  -1.931
REMARK UNBOUND:                -1.931
REMARK  Name = 
REMARK  11 active torsions:
REMARK  status: ('A' for Active; 'I' for Inactive)
REMARK    1  A    between atoms: C_1  and  C_2
REMARK    2  A    between atoms: C_4  and  C_5
REMARK    3  A    between atoms: C_5  and  C_6
REMARK    4  A    between atoms: C_5  and  C_7
REMARK    5  A    between atoms: C_9  and  N_10
REMARK    6  A    between atoms: N_10  and  C_11
REMARK    7  A    between atoms: C_11  and  C_12
REMARK    8  A    between atoms: C_12  and  C_13
REMARK    9  A    between atoms: C_12  and  C_14
REMARK   10  A    between atoms: C_18  and  C_19
REMARK   11  A    between atoms: C_22  and  C_23
REMARK                            x       y       z     vdW  Elec       q    Type
REMARK                         _______ _______ _______ _____ _____    ______ ____
ROOT
ATOM      1  C   UNL     1      43.821   7.282  11.144  0.00  0.00    +0.000 A 
ATOM      2  C   UNL     1      42.675   6.869  11.833  0.00  0.00    +0.000 A 
ATOM      3  C   UNL     1      42.314   5.519  11.870  0.00  0.00    +0.000 A 
ATOM      4  C   UNL     1      43.061   4.570  11.163  0.00  0.00    +0.000 A 
ATOM      5  C   UNL     1      44.201   4.943  10.443  0.00  0.00    +0.000 A 
ATOM      6  C   UNL     1      44.590   6.292  10.514  0.00  0.00    +0.000 A 
ENDROOT
BRANCH   5   7
ATOM      7  C   UNL     1      44.946   4.010   9.567  0.00  0.00    +0.000 A 
ATOM      8  C   UNL     1      45.676   4.481   8.462  0.00  0.00    +0.000 A 
ATOM      9  C   UNL     1      46.377   3.609   7.632  0.00  0.00    +0.000 A 
ATOM     10  C   UNL     1      46.334   2.244   7.896  0.00  0.00    +0.000 A 
ATOM     11  N   UNL     1      45.629   1.748   8.954  0.00  0.00    +0.000 NA
ATOM     12  C   UNL     1      44.967   2.631   9.749  0.00  0.00    +0.000 A 
BRANCH  10  13
ATOM     13  C   UNL     1      47.079   1.283   6.979  0.00  0.00    +0.000 C 
ATOM     14  F   UNL     1      48.440   1.354   7.114  0.00  0.00    +0.000 F 
ATOM     15  F   UNL     1      46.766  -0.026   7.203  0.00  0.00    +0.000 F 
ATOM     16  F   UNL     1      46.839   1.509   5.655  0.00  0.00    +0.000 F 
ENDBRANCH  10  13
ENDBRANCH   5   7
BRANCH   1  17
ATOM     17  C   UNL     1      44.152   8.769  11.006  0.00  0.00    +0.000 C 
ATOM     18  C   UNL     1      42.910   9.577  10.605  0.00  0.00    +0.000 C 
BRANCH  17  19
ATOM     19  C   UNL     1      44.776   9.449  12.254  0.00  0.00    +0.000 C 
BRANCH  19  20
ATOM     20  N   UNL     1      46.217   9.605  12.158  0.00  0.00    +0.000 N 
ATOM     21  H   UNL     1      46.623  10.434  11.738  0.00  0.00    +0.000 HD
BRANCH  20  27
ATOM     22  C   UNL     1      50.668   8.126  11.514  0.00  0.00    +0.000 C 
ATOM     23  C   UNL     1      49.291   7.827  12.026  0.00  0.00    +0.000 A 
ATOM     24  C   UNL     1      49.027   6.627  12.681  0.00  0.00    +0.000 A 
ATOM     25  C   UNL     1      47.747   6.397  13.179  0.00  0.00    +0.000 A 
ATOM     26  C   UNL     1      46.784   7.393  12.980  0.00  0.00    +0.000 A 
ATOM     27  C   UNL     1      47.109   8.572  12.319  0.00  0.00    +0.000 A 
ATOM     28  N   UNL     1      48.345   8.781  11.828  0.00  0.00    +0.000 NA
BRANCH  25  29
ATOM     29  C   UNL     1      47.346   5.129  13.910  0.00  0.00    +0.000 C 
ATOM     30  C   UNL     1      47.662   5.243  15.402  0.00  0.00    +0.000 C 
ATOM     31  C   UNL     1      45.885   4.728  13.692  0.00  0.00    +0.000 C 
ENDBRANCH  25  29
ENDBRANCH  20  27
ENDBRANCH  19  20
ENDBRANCH  17  19
ENDBRANCH   1  17
TORSDOF 7
ENDMDL
MODEL 2
REMARK VINA RESULT:    -6.778      4.134      6.700
REMARK INTER + INTRA:         -11.483
REMARK INTER:                 -10.170
REMARK INTRA:                  -1.314
REMARK UNBOUND:                -1.931
REMARK  Name = 
REMARK  11 active torsions:
REMARK  status: ('A' for Active; 'I' for Inactive)
REMARK    1  A    between atoms: C_1  and  C_2
REMARK    2  A    between atoms: C_4  and  C_5
REMARK    3  A    between atoms: C_5  and  C_6
REMARK    4  A    between atoms: C_5  and  C_7
REMARK    5  A    between atoms: C_9  and  N_10
REMARK    6  A    between atoms: N_10  and  C_11
REMARK    7  A    between atoms: C_11  and  C_12
REMARK    8  A    between atoms: C_12  and  C_13
REMARK    9  A    between atoms: C_12  and  C_14
REMARK   10  A    between atoms: C_18  and  C_19
REMARK   11  A    between atoms: C_22  and  C_23
REMARK                            x       y       z     vdW  Elec       q    Type
REMARK                         _______ _______ _______ _____ _____    ______ ____
ROOT
ATOM      1  C   UNL     1      49.928   7.509  14.290  0.00  0.00    +0.000 A 
ATOM      2  C   UNL     1      50.400   8.399  13.319  0.00  0.00    +0.000 A 
ATOM      3  C   UNL     1      49.713   8.569  12.114  0.00  0.00    +0.000 A 
ATOM      4  C   UNL     1      48.575   7.803  11.837  0.00  0.00    +0.000 A 
ATOM      5  C   UNL     1      48.080   6.886  12.771  0.00  0.00    +0.000 A 
ATOM      6  C   UNL     1      48.740   6.817  14.011  0.00  0.00    +0.000 A 
ENDROOT
BRANCH   5   7
ATOM      7  C   UNL     1      46.970   5.953  12.478  0.00  0.00    +0.000 A 
ATOM      8  C   UNL     1      46.187   6.098  11.319  0.00  0.00    +0.000 A 
ATOM      9  C   UNL     1      45.139   5.225  11.039  0.00  0.00    +0.000 A 
ATOM     10  C   UNL     1      44.854   4.201  11.936  0.00  0.00    +0.000 A 
ATOM     11  N   UNL     1      45.585   4.033  13.076  0.00  0.00    +0.000 NA
ATOM     12  C   UNL     1      46.608   4.898  13.309  0.00  0.00    +0.000 A 
BRANCH  10  13
ATOM     13  C   UNL     1      43.695   3.256  11.647  0.00  0.00    +0.000 C 
ATOM     14  F   UNL     1      43.897   2.476  10.540  0.00  0.00    +0.000 F 
ATOM     15  F   UNL     1      43.449   2.378  12.662  0.00  0.00    +0.000 F 
ATOM     16  F   UNL     1      42.518   3.906  11.415  0.00  0.00    +0.000 F 
ENDBRANCH  10  13
ENDBRANCH   5   7
BRANCH   1  17
ATOM     17  C   UNL     1      50.741   7.236  15.556  0.00  0.00    +0.000 C 
ATOM     18  C   UNL     1      52.181   7.749  15.410  0.00  0.00    +0.000 C 
BRANCH  17  19
ATOM     19  C   UNL     1      50.165   7.814  16.876  0.00  0.00    +0.000 C 
BRANCH  19  20
ATOM     20  N   UNL     1      50.251   6.885  17.990  0.00  0.00    +0.000 N 
ATOM     21  H   UNL     1      50.641   7.176  18.879  0.00  0.00    +0.000 HD
BRANCH  20  27
ATOM     22  C   UNL     1      47.272   3.276  17.276  0.00  0.00    +0.000 C 
ATOM     23  C   UNL     1      48.681   3.735  17.499  0.00  0.00    +0.000 A 
ATOM     24  C   UNL     1      49.733   2.823  17.473  0.00  0.00    +0.000 A 
ATOM     25  C   UNL     1      51.034   3.288  17.643  0.00  0.00    +0.000 A 
ATOM     26  C   UNL     1      51.212   4.662  17.847  0.00  0.00    +0.000 A 
ATOM     27  C   UNL     1      50.121   5.524  17.861  0.00  0.00    +0.000 A 
ATOM     28  N   UNL     1      48.865   5.064  17.708  0.00  0.00    +0.000 NA
BRANCH  25  29
ATOM     29  C   UNL     1      52.256   2.388  17.632  0.00  0.00    +0.000 C 
ATOM     30  C   UNL     1      53.222   2.776  18.753  0.00  0.00    +0.000 C 
ATOM     31  C   UNL     1      51.923   0.896  17.693  0.00  0.00    +0.000 C 
ENDBRANCH  25  29
ENDBRANCH  20  27
ENDBRANCH  19  20
ENDBRANCH  17  19
ENDBRANCH   1  17
TORSDOF 7
ENDMDL
MODEL 3
REMARK VINA RESULT:    -6.575      2.145      3.040
REMARK INTER + INTRA:         -11.197
REMARK INTER:                 -10.286
REMARK INTRA:                  -0.911
REMARK UNBOUND:                -1.931
REMARK  Name = 
REMARK  11 active torsions:
REMARK  status: ('A' for Active; 'I' for Inactive)
REMARK    1  A    between atoms: C_1  and  C_2
REMARK    2  A    between atoms: C_4  and  C_5
REMARK    3  A    between atoms: C_5  and  C_6
REMARK    4  A    between atoms: C_5  and  C_7
REMARK    5  A    between atoms: C_9  and  N_10
REMARK    6  A    between atoms: N_10  and  C_11
REMARK    7  A    between atoms: C_11  and  C_12
REMARK    8  A    between atoms: C_12  and  C_13
REMARK    9  A    between atoms: C_12  and  C_14
REMARK   10  A    between atoms: C_18  and  C_19
REMARK   11  A    between atoms: C_22  and  C_23
REMARK                            x       y       z     vdW  Elec       q    Type
REMARK                         _______ _______ _______ _____ _____    ______ ____
ROOT
ATOM      1  C   UNL     1      45.376   6.946  12.099  0.00  0.00    +0.000 A 
ATOM      2  C   UNL     1      44.120   6.696  12.662  0.00  0.00    +0.000 A 
ATOM      3  C   UNL     1      43.358   5.599  12.248  0.00  0.00    +0.000 A 
ATOM      4  C   UNL     1      43.817   4.772  11.216  0.00  0.00    +0.000 A 
ATOM      5  C   UNL     1      45.057   4.998  10.610  0.00  0.00    +0.000 A 
ATOM      6  C   UNL     1      45.838   6.049  11.123  0.00  0.00    +0.000 A 
ENDROOT
BRANCH   5   7
ATOM      7  C   UNL     1      45.528   4.246   9.426  0.00  0.00    +0.000 A 
ATOM      8  C   UNL     1      45.383   2.849   9.350  0.00  0.00    +0.000 A 
ATOM      9  C   UNL     1      45.826   2.135   8.239  0.00  0.00    +0.000 A 
ATOM     10  C   UNL     1      46.440   2.819   7.196  0.00  0.00    +0.000 A 
ATOM     11  N   UNL     1      46.607   4.173   7.237  0.00  0.00    +0.000 NA
ATOM     12  C   UNL     1      46.151   4.838   8.332  0.00  0.00    +0.000 A 
BRANCH  10  13
ATOM     13  C   UNL     1      46.947   2.041   5.989  0.00  0.00    +0.000 C 
ATOM     14  F   UNL     1      48.280   2.235   5.742  0.00  0.00    +0.000 F 
ATOM     15  F   UNL     1      46.802   0.690   6.117  0.00  0.00    +0.000 F 
ATOM     16  F   UNL     1      46.315   2.381   4.828  0.00  0.00    +0.000 F 
ENDBRANCH  10  13
ENDBRANCH   5   7
BRANCH   1  17
ATOM     17  C   UNL     1      46.157   8.208  12.467  0.00  0.00    +0.000 C 
ATOM     18  C   UNL     1      45.218   9.411  12.628  0.00  0.00    +0.000 C 
BRANCH  17  19
ATOM     19  C   UNL     1      47.036   8.120  13.743  0.00  0.00    +0.000 C 
BRANCH  19  20
ATOM     20  N   UNL     1      47.439   6.762  14.065  0.00  0.00    +0.000 N 
ATOM     21  H   UNL     1      46.950   5.967  13.670  0.00  0.00    +0.000 HD
BRANCH  20  27
ATOM     22  C   UNL     1      50.980   8.191  16.865  0.00  0.00    +0.000 C 
ATOM     23  C   UNL     1      49.988   7.122  16.515  0.00  0.00    +0.000 A 
ATOM     24  C   UNL     1      49.894   5.968  17.288  0.00  0.00    +0.000 A 
ATOM     25  C   UNL     1      48.934   5.013  16.959  0.00  0.00    +0.000 A 
ATOM     26  C   UNL     1      48.118   5.265  15.851  0.00  0.00    +0.000 A 
ATOM     27  C   UNL     1      48.260   6.439  15.119  0.00  0.00    +0.000 A 
ATOM     28  N   UNL     1      49.199   7.351  15.435  0.00  0.00    +0.000 NA
BRANCH  25  29
ATOM     29  C   UNL     1      48.740   3.719  17.729  0.00  0.00    +0.000 C 
ATOM     30  C   UNL     1      47.329   3.170  17.513  0.00  0.00    +0.000 C 
ATOM     31  C   UNL     1      49.793   2.653  17.419  0.00  0.00    +0.000 C 
ENDBRANCH  25  29
ENDBRANCH  20  27
ENDBRANCH  19  20
ENDBRANCH  17  19
ENDBRANCH   1  17
TORSDOF 7
ENDMDL
MODEL 4
REMARK VINA RESULT:    -6.199      1.733      3.563
REMARK INTER + INTRA:         -10.668
REMARK INTER:                  -9.642
REMARK INTRA:                  -1.026
REMARK UNBOUND:                -1.931
REMARK  Name = 
REMARK  11 active torsions:
REMARK  status: ('A' for Active; 'I' for Inactive)
REMARK    1  A    between atoms: C_1  and  C_2
REMARK    2  A    between atoms: C_4  and  C_5
REMARK    3  A    between atoms: C_5  and  C_6
REMARK    4  A    between atoms: C_5  and  C_7
REMARK    5  A    between atoms: C_9  and  N_10
REMARK    6  A    between atoms: N_10  and  C_11
REMARK    7  A    between atoms: C_11  and  C_12
REMARK    8  A    between atoms: C_12  and  C_13
REMARK    9  A    between atoms: C_12  and  C_14
REMARK   10  A    between atoms: C_18  and  C_19
REMARK   11  A    between atoms: C_22  and  C_23
REMARK                            x       y       z     vdW  Elec       q    Type
REMARK                         _______ _______ _______ _____ _____    ______ ____
ROOT
ATOM      1  C   UNL     1      45.035   5.244  12.914  0.00  0.00    +0.000 A 
ATOM      2  C   UNL     1      43.659   5.492  12.990  0.00  0.00    +0.000 A 
ATOM      3  C   UNL     1      42.799   5.050  11.981  0.00  0.00    +0.000 A 
ATOM      4  C   UNL     1      43.312   4.407  10.848  0.00  0.00    +0.000 A 
ATOM      5  C   UNL     1      44.682   4.159  10.722  0.00  0.00    +0.000 A 
ATOM      6  C   UNL     1      45.503   4.528  11.803  0.00  0.00    +0.000 A 
ENDROOT
BRANCH   5   7
ATOM      7  C   UNL     1      45.295   3.612   9.490  0.00  0.00    +0.000 A 
ATOM      8  C   UNL     1      45.783   4.465   8.484  0.00  0.00    +0.000 A 
ATOM      9  C   UNL     1      46.359   3.957   7.321  0.00  0.00    +0.000 A 
ATOM     10  C   UNL     1      46.432   2.579   7.149  0.00  0.00    +0.000 A 
ATOM     11  N   UNL     1      45.961   1.720   8.099  0.00  0.00    +0.000 NA
ATOM     12  C   UNL     1      45.417   2.252   9.226  0.00  0.00    +0.000 A 
BRANCH  10  13
ATOM     13  C   UNL     1      47.039   2.018   5.870  0.00  0.00    +0.000 C 
ATOM     14  F   UNL     1      48.386   2.240   5.769  0.00  0.00    +0.000 F 
ATOM     15  F   UNL     1      46.890   0.666   5.751  0.00  0.00    +0.000 F 
ATOM     16  F   UNL     1      46.501   2.558   4.739  0.00  0.00    +0.000 F 
ENDBRANCH  10  13
ENDBRANCH   5   7
BRANCH   1  17
ATOM     17  C   UNL     1      45.989   5.828  13.956  0.00  0.00    +0.000 C 
ATOM     18  C   UNL     1      47.029   4.789  14.397  0.00  0.00    +0.000 C 
BRANCH  17  19
ATOM     19  C   UNL     1      46.752   7.114  13.541  0.00  0.00    +0.000 C 
BRANCH  19  20
ATOM     20  N   UNL     1      47.960   6.840  12.782  0.00  0.00    +0.000 N 
ATOM     21  H   UNL     1      48.431   5.945  12.860  0.00  0.00    +0.000 HD
BRANCH  20  27
ATOM     22  C   UNL     1      48.176  11.371  11.428  0.00  0.00    +0.000 C 
ATOM     23  C   UNL     1      48.853  10.036  11.511  0.00  0.00    +0.000 A 
ATOM     24  C   UNL     1      50.167   9.883  11.077  0.00  0.00    +0.000 A 
ATOM     25  C   UNL     1      50.779   8.639  11.205  0.00  0.00    +0.000 A 
ATOM     26  C   UNL     1      50.025   7.597  11.757  0.00  0.00    +0.000 A 
ATOM     27  C   UNL     1      48.716   7.812  12.174  0.00  0.00    +0.000 A 
ATOM     28  N   UNL     1      48.127   9.015  12.035  0.00  0.00    +0.000 NA
BRANCH  25  29
ATOM     29  C   UNL     1      52.205   8.356  10.768  0.00  0.00    +0.000 C 
ATOM     30  C   UNL     1      52.290   7.011  10.044  0.00  0.00    +0.000 C 
ATOM     31  C   UNL     1      52.822   9.470   9.920  0.00  0.00    +0.000 C 
ENDBRANCH  25  29
ENDBRANCH  20  27
ENDBRANCH  19  20
ENDBRANCH  17  19
ENDBRANCH   1  17
TORSDOF 7
ENDMDL
MODEL 5
REMARK VINA RESULT:    -6.137      3.363      5.508
REMARK INTER + INTRA:         -10.580
REMARK INTER:                  -9.378
REMARK INTRA:                  -1.202
REMARK UNBOUND:                -1.931
REMARK  Name = 
REMARK  11 active torsions:
REMARK  status: ('A' for Active; 'I' for Inactive)
REMARK    1  A    between atoms: C_1  and  C_2
REMARK    2  A    between atoms: C_4  and  C_5
REMARK    3  A    between atoms: C_5  and  C_6
REMARK    4  A    between atoms: C_5  and  C_7
REMARK    5  A    between atoms: C_9  and  N_10
REMARK    6  A    between atoms: N_10  and  C_11
REMARK    7  A    between atoms: C_11  and  C_12
REMARK    8  A    between atoms: C_12  and  C_13
REMARK    9  A    between atoms: C_12  and  C_14
REMARK   10  A    between atoms: C_18  and  C_19
REMARK   11  A    between atoms: C_22  and  C_23
REMARK                            x       y       z     vdW  Elec       q    Type
REMARK                         _______ _______ _______ _____ _____    ______ ____
ROOT
ATOM      1  C   UNL     1      47.975   7.579  14.064  0.00  0.00    +0.000 A 
ATOM      2  C   UNL     1      47.313   8.811  14.016  0.00  0.00    +0.000 A 
ATOM      3  C   UNL     1      46.123   8.953  13.298  0.00  0.00    +0.000 A 
ATOM      4  C   UNL     1      45.610   7.878  12.563  0.00  0.00    +0.000 A 
ATOM      5  C   UNL     1      46.252   6.635  12.564  0.00  0.00    +0.000 A 
ATOM      6  C   UNL     1      47.390   6.503  13.380  0.00  0.00    +0.000 A 
ENDROOT
BRANCH   5   7
ATOM      7  C   UNL     1      45.836   5.509  11.698  0.00  0.00    +0.000 A 
ATOM      8  C   UNL     1      45.566   4.239  12.240  0.00  0.00    +0.000 A 
ATOM      9  C   UNL     1      45.177   3.175  11.430  0.00  0.00    +0.000 A 
ATOM     10  C   UNL     1      45.071   3.373  10.058  0.00  0.00    +0.000 A 
ATOM     11  N   UNL     1      45.332   4.588   9.494  0.00  0.00    +0.000 NA
ATOM     12  C   UNL     1      45.699   5.606  10.318  0.00  0.00    +0.000 A 
BRANCH  10  13
ATOM     13  C   UNL     1      44.668   2.207   9.164  0.00  0.00    +0.000 C 
ATOM     14  F   UNL     1      43.738   1.382   9.739  0.00  0.00    +0.000 F 
ATOM     15  F   UNL     1      44.112   2.602   7.982  0.00  0.00    +0.000 F 
ATOM     16  F   UNL     1      45.714   1.395   8.837  0.00  0.00    +0.000 F 
ENDBRANCH  10  13
ENDBRANCH   5   7
BRANCH   1  17
ATOM     17  C   UNL     1      49.335   7.453  14.751  0.00  0.00    +0.000 C 
ATOM     18  C   UNL     1      50.459   7.998  13.858  0.00  0.00    +0.000 C 
BRANCH  17  19
ATOM     19  C   UNL     1      49.464   8.131  16.141  0.00  0.00    +0.000 C 
BRANCH  19  20
ATOM     20  N   UNL     1      48.918   7.327  17.221  0.00  0.00    +0.000 N 
ATOM     21  H   UNL     1      48.477   7.765  18.022  0.00  0.00    +0.000 HD
BRANCH  20  27
ATOM     22  C   UNL     1      47.210   2.917  17.427  0.00  0.00    +0.000 C 
ATOM     23  C   UNL     1      48.402   3.823  17.501  0.00  0.00    +0.000 A 
ATOM     24  C   UNL     1      49.680   3.294  17.656  0.00  0.00    +0.000 A 
ATOM     25  C   UNL     1      50.770   4.161  17.681  0.00  0.00    +0.000 A 
ATOM     26  C   UNL     1      50.514   5.531  17.562  0.00  0.00    +0.000 A 
ATOM     27  C   UNL     1      49.214   5.999  17.408  0.00  0.00    +0.000 A 
ATOM     28  N   UNL     1      48.164   5.155  17.398  0.00  0.00    +0.000 NA
BRANCH  25  29
ATOM     29  C   UNL     1      52.207   3.698  17.843  0.00  0.00    +0.000 C 
ATOM     30  C   UNL     1      52.832   4.309  19.097  0.00  0.00    +0.000 C 
ATOM     31  C   UNL     1      52.369   2.177  17.839  0.00  0.00    +0.000 C 
ENDBRANCH  25  29
ENDBRANCH  20  27
ENDBRANCH  19  20
ENDBRANCH  17  19
ENDBRANCH   1  17
TORSDOF 7
ENDMDL
MODEL 6
REMARK VINA RESULT:    -6.131      3.091      4.921
REMARK INTER + INTRA:         -10.571
REMARK INTER:                  -9.383
REMARK INTRA:                  -1.187
REMARK UNBOUND:                -1.931
REMARK  Name = 
REMARK  11 active torsions:
REMARK  status: ('A' for Active; 'I' for Inactive)
REMARK    1  A    between atoms: C_1  and  C_2
REMARK    2  A    between atoms: C_4  and  C_5
REMARK    3  A    between atoms: C_5  and  C_6
REMARK    4  A    between atoms: C_5  and  C_7
REMARK    5  A    between atoms: C_9  and  N_10
REMARK    6  A    between atoms: N_10  and  C_11
REMARK    7  A    between atoms: C_11  and  C_12
REMARK    8  A    between atoms: C_12  and  C_13
REMARK    9  A    between atoms: C_12  and  C_14
REMARK   10  A    between atoms: C_18  and  C_19
REMARK   11  A    between atoms: C_22  and  C_23
REMARK                            x       y       z     vdW  Elec       q    Type
REMARK                         _______ _______ _______ _____ _____    ______ ____
ROOT
ATOM      1  C   UNL     1      47.635   7.846  13.672  0.00  0.00    +0.000 A 
ATOM      2  C   UNL     1      46.833   8.992  13.624  0.00  0.00    +0.000 A 
ATOM      3  C   UNL     1      45.624   8.988  12.924  0.00  0.00    +0.000 A 
ATOM      4  C   UNL     1      45.229   7.852  12.206  0.00  0.00    +0.000 A 
ATOM      5  C   UNL     1      46.010   6.692  12.209  0.00  0.00    +0.000 A 
ATOM      6  C   UNL     1      47.168   6.702  13.007  0.00  0.00    +0.000 A 
ENDROOT
BRANCH   5   7
ATOM      7  C   UNL     1      45.715   5.516  11.360  0.00  0.00    +0.000 A 
ATOM      8  C   UNL     1      45.782   5.599   9.958  0.00  0.00    +0.000 A 
ATOM      9  C   UNL     1      45.503   4.497   9.153  0.00  0.00    +0.000 A 
ATOM     10  C   UNL     1      45.134   3.299   9.753  0.00  0.00    +0.000 A 
ATOM     11  N   UNL     1      45.049   3.181  11.110  0.00  0.00    +0.000 NA
ATOM     12  C   UNL     1      45.340   4.275  11.864  0.00  0.00    +0.000 A 
BRANCH  10  13
ATOM     13  C   UNL     1      44.805   2.096   8.878  0.00  0.00    +0.000 C 
ATOM     14  F   UNL     1      45.909   1.361   8.534  0.00  0.00    +0.000 F 
ATOM     15  F   UNL     1      43.959   1.209   9.477  0.00  0.00    +0.000 F 
ATOM     16  F   UNL     1      44.220   2.437   7.694  0.00  0.00    +0.000 F 
ENDBRANCH  10  13
ENDBRANCH   5   7
BRANCH   1  17
ATOM     17  C   UNL     1      49.010   7.886  14.339  0.00  0.00    +0.000 C 
ATOM     18  C   UNL     1      50.043   8.572  13.434  0.00  0.00    +0.000 C 
BRANCH  17  19
ATOM     19  C   UNL     1      49.075   8.567  15.732  0.00  0.00    +0.000 C 
BRANCH  19  20
ATOM     20  N   UNL     1      48.328   7.851  16.752  0.00  0.00    +0.000 N 
ATOM     21  H   UNL     1      47.486   8.248  17.153  0.00  0.00    +0.000 HD
BRANCH  20  27
ATOM     22  C   UNL     1      50.635   6.465  20.646  0.00  0.00    +0.000 C 
ATOM     23  C   UNL     1      49.949   6.079  19.370  0.00  0.00    +0.000 A 
ATOM     24  C   UNL     1      49.786   4.737  19.036  0.00  0.00    +0.000 A 
ATOM     25  C   UNL     1      49.108   4.412  17.863  0.00  0.00    +0.000 A 
ATOM     26  C   UNL     1      48.636   5.465  17.072  0.00  0.00    +0.000 A 
ATOM     27  C   UNL     1      48.830   6.786  17.460  0.00  0.00    +0.000 A 
ATOM     28  N   UNL     1      49.497   7.093  18.589  0.00  0.00    +0.000 NA
BRANCH  25  29
ATOM     29  C   UNL     1      48.870   2.987  17.399  0.00  0.00    +0.000 C 
ATOM     30  C   UNL     1      47.948   2.964  16.179  0.00  0.00    +0.000 C 
ATOM     31  C   UNL     1      50.156   2.204  17.124  0.00  0.00    +0.000 C 
ENDBRANCH  25  29
ENDBRANCH  20  27
ENDBRANCH  19  20
ENDBRANCH  17  19
ENDBRANCH   1  17
TORSDOF 7
ENDMDL
MODEL 7
REMARK VINA RESULT:    -6.083      2.825      5.489
REMARK INTER + INTRA:         -10.504
REMARK INTER:                  -8.259
REMARK INTRA:                  -2.245
REMARK UNBOUND:                -1.931
REMARK  Name = 
REMARK  11 active torsions:
REMARK  status: ('A' for Active; 'I' for Inactive)
REMARK    1  A    between atoms: C_1  and  C_2
REMARK    2  A    between atoms: C_4  and  C_5
REMARK    3  A    between atoms: C_5  and  C_6
REMARK    4  A    between atoms: C_5  and  C_7
REMARK    5  A    between atoms: C_9  and  N_10
REMARK    6  A    between atoms: N_10  and  C_11
REMARK    7  A    between atoms: C_11  and  C_12
REMARK    8  A    between atoms: C_12  and  C_13
REMARK    9  A    between atoms: C_12  and  C_14
REMARK   10  A    between atoms: C_18  and  C_19
REMARK   11  A    between atoms: C_22  and  C_23
REMARK                            x       y       z     vdW  Elec       q    Type
REMARK                         _______ _______ _______ _____ _____    ______ ____
ROOT
ATOM      1  C   UNL     1      48.656   6.022  16.607  0.00  0.00    +0.000 A 
ATOM      2  C   UNL     1      48.610   4.971  17.529  0.00  0.00    +0.000 A 
ATOM      3  C   UNL     1      48.022   3.750  17.189  0.00  0.00    +0.000 A 
ATOM      4  C   UNL     1      47.414   3.584  15.939  0.00  0.00    +0.000 A 
ATOM      5  C   UNL     1      47.419   4.615  14.995  0.00  0.00    +0.000 A 
ATOM      6  C   UNL     1      48.107   5.793  15.336  0.00  0.00    +0.000 A 
ENDROOT
BRANCH   5   7
ATOM      7  C   UNL     1      46.674   4.546  13.718  0.00  0.00    +0.000 A 
ATOM      8  C   UNL     1      46.556   5.673  12.885  0.00  0.00    +0.000 A 
ATOM      9  C   UNL     1      45.854   5.615  11.683  0.00  0.00    +0.000 A 
ATOM     10  C   UNL     1      45.245   4.421  11.313  0.00  0.00    +0.000 A 
ATOM     11  N   UNL     1      45.329   3.308  12.099  0.00  0.00    +0.000 NA
ATOM     12  C   UNL     1      46.033   3.400  13.259  0.00  0.00    +0.000 A 
BRANCH  10  13
ATOM     13  C   UNL     1      44.457   4.357  10.011  0.00  0.00    +0.000 C 
ATOM     14  F   UNL     1      45.140   4.869   8.941  0.00  0.00    +0.000 F 
ATOM     15  F   UNL     1      44.122   3.085   9.646  0.00  0.00    +0.000 F 
ATOM     16  F   UNL     1      43.287   5.057  10.057  0.00  0.00    +0.000 F 
ENDBRANCH  10  13
ENDBRANCH   5   7
BRANCH   1  17
ATOM     17  C   UNL     1      49.193   7.394  17.017  0.00  0.00    +0.000 C 
ATOM     18  C   UNL     1      49.596   7.410  18.498  0.00  0.00    +0.000 C 
BRANCH  17  19
ATOM     19  C   UNL     1      50.394   7.932  16.194  0.00  0.00    +0.000 C 
BRANCH  19  20
ATOM     20  N   UNL     1      50.047   9.062  15.351  0.00  0.00    +0.000 N 
ATOM     21  H   UNL     1      49.887   9.980  15.752  0.00  0.00    +0.000 HD
BRANCH  20  27
ATOM     22  C   UNL     1      51.113   7.615  10.971  0.00  0.00    +0.000 C 
ATOM     23  C   UNL     1      50.106   8.227  11.897  0.00  0.00    +0.000 A 
ATOM     24  C   UNL     1      48.827   8.538  11.443  0.00  0.00    +0.000 A 
ATOM     25  C   UNL     1      47.902   9.069  12.339  0.00  0.00    +0.000 A 
ATOM     26  C   UNL     1      48.321   9.274  13.659  0.00  0.00    +0.000 A 
ATOM     27  C   UNL     1      49.612   8.942  14.053  0.00  0.00    +0.000 A 
ATOM     28  N   UNL     1      50.504   8.442  13.177  0.00  0.00    +0.000 NA
BRANCH  25  29
ATOM     29  C   UNL     1      46.482   9.443  11.957  0.00  0.00    +0.000 C 
ATOM     30  C   UNL     1      45.505   9.059  13.070  0.00  0.00    +0.000 C 
ATOM     31  C   UNL     1      46.315  10.913  11.568  0.00  0.00    +0.000 C 
ENDBRANCH  25  29
ENDBRANCH  20  27
ENDBRANCH  19  20
ENDBRANCH  17  19
ENDBRANCH   1  17
TORSDOF 7
ENDMDL
MODEL 8
REMARK VINA RESULT:    -5.652      2.794      5.825
REMARK INTER + INTRA:          -9.896
REMARK INTER:                  -8.062
REMARK INTRA:                  -1.834
REMARK UNBOUND:                -1.931
REMARK  Name = 
REMARK  11 active torsions:
REMARK  status: ('A' for Active; 'I' for Inactive)
REMARK    1  A    between atoms: C_1  and  C_2
REMARK    2  A    between atoms: C_4  and  C_5
REMARK    3  A    between atoms: C_5  and  C_6
REMARK    4  A    between atoms: C_5  and  C_7
REMARK    5  A    between atoms: C_9  and  N_10
REMARK    6  A    between atoms: N_10  and  C_11
REMARK    7  A    between atoms: C_11  and  C_12
REMARK    8  A    between atoms: C_12  and  C_13
REMARK    9  A    between atoms: C_12  and  C_14
REMARK   10  A    between atoms: C_18  and  C_19
REMARK   11  A    between atoms: C_22  and  C_23
REMARK                            x       y       z     vdW  Elec       q    Type
REMARK                         _______ _______ _______ _____ _____    ______ ____
ROOT
ATOM      1  C   UNL     1      48.524   5.763  16.856  0.00  0.00    +0.000 A 
ATOM      2  C   UNL     1      48.634   4.604  17.633  0.00  0.00    +0.000 A 
ATOM      3  C   UNL     1      48.205   3.370  17.136  0.00  0.00    +0.000 A 
ATOM      4  C   UNL     1      47.600   3.289  15.876  0.00  0.00    +0.000 A 
ATOM      5  C   UNL     1      47.451   4.427  15.075  0.00  0.00    +0.000 A 
ATOM      6  C   UNL     1      47.986   5.630  15.568  0.00  0.00    +0.000 A 
ENDROOT
BRANCH   5   7
ATOM      7  C   UNL     1      46.697   4.426  13.801  0.00  0.00    +0.000 A 
ATOM      8  C   UNL     1      46.518   5.610  13.065  0.00  0.00    +0.000 A 
ATOM      9  C   UNL     1      45.808   5.617  11.866  0.00  0.00    +0.000 A 
ATOM     10  C   UNL     1      45.251   4.430  11.404  0.00  0.00    +0.000 A 
ATOM     11  N   UNL     1      45.396   3.262  12.095  0.00  0.00    +0.000 NA
ATOM     12  C   UNL     1      46.106   3.292  13.255  0.00  0.00    +0.000 A 
BRANCH  10  13
ATOM     13  C   UNL     1      44.454   4.434  10.106  0.00  0.00    +0.000 C 
ATOM     14  F   UNL     1      43.294   5.157  10.188  0.00  0.00    +0.000 F 
ATOM     15  F   UNL     1      45.137   4.973   9.055  0.00  0.00    +0.000 F 
ATOM     16  F   UNL     1      44.070   3.187   9.708  0.00  0.00    +0.000 F 
ENDBRANCH  10  13
ENDBRANCH   5   7
BRANCH   1  17
ATOM     17  C   UNL     1      48.885   7.128  17.442  0.00  0.00    +0.000 C 
ATOM     18  C   UNL     1      49.419   6.992  18.875  0.00  0.00    +0.000 C 
BRANCH  17  19
ATOM     19  C   UNL     1      49.908   7.970  16.634  0.00  0.00    +0.000 C 
BRANCH  19  20
ATOM     20  N   UNL     1      49.289   9.037  15.866  0.00  0.00    +0.000 N 
ATOM     21  H   UNL     1      48.753   9.764  16.325  0.00  0.00    +0.000 HD
BRANCH  20  27
ATOM     22  C   UNL     1      46.174   9.312  12.310  0.00  0.00    +0.000 C 
ATOM     23  C   UNL     1      47.600   9.134  12.741  0.00  0.00    +0.000 A 
ATOM     24  C   UNL     1      48.614   9.030  11.794  0.00  0.00    +0.000 A 
ATOM     25  C   UNL     1      49.932   8.906  12.227  0.00  0.00    +0.000 A 
ATOM     26  C   UNL     1      50.163   8.880  13.607  0.00  0.00    +0.000 A 
ATOM     27  C   UNL     1      49.107   8.990  14.505  0.00  0.00    +0.000 A 
ATOM     28  N   UNL     1      47.834   9.096  14.078  0.00  0.00    +0.000 NA
BRANCH  25  29
ATOM     29  C   UNL     1      51.117   8.787  11.286  0.00  0.00    +0.000 C 
ATOM     30  C   UNL     1      52.413   9.178  12.000  0.00  0.00    +0.000 C 
ATOM     31  C   UNL     1      51.250   7.409  10.633  0.00  0.00    +0.000 C 
ENDBRANCH  25  29
ENDBRANCH  20  27
ENDBRANCH  19  20
ENDBRANCH  17  19
ENDBRANCH   1  17
TORSDOF 7
ENDMDL
MODEL 9
REMARK VINA RESULT:    -5.632      5.812      8.774
REMARK INTER + INTRA:          -9.868
REMARK INTER:                  -8.707
REMARK INTRA:                  -1.161
REMARK UNBOUND:                -1.931
REMARK  Name = 
REMARK  11 active torsions:
REMARK  status: ('A' for Active; 'I' for Inactive)
REMARK    1  A    between atoms: C_1  and  C_2
REMARK    2  A    between atoms: C_4  and  C_5
REMARK    3  A    between atoms: C_5  and  C_6
REMARK    4  A    between atoms: C_5  and  C_7
REMARK    5  A    between atoms: C_9  and  N_10
REMARK    6  A    between atoms: N_10  and  C_11
REMARK    7  A    between atoms: C_11  and  C_12
REMARK    8  A    between atoms: C_12  and  C_13
REMARK    9  A    between atoms: C_12  and  C_14
REMARK   10  A    between atoms: C_18  and  C_19
REMARK   11  A    between atoms: C_22  and  C_23
REMARK                            x       y       z     vdW  Elec       q    Type
REMARK                         _______ _______ _______ _____ _____    ______ ____
ROOT
ATOM      1  C   UNL     1      48.740   5.508  16.562  0.00  0.00    +0.000 A 
ATOM      2  C   UNL     1      47.530   4.809  16.498  0.00  0.00    +0.000 A 
ATOM      3  C   UNL     1      47.456   3.472  16.899  0.00  0.00    +0.000 A 
ATOM      4  C   UNL     1      48.610   2.796  17.312  0.00  0.00    +0.000 A 
ATOM      5  C   UNL     1      49.845   3.450  17.370  0.00  0.00    +0.000 A 
ATOM      6  C   UNL     1      49.859   4.820  17.055  0.00  0.00    +0.000 A 
ENDROOT
BRANCH   5   7
ATOM      7  C   UNL     1      51.117   2.751  17.662  0.00  0.00    +0.000 A 
ATOM      8  C   UNL     1      52.209   3.438  18.220  0.00  0.00    +0.000 A 
ATOM      9  C   UNL     1      53.410   2.787  18.496  0.00  0.00    +0.000 A 
ATOM     10  C   UNL     1      53.530   1.435  18.193  0.00  0.00    +0.000 A 
ATOM     11  N   UNL     1      52.495   0.736  17.643  0.00  0.00    +0.000 NA
ATOM     12  C   UNL     1      51.335   1.403  17.400  0.00  0.00    +0.000 A 
BRANCH  10  13
ATOM     13  C   UNL     1      54.847   0.723  18.470  0.00  0.00    +0.000 C 
ATOM     14  F   UNL     1      55.728   1.479  19.197  0.00  0.00    +0.000 F 
ATOM     15  F   UNL     1      54.697  -0.432  19.182  0.00  0.00    +0.000 F 
ATOM     16  F   UNL     1      55.522   0.381  17.334  0.00  0.00    +0.000 F 
ENDBRANCH  10  13
ENDBRANCH   5   7
BRANCH   1  17
ATOM     17  C   UNL     1      48.847   6.931  16.014  0.00  0.00    +0.000 C 
ATOM     18  C   UNL     1      50.200   7.562  16.373  0.00  0.00    +0.000 C 
BRANCH  17  19
ATOM     19  C   UNL     1      48.641   7.093  14.485  0.00  0.00    +0.000 C 
BRANCH  19  20
ATOM     20  N   UNL     1      47.498   7.924  14.148  0.00  0.00    +0.000 N 
ATOM     21  H   UNL     1      47.236   8.709  14.733  0.00  0.00    +0.000 HD
BRANCH  20  27
ATOM     22  C   UNL     1      44.225   9.434  11.078  0.00  0.00    +0.000 C 
ATOM     23  C   UNL     1      44.925   8.275  11.721  0.00  0.00    +0.000 A 
ATOM     24  C   UNL     1      44.639   6.971  11.327  0.00  0.00    +0.000 A 
ATOM     25  C   UNL     1      45.336   5.919  11.917  0.00  0.00    +0.000 A 
ATOM     26  C   UNL     1      46.286   6.236  12.893  0.00  0.00    +0.000 A 
ATOM     27  C   UNL     1      46.529   7.559  13.244  0.00  0.00    +0.000 A 
ATOM     28  N   UNL     1      45.842   8.570  12.679  0.00  0.00    +0.000 NA
BRANCH  25  29
ATOM     29  C   UNL     1      45.109   4.460  11.565  0.00  0.00    +0.000 C 
ATOM     30  C   UNL     1      45.621   3.550  12.682  0.00  0.00    +0.000 C 
ATOM     31  C   UNL     1      43.656   4.129  11.216  0.00  0.00    +0.000 C 
ENDBRANCH  25  29
ENDBRANCH  20  27
ENDBRANCH  19  20
ENDBRANCH  17  19
ENDBRANCH   1  17
TORSDOF 7
ENDMDL
