MODEL 1
REMARK VINA RESULT:    -6.610      0.000      0.000
REMARK INTER + INTRA:          -9.935
REMARK INTER:                  -9.314
REMARK INTRA:                  -0.620
REMARK UNBOUND:                -0.620
REMARK  Name = 
REMARK  9 active torsions:
REMARK  status: ('A' for Active; 'I' for Inactive)
REMARK    1  A    between atoms: C_1  and  N_2
REMARK    2  A    between atoms: N_2  and  C_3
REMARK    3  A    between atoms: N_2  and  C_4
REMARK    4  A    between atoms: C_4  and  C_5
REMARK    5  A    between atoms: C_5  and  N_6
REMARK    6  A    between atoms: N_6  and  C_7
REMARK    7  A    between atoms: N_6  and  C_14
REMARK    8  A    between atoms: C_7  and  C_8
REMARK    9  A    between atoms: C_17  and  C_18
REMARK                            x       y       z     vdW  Elec       q    Type
REMARK                         _______ _______ _______ _____ _____    ______ ____
ROOT
ATOM      1  N   UNL     1      44.895   3.837  11.206  0.00  0.00    +0.000 N 
ENDROOT
BRANCH   1   2
ATOM      2  C   UNL     1      44.719   5.223  11.209  0.00  0.00    +0.000 A 
ATOM      3  C   UNL     1      45.815   6.083  11.037  0.00  0.00    +0.000 A 
ATOM      4  C   UNL     1      45.661   7.471  11.036  0.00  0.00    +0.000 A 
ATOM      5  C   UNL     1      44.388   7.986  11.209  0.00  0.00    +0.000 A 
ATOM      6  N   UNL     1      43.284   7.214  11.375  0.00  0.00    +0.000 NA
ATOM      7  C   UNL     1      43.487   5.871  11.370  0.00  0.00    +0.000 A 
BRANCH   5   8
ATOM      8  C   UNL     1      44.176   9.472  11.229  0.00  0.00    +0.000 C 
ATOM      9  N   UNL     1      44.360  10.067  12.449  0.00  0.00    +0.000 N 
ATOM     10  O   UNL     1      43.862  10.109  10.237  0.00  0.00    +0.000 OA
ATOM     11  H   UNL     1      44.624   9.497  13.246  0.00  0.00    +0.000 HD
ATOM     12  H   UNL     1      44.242  11.064  12.540  0.00  0.00    +0.000 HD
ENDBRANCH   5   8
ENDBRANCH   1   2
BRANCH   1  13
ATOM     13  C   UNL     1      45.131   3.084  12.466  0.00  0.00    +0.000 C 
BRANCH  13  14
ATOM     14  C   UNL     1      46.521   3.424  13.059  0.00  0.00    +0.000 C 
BRANCH  14  16
ATOM     15  C   UNL     1      47.251   3.578  15.346  0.00  0.00    +0.000 C 
ATOM     16  N   UNL     1      46.537   4.279  14.268  0.00  0.00    +0.000 NA
ATOM     17  C   UNL     1      47.193   5.565  14.023  0.00  0.00    +0.000 C 
ENDBRANCH  14  16
ENDBRANCH  13  14
ENDBRANCH   1  13
BRANCH   1  18
ATOM     18  C   UNL     1      44.295   3.098  10.074  0.00  0.00    +0.000 C 
BRANCH  18  19
ATOM     19  C   UNL     1      45.212   2.874   8.884  0.00  0.00    +0.000 A 
ATOM     20  C   UNL     1      45.620   3.891   8.014  0.00  0.00    +0.000 A 
ATOM     21  C   UNL     1      46.602   3.666   7.046  0.00  0.00    +0.000 A 
ATOM     22  C   UNL     1      47.157   2.400   6.896  0.00  0.00    +0.000 A 
ATOM     23  C   UNL     1      46.701   1.350   7.688  0.00  0.00    +0.000 A 
ATOM     24  C   UNL     1      45.741   1.586   8.677  0.00  0.00    +0.000 A 
ENDBRANCH  18  19
ENDBRANCH   1  18
TORSDOF 7
ENDMDL
MODEL 2
REMARK VINA RESULT:    -6.315      1.638      2.196
REMARK INTER + INTRA:          -9.519
REMARK INTER:                  -8.999
REMARK INTRA:                  -0.521
REMARK UNBOUND:                -0.620
REMARK  Name = 
REMARK  9 active torsions:
REMARK  status: ('A' for Active; 'I' for Inactive)
REMARK    1  A    between atoms: C_1  and  N_2
REMARK    2  A    between atoms: N_2  and  C_3
REMARK    3  A    between atoms: N_2  and  C_4
REMARK    4  A    between atoms: C_4  and  C_5
REMARK    5  A    between atoms: C_5  and  N_6
REMARK    6  A    between atoms: N_6  and  C_7
REMARK    7  A    between atoms: N_6  and  C_14
REMARK    8  A    between atoms: C_7  and  C_8
REMARK    9  A    between atoms: C_17  and  C_18
REMARK                            x       y       z     vdW  Elec       q    Type
REMARK                         _______ _______ _______ _____ _____    ______ ____
ROOT
ATOM      1  N   UNL     1      45.617   4.843  10.869  0.00  0.00    +0.000 N 
ENDROOT
BRANCH   1   2
ATOM      2  C   UNL     1      45.651   6.204  11.179  0.00  0.00    +0.000 A 
ATOM      3  C   UNL     1      46.823   6.796  11.676  0.00  0.00    +0.000 A 
ATOM      4  C   UNL     1      46.879   8.155  11.992  0.00  0.00    +0.000 A 
ATOM      5  C   UNL     1      45.739   8.916  11.802  0.00  0.00    +0.000 A 
ATOM      6  N   UNL     1      44.574   8.412  11.321  0.00  0.00    +0.000 NA
ATOM      7  C   UNL     1      44.571   7.085  11.030  0.00  0.00    +0.000 A 
BRANCH   5   8
ATOM      8  C   UNL     1      45.746  10.378  12.141  0.00  0.00    +0.000 C 
ATOM      9  N   UNL     1      46.956  10.871  12.552  0.00  0.00    +0.000 N 
ATOM     10  O   UNL     1      44.753  11.082  12.058  0.00  0.00    +0.000 OA
ATOM     11  H   UNL     1      47.756  10.248  12.603  0.00  0.00    +0.000 HD
ATOM     12  H   UNL     1      47.043  11.846  12.791  0.00  0.00    +0.000 HD
ENDBRANCH   5   8
ENDBRANCH   1   2
BRANCH   1  13
ATOM     13  C   UNL     1      45.840   3.805  11.909  0.00  0.00    +0.000 C 
BRANCH  13  14
ATOM     14  C   UNL     1      45.064   4.149  13.206  0.00  0.00    +0.000 C 
BRANCH  14  16
ATOM     15  C   UNL     1      42.771   4.861  13.052  0.00  0.00    +0.000 C 
ATOM     16  N   UNL     1      43.654   3.705  13.274  0.00  0.00    +0.000 NA
ATOM     17  C   UNL     1      43.350   2.679  12.274  0.00  0.00    +0.000 C 
ENDBRANCH  14  16
ENDBRANCH  13  14
ENDBRANCH   1  13
BRANCH   1  18
ATOM     18  C   UNL     1      44.823   4.457   9.682  0.00  0.00    +0.000 C 
BRANCH  18  19
ATOM     19  C   UNL     1      45.523   3.533   8.701  0.00  0.00    +0.000 A 
ATOM     20  C   UNL     1      46.329   3.982   7.650  0.00  0.00    +0.000 A 
ATOM     21  C   UNL     1      47.090   3.091   6.889  0.00  0.00    +0.000 A 
ATOM     22  C   UNL     1      47.018   1.724   7.135  0.00  0.00    +0.000 A 
ATOM     23  C   UNL     1      46.153   1.246   8.115  0.00  0.00    +0.000 A 
ATOM     24  C   UNL     1      45.416   2.143   8.896  0.00  0.00    +0.000 A 
ENDBRANCH  18  19
ENDBRANCH   1  18
TORSDOF 7
ENDMDL
MODEL 3
REMARK VINA RESULT:    -6.196      2.355      3.378
REMARK INTER + INTRA:          -9.352
REMARK INTER:                  -8.978
REMARK INTRA:                  -0.373
REMARK UNBOUND:                -0.620
REMARK  Name = 
REMARK  9 active torsions:
REMARK  status: ('A' for Active; 'I' for Inactive)
REMARK    1  A    between atoms: C_1  and  N_2
REMARK    2  A    between atoms: N_2  and  C_3
REMARK    3  A    between atoms: N_2  and  C_4
REMARK    4  A    between atoms: C_4  and  C_5
REMARK    5  A    between atoms: C_5  and  N_6
REMARK    6  A    between atoms: N_6  and  C_7
REMARK    7  A    between atoms: N_6  and  C_14
REMARK    8  A    between atoms: C_7  and  C_8
REMARK    9  A    between atoms: C_17  and  C_18
REMARK                            x       y       z     vdW  Elec       q    Type
REMARK                         _______ _______ _______ _____ _____    ______ ____
ROOT
ATOM      1  N   UNL     1      45.391   4.287  10.864  0.00  0.00    +0.000 N 
ENDROOT
BRANCH   1   2
ATOM      2  C   UNL     1      46.066   5.216  11.660  0.00  0.00    +0.000 A 
ATOM      3  C   UNL     1      46.600   4.840  12.902  0.00  0.00    +0.000 A 
ATOM      4  C   UNL     1      47.278   5.753  13.712  0.00  0.00    +0.000 A 
ATOM      5  C   UNL     1      47.413   7.053  13.258  0.00  0.00    +0.000 A 
ATOM      6  N   UNL     1      46.927   7.485  12.067  0.00  0.00    +0.000 NA
ATOM      7  C   UNL     1      46.275   6.558  11.316  0.00  0.00    +0.000 A 
BRANCH   5   8
ATOM      8  C   UNL     1      48.122   8.073  14.101  0.00  0.00    +0.000 C 
ATOM      9  N   UNL     1      47.312   9.025  14.662  0.00  0.00    +0.000 N 
ATOM     10  O   UNL     1      49.330   8.063  14.277  0.00  0.00    +0.000 OA
ATOM     11  H   UNL     1      46.313   8.992  14.489  0.00  0.00    +0.000 HD
ATOM     12  H   UNL     1      47.714   9.740  15.247  0.00  0.00    +0.000 HD
ENDBRANCH   5   8
ENDBRANCH   1   2
BRANCH   1  13
ATOM     13  C   UNL     1      44.364   3.378  11.436  0.00  0.00    +0.000 C 
BRANCH  13  14
ATOM     14  C   UNL     1      42.936   3.878  11.099  0.00  0.00    +0.000 C 
BRANCH  14  16
ATOM     15  C   UNL     1      43.010   4.869  13.290  0.00  0.00    +0.000 C 
ATOM     16  N   UNL     1      42.387   4.950  11.959  0.00  0.00    +0.000 NA
ATOM     17  C   UNL     1      42.629   6.282  11.402  0.00  0.00    +0.000 C 
ENDBRANCH  14  16
ENDBRANCH  13  14
ENDBRANCH   1  13
BRANCH   1  18
ATOM     18  C   UNL     1      45.295   4.601   9.422  0.00  0.00    +0.000 C 
BRANCH  18  19
ATOM     19  C   UNL     1      45.877   3.555   8.487  0.00  0.00    +0.000 A 
ATOM     20  C   UNL     1      46.704   3.859   7.399  0.00  0.00    +0.000 A 
ATOM     21  C   UNL     1      47.355   2.853   6.681  0.00  0.00    +0.000 A 
ATOM     22  C   UNL     1      47.147   1.517   7.007  0.00  0.00    +0.000 A 
ATOM     23  C   UNL     1      46.257   1.187   8.025  0.00  0.00    +0.000 A 
ATOM     24  C   UNL     1      45.632   2.197   8.763  0.00  0.00    +0.000 A 
ENDBRANCH  18  19
ENDBRANCH   1  18
TORSDOF 7
ENDMDL
MODEL 4
REMARK VINA RESULT:    -5.961      3.683      6.854
REMARK INTER + INTRA:          -9.020
REMARK INTER:                  -8.059
REMARK INTRA:                  -0.961
REMARK UNBOUND:                -0.620
REMARK  Name = 
REMARK  9 active torsions:
REMARK  status: ('A' for Active; 'I' for Inactive)
REMARK    1  A    between atoms: C_1  and  N_2
REMARK    2  A    between atoms: N_2  and  C_3
REMARK    3  A    between atoms: N_2  and  C_4
REMARK    4  A    between atoms: C_4  and  C_5
REMARK    5  A    between atoms: C_5  and  N_6
REMARK    6  A    between atoms: N_6  and  C_7
REMARK    7  A    between atoms: N_6  and  C_14
REMARK    8  A    between atoms: C_7  and  C_8
REMARK    9  A    between atoms: C_17  and  C_18
REMARK                            x       y       z     vdW  Elec       q    Type
REMARK                         _______ _______ _______ _____ _____    ______ ____
ROOT
ATOM      1  N   UNL     1      46.515   6.370  12.423  0.00  0.00    +0.000 N 
ENDROOT
BRANCH   1   2
ATOM      2  C   UNL     1      46.916   5.472  13.415  0.00  0.00    +0.000 A 
ATOM      3  C   UNL     1      47.520   5.934  14.596  0.00  0.00    +0.000 A 
ATOM      4  C   UNL     1      47.927   5.054  15.601  0.00  0.00    +0.000 A 
ATOM      5  C   UNL     1      47.720   3.700  15.405  0.00  0.00    +0.000 A 
ATOM      6  N   UNL     1      47.138   3.184  14.292  0.00  0.00    +0.000 NA
ATOM      7  C   UNL     1      46.761   4.082  13.344  0.00  0.00    +0.000 A 
BRANCH   5   8
ATOM      8  C   UNL     1      48.154   2.715  16.451  0.00  0.00    +0.000 C 
ATOM      9  N   UNL     1      47.474   2.792  17.638  0.00  0.00    +0.000 N 
ATOM     10  O   UNL     1      49.046   1.902  16.266  0.00  0.00    +0.000 OA
ATOM     11  H   UNL     1      46.738   3.483  17.744  0.00  0.00    +0.000 HD
ATOM     12  H   UNL     1      47.704   2.159  18.386  0.00  0.00    +0.000 HD
ENDBRANCH   5   8
ENDBRANCH   1   2
BRANCH   1  13
ATOM     13  C   UNL     1      45.738   5.920  11.239  0.00  0.00    +0.000 C 
BRANCH  13  14
ATOM     14  C   UNL     1      44.268   6.400  11.330  0.00  0.00    +0.000 C 
BRANCH  14  16
ATOM     15  C   UNL     1      43.677   4.124  10.821  0.00  0.00    +0.000 C 
ATOM     16  N   UNL     1      43.235   5.354  11.497  0.00  0.00    +0.000 NA
ATOM     17  C   UNL     1      42.980   5.052  12.907  0.00  0.00    +0.000 C 
ENDBRANCH  14  16
ENDBRANCH  13  14
ENDBRANCH   1  13
BRANCH   1  18
ATOM     18  C   UNL     1      46.374   7.785  12.832  0.00  0.00    +0.000 C 
BRANCH  18  19
ATOM     19  C   UNL     1      47.361   8.748  12.195  0.00  0.00    +0.000 A 
ATOM     20  C   UNL     1      47.086  10.101  11.963  0.00  0.00    +0.000 A 
ATOM     21  C   UNL     1      48.086  10.981  11.541  0.00  0.00    +0.000 A 
ATOM     22  C   UNL     1      49.371  10.509  11.292  0.00  0.00    +0.000 A 
ATOM     23  C   UNL     1      49.644   9.152  11.427  0.00  0.00    +0.000 A 
ATOM     24  C   UNL     1      48.649   8.280  11.880  0.00  0.00    +0.000 A 
ENDBRANCH  18  19
ENDBRANCH   1  18
TORSDOF 7
ENDMDL
MODEL 5
REMARK VINA RESULT:    -5.955      2.157      2.735
REMARK INTER + INTRA:          -9.012
REMARK INTER:                  -8.192
REMARK INTRA:                  -0.820
REMARK UNBOUND:                -0.620
REMARK  Name = 
REMARK  9 active torsions:
REMARK  status: ('A' for Active; 'I' for Inactive)
REMARK    1  A    between atoms: C_1  and  N_2
REMARK    2  A    between atoms: N_2  and  C_3
REMARK    3  A    between atoms: N_2  and  C_4
REMARK    4  A    between atoms: C_4  and  C_5
REMARK    5  A    between atoms: C_5  and  N_6
REMARK    6  A    between atoms: N_6  and  C_7
REMARK    7  A    between atoms: N_6  and  C_14
REMARK    8  A    between atoms: C_7  and  C_8
REMARK    9  A    between atoms: C_17  and  C_18
REMARK                            x       y       z     vdW  Elec       q    Type
REMARK                         _______ _______ _______ _____ _____    ______ ____
ROOT
ATOM      1  N   UNL     1      45.616   5.488  12.386  0.00  0.00    +0.000 N 
ENDROOT
BRANCH   1   2
ATOM      2  C   UNL     1      46.210   6.749  12.298  0.00  0.00    +0.000 A 
ATOM      3  C   UNL     1      47.487   6.899  11.735  0.00  0.00    +0.000 A 
ATOM      4  C   UNL     1      48.100   8.151  11.636  0.00  0.00    +0.000 A 
ATOM      5  C   UNL     1      47.411   9.253  12.112  0.00  0.00    +0.000 A 
ATOM      6  N   UNL     1      46.173   9.181  12.663  0.00  0.00    +0.000 NA
ATOM      7  C   UNL     1      45.621   7.942  12.737  0.00  0.00    +0.000 A 
BRANCH   5   8
ATOM      8  C   UNL     1      48.035  10.616  12.040  0.00  0.00    +0.000 C 
ATOM      9  N   UNL     1      47.896  11.377  13.171  0.00  0.00    +0.000 N 
ATOM     10  O   UNL     1      48.623  11.024  11.052  0.00  0.00    +0.000 OA
ATOM     11  H   UNL     1      47.400  10.994  13.970  0.00  0.00    +0.000 HD
ATOM     12  H   UNL     1      48.294  12.302  13.202  0.00  0.00    +0.000 HD
ENDBRANCH   5   8
ENDBRANCH   1   2
BRANCH   1  13
ATOM     13  C   UNL     1      45.669   4.692  13.640  0.00  0.00    +0.000 C 
BRANCH  13  14
ATOM     14  C   UNL     1      47.057   4.022  13.808  0.00  0.00    +0.000 C 
BRANCH  14  16
ATOM     15  C   UNL     1      48.051   5.777  15.118  0.00  0.00    +0.000 C 
ATOM     16  N   UNL     1      47.798   4.330  15.052  0.00  0.00    +0.000 NA
ATOM     17  C   UNL     1      47.059   3.922  16.248  0.00  0.00    +0.000 C 
ENDBRANCH  14  16
ENDBRANCH  13  14
ENDBRANCH   1  13
BRANCH   1  18
ATOM     18  C   UNL     1      44.495   5.221  11.459  0.00  0.00    +0.000 C 
BRANCH  18  19
ATOM     19  C   UNL     1      44.844   4.392  10.235  0.00  0.00    +0.000 A 
ATOM     20  C   UNL     1      45.561   4.886   9.140  0.00  0.00    +0.000 A 
ATOM     21  C   UNL     1      46.008   4.038   8.124  0.00  0.00    +0.000 A 
ATOM     22  C   UNL     1      45.701   2.682   8.162  0.00  0.00    +0.000 A 
ATOM     23  C   UNL     1      44.912   2.183   9.193  0.00  0.00    +0.000 A 
ATOM     24  C   UNL     1      44.492   3.030  10.225  0.00  0.00    +0.000 A 
ENDBRANCH  18  19
ENDBRANCH   1  18
TORSDOF 7
ENDMDL
MODEL 6
REMARK VINA RESULT:    -5.781      3.575      6.175
REMARK INTER + INTRA:          -8.767
REMARK INTER:                  -7.847
REMARK INTRA:                  -0.920
REMARK UNBOUND:                -0.620
REMARK  Name = 
REMARK  9 active torsions:
REMARK  status: ('A' for Active; 'I' for Inactive)
REMARK    1  A    between atoms: C_1  and  N_2
REMARK    2  A    between atoms: N_2  and  C_3
REMARK    3  A    between atoms: N_2  and  C_4
REMARK    4  A    between atoms: C_4  and  C_5
REMARK    5  A    between atoms: C_5  and  N_6
REMARK    6  A    between atoms: N_6  and  C_7
REMARK    7  A    between atoms: N_6  and  C_14
REMARK    8  A    between atoms: C_7  and  C_8
REMARK    9  A    between atoms: C_17  and  C_18
REMARK                            x       y       z     vdW  Elec       q    Type
REMARK                         _______ _______ _______ _____ _____    ______ ____
ROOT
ATOM      1  N   UNL     1      48.072   6.923  13.406  0.00  0.00    +0.000 N 
ENDROOT
BRANCH   1   2
ATOM      2  C   UNL     1      47.028   6.078  13.020  0.00  0.00    +0.000 A 
ATOM      3  C   UNL     1      46.309   6.323  11.839  0.00  0.00    +0.000 A 
ATOM      4  C   UNL     1      45.263   5.491  11.435  0.00  0.00    +0.000 A 
ATOM      5  C   UNL     1      44.947   4.406  12.234  0.00  0.00    +0.000 A 
ATOM      6  N   UNL     1      45.602   4.106  13.384  0.00  0.00    +0.000 NA
ATOM      7  C   UNL     1      46.611   4.947  13.734  0.00  0.00    +0.000 A 
BRANCH   5   8
ATOM      8  C   UNL     1      43.821   3.492  11.847  0.00  0.00    +0.000 C 
ATOM      9  N   UNL     1      43.728   2.342  12.586  0.00  0.00    +0.000 N 
ATOM     10  O   UNL     1      43.042   3.746  10.942  0.00  0.00    +0.000 OA
ATOM     11  H   UNL     1      44.397   2.175  13.331  0.00  0.00    +0.000 HD
ATOM     12  H   UNL     1      42.993   1.681  12.391  0.00  0.00    +0.000 HD
ENDBRANCH   5   8
ENDBRANCH   1   2
BRANCH   1  13
ATOM     13  C   UNL     1      48.262   7.319  14.825  0.00  0.00    +0.000 C 
BRANCH  13  14
ATOM     14  C   UNL     1      49.678   6.930  15.321  0.00  0.00    +0.000 C 
BRANCH  14  16
ATOM     15  C   UNL     1      50.895   5.922  17.134  0.00  0.00    +0.000 C 
ATOM     16  N   UNL     1      49.772   5.744  16.200  0.00  0.00    +0.000 NA
ATOM     17  C   UNL     1      48.546   5.531  16.971  0.00  0.00    +0.000 C 
ENDBRANCH  14  16
ENDBRANCH  13  14
ENDBRANCH   1  13
BRANCH   1  18
ATOM     18  C   UNL     1      49.261   6.944  12.527  0.00  0.00    +0.000 C 
BRANCH  18  19
ATOM     19  C   UNL     1      49.542   8.270  11.842  0.00  0.00    +0.000 A 
ATOM     20  C   UNL     1      48.581   9.272  11.665  0.00  0.00    +0.000 A 
ATOM     21  C   UNL     1      48.933  10.538  11.191  0.00  0.00    +0.000 A 
ATOM     22  C   UNL     1      50.250  10.808  10.834  0.00  0.00    +0.000 A 
ATOM     23  C   UNL     1      51.206   9.800  10.915  0.00  0.00    +0.000 A 
ATOM     24  C   UNL     1      50.856   8.543  11.420  0.00  0.00    +0.000 A 
ENDBRANCH  18  19
ENDBRANCH   1  18
TORSDOF 7
ENDMDL
MODEL 7
REMARK VINA RESULT:    -5.600      3.247      6.612
REMARK INTER + INTRA:          -8.512
REMARK INTER:                  -7.871
REMARK INTRA:                  -0.641
REMARK UNBOUND:                -0.620
REMARK  Name = 
REMARK  9 active torsions:
REMARK  status: ('A' for Active; 'I' for Inactive)
REMARK    1  A    between atoms: C_1  and  N_2
REMARK    2  A    between atoms: N_2  and  C_3
REMARK    3  A    between atoms: N_2  and  C_4
REMARK    4  A    between atoms: C_4  and  C_5
REMARK    5  A    between atoms: C_5  and  N_6
REMARK    6  A    between atoms: N_6  and  C_7
REMARK    7  A    between atoms: N_6  and  C_14
REMARK    8  A    between atoms: C_7  and  C_8
REMARK    9  A    between atoms: C_17  and  C_18
REMARK                            x       y       z     vdW  Elec       q    Type
REMARK                         _______ _______ _______ _____ _____    ______ ____
ROOT
ATOM      1  N   UNL     1      46.134   7.846  12.328  0.00  0.00    +0.000 N 
ENDROOT
BRANCH   1   2
ATOM      2  C   UNL     1      45.588   6.603  12.001  0.00  0.00    +0.000 A 
ATOM      3  C   UNL     1      45.787   6.048  10.727  0.00  0.00    +0.000 A 
ATOM      4  C   UNL     1      45.250   4.806  10.378  0.00  0.00    +0.000 A 
ATOM      5  C   UNL     1      44.509   4.127  11.329  0.00  0.00    +0.000 A 
ATOM      6  N   UNL     1      44.281   4.601  12.580  0.00  0.00    +0.000 NA
ATOM      7  C   UNL     1      44.824   5.812  12.869  0.00  0.00    +0.000 A 
BRANCH   5   8
ATOM      8  C   UNL     1      43.901   2.796  10.996  0.00  0.00    +0.000 C 
ATOM      9  N   UNL     1      44.457   2.158   9.918  0.00  0.00    +0.000 N 
ATOM     10  O   UNL     1      42.980   2.310  11.633  0.00  0.00    +0.000 OA
ATOM     11  H   UNL     1      45.223   2.599   9.421  0.00  0.00    +0.000 HD
ATOM     12  H   UNL     1      44.106   1.256   9.637  0.00  0.00    +0.000 HD
ENDBRANCH   5   8
ENDBRANCH   1   2
BRANCH   1  13
ATOM     13  C   UNL     1      45.275   9.045  12.513  0.00  0.00    +0.000 C 
BRANCH  13  14
ATOM     14  C   UNL     1      44.367   9.268  11.277  0.00  0.00    +0.000 C 
BRANCH  14  16
ATOM     15  C   UNL     1      44.362  11.516  10.421  0.00  0.00    +0.000 C 
ATOM     16  N   UNL     1      43.612  10.540  11.227  0.00  0.00    +0.000 NA
ATOM     17  C   UNL     1      42.280  10.367  10.643  0.00  0.00    +0.000 C 
ENDBRANCH  14  16
ENDBRANCH  13  14
ENDBRANCH   1  13
BRANCH   1  18
ATOM     18  C   UNL     1      47.439   7.830  13.025  0.00  0.00    +0.000 C 
BRANCH  18  19
ATOM     19  C   UNL     1      48.612   8.368  12.224  0.00  0.00    +0.000 A 
ATOM     20  C   UNL     1      48.722   9.699  11.805  0.00  0.00    +0.000 A 
ATOM     21  C   UNL     1      49.899  10.182  11.228  0.00  0.00    +0.000 A 
ATOM     22  C   UNL     1      50.973   9.325  11.012  0.00  0.00    +0.000 A 
ATOM     23  C   UNL     1      50.854   7.977  11.336  0.00  0.00    +0.000 A 
ATOM     24  C   UNL     1      49.685   7.504  11.943  0.00  0.00    +0.000 A 
ENDBRANCH  18  19
ENDBRANCH   1  18
TORSDOF 7
ENDMDL
MODEL 8
REMARK VINA RESULT:    -5.570      2.561      5.091
REMARK INTER + INTRA:          -8.470
REMARK INTER:                  -7.985
REMARK INTRA:                  -0.485
REMARK UNBOUND:                -0.620
REMARK  Name = 
REMARK  9 active torsions:
REMARK  status: ('A' for Active; 'I' for Inactive)
REMARK    1  A    between atoms: C_1  and  N_2
REMARK    2  A    between atoms: N_2  and  C_3
REMARK    3  A    between atoms: N_2  and  C_4
REMARK    4  A    between atoms: C_4  and  C_5
REMARK    5  A    between atoms: C_5  and  N_6
REMARK    6  A    between atoms: N_6  and  C_7
REMARK    7  A    between atoms: N_6  and  C_14
REMARK    8  A    between atoms: C_7  and  C_8
REMARK    9  A    between atoms: C_17  and  C_18
REMARK                            x       y       z     vdW  Elec       q    Type
REMARK                         _______ _______ _______ _____ _____    ______ ____
ROOT
ATOM      1  N   UNL     1      45.178   6.338  11.241  0.00  0.00    +0.000 N 
ENDROOT
BRANCH   1   2
ATOM      2  C   UNL     1      45.738   5.776  12.391  0.00  0.00    +0.000 A 
ATOM      3  C   UNL     1      47.048   6.098  12.780  0.00  0.00    +0.000 A 
ATOM      4  C   UNL     1      47.627   5.548  13.926  0.00  0.00    +0.000 A 
ATOM      5  C   UNL     1      46.871   4.668  14.679  0.00  0.00    +0.000 A 
ATOM      6  N   UNL     1      45.598   4.316  14.366  0.00  0.00    +0.000 NA
ATOM      7  C   UNL     1      45.081   4.878  13.242  0.00  0.00    +0.000 A 
BRANCH   5   8
ATOM      8  C   UNL     1      47.455   4.041  15.912  0.00  0.00    +0.000 C 
ATOM      9  N   UNL     1      47.106   4.646  17.090  0.00  0.00    +0.000 N 
ATOM     10  O   UNL     1      48.187   3.065  15.875  0.00  0.00    +0.000 OA
ATOM     11  H   UNL     1      46.493   5.454  17.072  0.00  0.00    +0.000 HD
ATOM     12  H   UNL     1      47.454   4.279  17.961  0.00  0.00    +0.000 HD
ENDBRANCH   5   8
ENDBRANCH   1   2
BRANCH   1  13
ATOM     13  C   UNL     1      44.271   7.512  11.315  0.00  0.00    +0.000 C 
BRANCH  13  14
ATOM     14  C   UNL     1      44.989   8.724  11.961  0.00  0.00    +0.000 C 
BRANCH  14  16
ATOM     15  C   UNL     1      43.578  10.576  11.354  0.00  0.00    +0.000 C 
ATOM     16  N   UNL     1      44.927  10.005  11.222  0.00  0.00    +0.000 NA
ATOM     17  C   UNL     1      45.903  10.976  11.720  0.00  0.00    +0.000 C 
ENDBRANCH  14  16
ENDBRANCH  13  14
ENDBRANCH   1  13
BRANCH   1  18
ATOM     18  C   UNL     1      45.920   6.130   9.978  0.00  0.00    +0.000 C 
BRANCH  18  19
ATOM     19  C   UNL     1      45.691   4.789   9.302  0.00  0.00    +0.000 A 
ATOM     20  C   UNL     1      44.837   3.801   9.803  0.00  0.00    +0.000 A 
ATOM     21  C   UNL     1      44.526   2.663   9.054  0.00  0.00    +0.000 A 
ATOM     22  C   UNL     1      45.109   2.469   7.807  0.00  0.00    +0.000 A 
ATOM     23  C   UNL     1      46.033   3.392   7.327  0.00  0.00    +0.000 A 
ATOM     24  C   UNL     1      46.317   4.546   8.065  0.00  0.00    +0.000 A 
ENDBRANCH  18  19
ENDBRANCH   1  18
TORSDOF 7
ENDMDL
MODEL 9
REMARK VINA RESULT:    -5.410      3.443      7.097
REMARK INTER + INTRA:          -8.245
REMARK INTER:                  -7.514
REMARK INTRA:                  -0.731
REMARK UNBOUND:                -0.620
REMARK  Name = 
REMARK  9 active torsions:
REMARK  status: ('A' for Active; 'I' for Inactive)
REMARK    1  A    between atoms: C_1  and  N_2
REMARK    2  A    between atoms: N_2  and  C_3
REMARK    3  A    between atoms: N_2  and  C_4
REMARK    4  A    between atoms: C_4  and  C_5
REMARK    5  A    between atoms: C_5  and  N_6
REMARK    6  A    between atoms: N_6  and  C_7
REMARK    7  A    between atoms: N_6  and  C_14
REMARK    8  A    between atoms: C_7  and  C_8
REMARK    9  A    between atoms: C_17  and  C_18
REMARK                            x       y       z     vdW  Elec       q    Type
REMARK                         _______ _______ _______ _____ _____    ______ ____
ROOT
ATOM      1  N   UNL     1      47.802   5.516  15.148  0.00  0.00    +0.000 N 
ENDROOT
BRANCH   1   2
ATOM      2  C   UNL     1      46.955   4.966  14.182  0.00  0.00    +0.000 A 
ATOM      3  C   UNL     1      46.100   5.785  13.429  0.00  0.00    +0.000 A 
ATOM      4  C   UNL     1      45.246   5.255  12.459  0.00  0.00    +0.000 A 
ATOM      5  C   UNL     1      45.262   3.887  12.255  0.00  0.00    +0.000 A 
ATOM      6  N   UNL     1      46.066   3.036  12.942  0.00  0.00    +0.000 NA
ATOM      7  C   UNL     1      46.877   3.601  13.874  0.00  0.00    +0.000 A 
BRANCH   5   8
ATOM      8  C   UNL     1      44.352   3.270  11.233  0.00  0.00    +0.000 C 
ATOM      9  N   UNL     1      43.023   3.270  11.565  0.00  0.00    +0.000 N 
ATOM     10  O   UNL     1      44.758   2.801  10.182  0.00  0.00    +0.000 OA
ATOM     11  H   UNL     1      42.732   3.674  12.449  0.00  0.00    +0.000 HD
ATOM     12  H   UNL     1      42.349   2.879  10.927  0.00  0.00    +0.000 HD
ENDBRANCH   5   8
ENDBRANCH   1   2
BRANCH   1  13
ATOM     13  C   UNL     1      48.323   6.902  15.021  0.00  0.00    +0.000 C 
BRANCH  13  14
ATOM     14  C   UNL     1      49.418   6.982  13.927  0.00  0.00    +0.000 C 
BRANCH  14  16
ATOM     15  C   UNL     1      50.689   8.678  12.790  0.00  0.00    +0.000 C 
ATOM     16  N   UNL     1      49.340   8.125  12.990  0.00  0.00    +0.000 NA
ATOM     17  C   UNL     1      48.790   7.736  11.691  0.00  0.00    +0.000 C 
ENDBRANCH  14  16
ENDBRANCH  13  14
ENDBRANCH   1  13
BRANCH   1  18
ATOM     18  C   UNL     1      47.708   4.946  16.509  0.00  0.00    +0.000 C 
BRANCH  18  19
ATOM     19  C   UNL     1      48.906   4.128  16.957  0.00  0.00    +0.000 A 
ATOM     20  C   UNL     1      48.971   2.733  16.869  0.00  0.00    +0.000 A 
ATOM     21  C   UNL     1      50.160   2.045  17.127  0.00  0.00    +0.000 A 
ATOM     22  C   UNL     1      51.295   2.741  17.531  0.00  0.00    +0.000 A 
ATOM     23  C   UNL     1      51.229   4.118  17.714  0.00  0.00    +0.000 A 
ATOM     24  C   UNL     1      50.046   4.807  17.424  0.00  0.00    +0.000 A 
ENDBRANCH  18  19
ENDBRANCH   1  18
TORSDOF 7
ENDMDL
