MODEL 1
REMARK VINA RESULT:    -9.625      0.000      0.000
REMARK INTER + INTRA:         -12.408
REMARK INTER:                 -11.876
REMARK INTRA:                  -0.532
REMARK UNBOUND:                -0.532
REMARK  Name = 
REMARK  4 active torsions:
REMARK  status: ('A' for Active; 'I' for Inactive)
REMARK    1  A    between atoms: C_2  and  C_4
REMARK    2  A    between atoms: N_8  and  C_9
REMARK    3  A    between atoms: C_9  and  C_10
REMARK    4  A    between atoms: C_14  and  C_15
REMARK                            x       y       z     vdW  Elec       q    Type
REMARK                         _______ _______ _______ _____ _____    ______ ____
ROOT
ATOM      1  C   UNL     1      43.935   4.935  11.478  0.00  0.00    +0.000 C 
ATOM      2  C   UNL     1      42.786   4.977  12.476  0.00  0.00    +0.000 C 
ATOM      3  C   UNL     1      42.858   5.997  11.390  0.00  0.00    +0.000 C 
ENDROOT
BRANCH   1   8
ATOM      4  C   UNL     1      46.466   2.721   7.495  0.00  0.00    +0.000 A 
ATOM      5  C   UNL     1      46.044   4.040   7.622  0.00  0.00    +0.000 A 
ATOM      6  C   UNL     1      45.222   4.396   8.698  0.00  0.00    +0.000 A 
ATOM      7  C   UNL     1      44.850   3.435   9.622  0.00  0.00    +0.000 A 
ATOM      8  N   UNL     1      43.964   3.692  10.677  0.00  0.00    +0.000 N 
ATOM      9  N   UNL     1      45.238   2.143   9.499  0.00  0.00    +0.000 NA
ATOM     10  C   UNL     1      46.026   1.809   8.438  0.00  0.00    +0.000 A 
ATOM     11  H   UNL     1      43.946   2.831  11.219  0.00  0.00    +0.000 HD
BRANCH   4  13
ATOM     12  N   UNL     1      47.173   2.935   5.185  0.00  0.00    +0.000 N 
ATOM     13  C   UNL     1      47.320   2.273   6.374  0.00  0.00    +0.000 C 
ATOM     14  O   UNL     1      48.133   1.370   6.507  0.00  0.00    +0.000 OA
ATOM     15  H   UNL     1      47.810   2.682   4.441  0.00  0.00    +0.000 HD
ATOM     16  H   UNL     1      46.703   3.827   5.112  0.00  0.00    +0.000 HD
ENDBRANCH   4  13
ENDBRANCH   1   8
BRANCH   1  17
ATOM     17  C   UNL     1      45.327   5.383  11.904  0.00  0.00    +0.000 A 
ATOM     18  C   UNL     1      46.038   6.367  11.202  0.00  0.00    +0.000 A 
ATOM     19  C   UNL     1      47.223   6.898  11.705  0.00  0.00    +0.000 A 
ATOM     20  C   UNL     1      47.712   6.462  12.934  0.00  0.00    +0.000 A 
ATOM     21  C   UNL     1      47.044   5.473  13.674  0.00  0.00    +0.000 A 
ATOM     22  C   UNL     1      45.880   4.918  13.113  0.00  0.00    +0.000 A 
BRANCH  21  23
ATOM     23  C   UNL     1      47.466   5.126  15.043  0.00  0.00    +0.000 A 
ATOM     24  C   UNL     1      48.417   5.859  15.761  0.00  0.00    +0.000 A 
ATOM     25  N   UNL     1      48.891   5.532  16.992  0.00  0.00    +0.000 NA
ATOM     26  C   UNL     1      48.383   4.410  17.549  0.00  0.00    +0.000 A 
ATOM     27  C   UNL     1      47.433   3.619  16.935  0.00  0.00    +0.000 A 
ATOM     28  F   UNL     1      46.970   2.514  17.531  0.00  0.00    +0.000 F 
ATOM     29  C   UNL     1      46.976   3.973  15.676  0.00  0.00    +0.000 A 
ENDBRANCH  21  23
ENDBRANCH   1  17
TORSDOF 4
ENDMDL
MODEL 2
REMARK VINA RESULT:    -9.467      2.633      3.594
REMARK INTER + INTRA:         -12.214
REMARK INTER:                 -11.049
REMARK INTRA:                  -1.164
REMARK UNBOUND:                -0.532
REMARK  Name = 
REMARK  4 active torsions:
REMARK  status: ('A' for Active; 'I' for Inactive)
REMARK    1  A    between atoms: C_2  and  C_4
REMARK    2  A    between atoms: N_8  and  C_9
REMARK    3  A    between atoms: C_9  and  C_10
REMARK    4  A    between atoms: C_14  and  C_15
REMARK                            x       y       z     vdW  Elec       q    Type
REMARK                         _______ _______ _______ _____ _____    ______ ____
ROOT
ATOM      1  C   UNL     1      43.804   4.920  11.405  0.00  0.00    +0.000 C 
ATOM      2  C   UNL     1      42.435   5.230  11.994  0.00  0.00    +0.000 C 
ATOM      3  C   UNL     1      43.093   6.222  11.096  0.00  0.00    +0.000 C 
ENDROOT
BRANCH   1   8
ATOM      4  C   UNL     1      46.518   2.709   7.543  0.00  0.00    +0.000 A 
ATOM      5  C   UNL     1      46.204   4.052   7.717  0.00  0.00    +0.000 A 
ATOM      6  C   UNL     1      45.312   4.422   8.731  0.00  0.00    +0.000 A 
ATOM      7  C   UNL     1      44.765   3.449   9.549  0.00  0.00    +0.000 A 
ATOM      8  N   UNL     1      43.803   3.728  10.530  0.00  0.00    +0.000 N 
ATOM      9  N   UNL     1      45.048   2.135   9.378  0.00  0.00    +0.000 NA
ATOM     10  C   UNL     1      45.906   1.790   8.377  0.00  0.00    +0.000 A 
ATOM     11  H   UNL     1      43.654   2.843  11.009  0.00  0.00    +0.000 HD
BRANCH   4  13
ATOM     12  N   UNL     1      47.354   2.884   5.274  0.00  0.00    +0.000 N 
ATOM     13  C   UNL     1      47.437   2.247   6.481  0.00  0.00    +0.000 C 
ATOM     14  O   UNL     1      48.249   1.354   6.678  0.00  0.00    +0.000 OA
ATOM     15  H   UNL     1      48.033   2.623   4.572  0.00  0.00    +0.000 HD
ATOM     16  H   UNL     1      46.881   3.770   5.156  0.00  0.00    +0.000 HD
ENDBRANCH   4  13
ENDBRANCH   1   8
BRANCH   1  17
ATOM     17  C   UNL     1      45.043   4.991  12.287  0.00  0.00    +0.000 A 
ATOM     18  C   UNL     1      45.490   3.889  13.030  0.00  0.00    +0.000 A 
ATOM     19  C   UNL     1      46.720   3.910  13.683  0.00  0.00    +0.000 A 
ATOM     20  C   UNL     1      47.535   5.035  13.591  0.00  0.00    +0.000 A 
ATOM     21  C   UNL     1      47.132   6.169  12.867  0.00  0.00    +0.000 A 
ATOM     22  C   UNL     1      45.862   6.137  12.265  0.00  0.00    +0.000 A 
BRANCH  21  23
ATOM     23  C   UNL     1      48.055   7.294  12.631  0.00  0.00    +0.000 A 
ATOM     24  C   UNL     1      49.355   7.340  13.148  0.00  0.00    +0.000 A 
ATOM     25  N   UNL     1      50.210   8.389  13.020  0.00  0.00    +0.000 NA
ATOM     26  C   UNL     1      49.749   9.455  12.329  0.00  0.00    +0.000 A 
ATOM     27  C   UNL     1      48.490   9.511  11.768  0.00  0.00    +0.000 A 
ATOM     28  F   UNL     1      48.083  10.597  11.098  0.00  0.00    +0.000 F 
ATOM     29  C   UNL     1      47.636   8.431  11.922  0.00  0.00    +0.000 A 
ENDBRANCH  21  23
ENDBRANCH   1  17
TORSDOF 4
ENDMDL
MODEL 3
REMARK VINA RESULT:    -7.594      4.103      8.415
REMARK INTER + INTRA:          -9.903
REMARK INTER:                  -8.886
REMARK INTRA:                  -1.016
REMARK UNBOUND:                -0.532
REMARK  Name = 
REMARK  4 active torsions:
REMARK  status: ('A' for Active; 'I' for Inactive)
REMARK    1  A    between atoms: C_2  and  C_4
REMARK    2  A    between atoms: N_8  and  C_9
REMARK    3  A    between atoms: C_9  and  C_10
REMARK    4  A    between atoms: C_14  and  C_15
REMARK                            x       y       z     vdW  Elec       q    Type
REMARK                         _______ _______ _______ _____ _____    ______ ____
ROOT
ATOM      1  C   UNL     1      48.923   7.893  12.571  0.00  0.00    +0.000 C 
ATOM      2  C   UNL     1      49.897   8.071  11.414  0.00  0.00    +0.000 C 
ATOM      3  C   UNL     1      49.548   9.240  12.272  0.00  0.00    +0.000 C 
ENDROOT
BRANCH   1   8
ATOM      4  C   UNL     1      48.438   6.796  17.643  0.00  0.00    +0.000 A 
ATOM      5  C   UNL     1      48.545   8.043  17.037  0.00  0.00    +0.000 A 
ATOM      6  C   UNL     1      48.845   8.118  15.672  0.00  0.00    +0.000 A 
ATOM      7  C   UNL     1      49.023   6.953  14.945  0.00  0.00    +0.000 A 
ATOM      8  N   UNL     1      49.407   6.945  13.597  0.00  0.00    +0.000 N 
ATOM      9  N   UNL     1      48.941   5.733  15.527  0.00  0.00    +0.000 NA
ATOM     10  C   UNL     1      48.662   5.677  16.861  0.00  0.00    +0.000 A 
ATOM     11  H   UNL     1      49.381   5.965  13.324  0.00  0.00    +0.000 HD
BRANCH   4  13
ATOM     12  N   UNL     1      47.303   5.623  19.436  0.00  0.00    +0.000 N 
ATOM     13  C   UNL     1      48.142   6.644  19.083  0.00  0.00    +0.000 C 
ATOM     14  O   UNL     1      48.639   7.381  19.923  0.00  0.00    +0.000 OA
ATOM     15  H   UNL     1      47.161   5.470  20.426  0.00  0.00    +0.000 HD
ATOM     16  H   UNL     1      47.079   4.861  18.811  0.00  0.00    +0.000 HD
ENDBRANCH   4  13
ENDBRANCH   1   8
BRANCH   1  17
ATOM     17  C   UNL     1      47.434   7.735  12.290  0.00  0.00    +0.000 A 
ATOM     18  C   UNL     1      46.538   8.807  12.410  0.00  0.00    +0.000 A 
ATOM     19  C   UNL     1      45.220   8.698  11.975  0.00  0.00    +0.000 A 
ATOM     20  C   UNL     1      44.776   7.512  11.395  0.00  0.00    +0.000 A 
ATOM     21  C   UNL     1      45.630   6.405  11.258  0.00  0.00    +0.000 A 
ATOM     22  C   UNL     1      46.939   6.529  11.757  0.00  0.00    +0.000 A 
BRANCH  21  23
ATOM     23  C   UNL     1      45.217   5.210  10.502  0.00  0.00    +0.000 A 
ATOM     24  C   UNL     1      44.498   4.152  11.072  0.00  0.00    +0.000 A 
ATOM     25  N   UNL     1      44.164   3.000  10.433  0.00  0.00    +0.000 NA
ATOM     26  C   UNL     1      44.562   2.893   9.146  0.00  0.00    +0.000 A 
ATOM     27  C   UNL     1      45.265   3.878   8.483  0.00  0.00    +0.000 A 
ATOM     28  F   UNL     1      45.640   3.716   7.208  0.00  0.00    +0.000 F 
ATOM     29  C   UNL     1      45.599   5.039   9.162  0.00  0.00    +0.000 A 
ENDBRANCH  21  23
ENDBRANCH   1  17
TORSDOF 4
ENDMDL
MODEL 4
REMARK VINA RESULT:    -7.240      2.817      4.567
REMARK INTER + INTRA:          -9.465
REMARK INTER:                  -8.945
REMARK INTRA:                  -0.520
REMARK UNBOUND:                -0.532
REMARK  Name = 
REMARK  4 active torsions:
REMARK  status: ('A' for Active; 'I' for Inactive)
REMARK    1  A    between atoms: C_2  and  C_4
REMARK    2  A    between atoms: N_8  and  C_9
REMARK    3  A    between atoms: C_9  and  C_10
REMARK    4  A    between atoms: C_14  and  C_15
REMARK                            x       y       z     vdW  Elec       q    Type
REMARK                         _______ _______ _______ _____ _____    ______ ____
ROOT
ATOM      1  C   UNL     1      47.381   8.455  13.190  0.00  0.00    +0.000 C 
ATOM      2  C   UNL     1      47.523   9.765  12.426  0.00  0.00    +0.000 C 
ATOM      3  C   UNL     1      48.269   8.558  11.967  0.00  0.00    +0.000 C 
ENDROOT
BRANCH   1   8
ATOM      4  C   UNL     1      44.582   4.379  11.543  0.00  0.00    +0.000 A 
ATOM      5  C   UNL     1      45.591   5.060  10.870  0.00  0.00    +0.000 A 
ATOM      6  C   UNL     1      46.101   6.243  11.417  0.00  0.00    +0.000 A 
ATOM      7  C   UNL     1      45.601   6.712  12.620  0.00  0.00    +0.000 A 
ATOM      8  N   UNL     1      46.000   7.930  13.190  0.00  0.00    +0.000 N 
ATOM      9  N   UNL     1      44.605   6.069  13.275  0.00  0.00    +0.000 NA
ATOM     10  C   UNL     1      44.109   4.926  12.722  0.00  0.00    +0.000 A 
ATOM     11  H   UNL     1      45.526   7.963  14.090  0.00  0.00    +0.000 HD
BRANCH   4  13
ATOM     12  N   UNL     1      44.691   2.477  10.042  0.00  0.00    +0.000 N 
ATOM     13  C   UNL     1      43.985   3.134  11.013  0.00  0.00    +0.000 C 
ATOM     14  O   UNL     1      42.924   2.700  11.436  0.00  0.00    +0.000 OA
ATOM     15  H   UNL     1      44.323   1.587   9.734  0.00  0.00    +0.000 HD
ATOM     16  H   UNL     1      45.665   2.668   9.852  0.00  0.00    +0.000 HD
ENDBRANCH   4  13
ENDBRANCH   1   8
BRANCH   1  17
ATOM     17  C   UNL     1      48.066   8.287  14.539  0.00  0.00    +0.000 A 
ATOM     18  C   UNL     1      48.230   9.360  15.428  0.00  0.00    +0.000 A 
ATOM     19  C   UNL     1      48.688   9.158  16.727  0.00  0.00    +0.000 A 
ATOM     20  C   UNL     1      48.978   7.868  17.168  0.00  0.00    +0.000 A 
ATOM     21  C   UNL     1      48.839   6.760  16.317  0.00  0.00    +0.000 A 
ATOM     22  C   UNL     1      48.427   7.004  14.995  0.00  0.00    +0.000 A 
BRANCH  21  23
ATOM     23  C   UNL     1      48.986   5.384  16.823  0.00  0.00    +0.000 A 
ATOM     24  C   UNL     1      50.228   4.775  17.039  0.00  0.00    +0.000 A 
ATOM     25  N   UNL     1      50.410   3.487  17.431  0.00  0.00    +0.000 NA
ATOM     26  C   UNL     1      49.288   2.758  17.628  0.00  0.00    +0.000 A 
ATOM     27  C   UNL     1      48.015   3.260  17.454  0.00  0.00    +0.000 A 
ATOM     28  F   UNL     1      46.939   2.490  17.657  0.00  0.00    +0.000 F 
ATOM     29  C   UNL     1      47.860   4.575  17.046  0.00  0.00    +0.000 A 
ENDBRANCH  21  23
ENDBRANCH   1  17
TORSDOF 4
ENDMDL
MODEL 5
REMARK VINA RESULT:    -6.740      3.952      8.392
REMARK INTER + INTRA:          -8.848
REMARK INTER:                  -8.883
REMARK INTRA:                   0.035
REMARK UNBOUND:                -0.532
REMARK  Name = 
REMARK  4 active torsions:
REMARK  status: ('A' for Active; 'I' for Inactive)
REMARK    1  A    between atoms: C_2  and  C_4
REMARK    2  A    between atoms: N_8  and  C_9
REMARK    3  A    between atoms: C_9  and  C_10
REMARK    4  A    between atoms: C_14  and  C_15
REMARK                            x       y       z     vdW  Elec       q    Type
REMARK                         _______ _______ _______ _____ _____    ______ ____
ROOT
ATOM      1  C   UNL     1      46.520   5.778  12.770  0.00  0.00    +0.000 C 
ATOM      2  C   UNL     1      47.460   6.896  12.341  0.00  0.00    +0.000 C 
ATOM      3  C   UNL     1      46.318   7.201  13.251  0.00  0.00    +0.000 C 
ENDROOT
BRANCH   1   8
ATOM      4  C   UNL     1      48.294   4.725  17.557  0.00  0.00    +0.000 A 
ATOM      5  C   UNL     1      48.389   5.916  16.845  0.00  0.00    +0.000 A 
ATOM      6  C   UNL     1      48.002   5.943  15.500  0.00  0.00    +0.000 A 
ATOM      7  C   UNL     1      47.524   4.789  14.902  0.00  0.00    +0.000 A 
ATOM      8  N   UNL     1      47.197   4.714  13.541  0.00  0.00    +0.000 N 
ATOM      9  N   UNL     1      47.446   3.618  15.579  0.00  0.00    +0.000 NA
ATOM     10  C   UNL     1      47.840   3.605  16.883  0.00  0.00    +0.000 A 
ATOM     11  H   UNL     1      46.810   3.780  13.417  0.00  0.00    +0.000 HD
BRANCH   4  13
ATOM     12  N   UNL     1      49.805   3.858  19.244  0.00  0.00    +0.000 N 
ATOM     13  C   UNL     1      48.702   4.622  18.974  0.00  0.00    +0.000 C 
ATOM     14  O   UNL     1      48.098   5.207  19.861  0.00  0.00    +0.000 OA
ATOM     15  H   UNL     1      50.130   3.849  20.201  0.00  0.00    +0.000 HD
ATOM     16  H   UNL     1      50.458   3.572  18.528  0.00  0.00    +0.000 HD
ENDBRANCH   4  13
ENDBRANCH   1   8
BRANCH   1  17
ATOM     17  C   UNL     1      45.503   5.222  11.783  0.00  0.00    +0.000 A 
ATOM     18  C   UNL     1      44.199   5.734  11.692  0.00  0.00    +0.000 A 
ATOM     19  C   UNL     1      43.342   5.346  10.666  0.00  0.00    +0.000 A 
ATOM     20  C   UNL     1      43.781   4.446   9.697  0.00  0.00    +0.000 A 
ATOM     21  C   UNL     1      45.074   3.898   9.745  0.00  0.00    +0.000 A 
ATOM     22  C   UNL     1      45.896   4.268  10.824  0.00  0.00    +0.000 A 
BRANCH  21  23
ATOM     23  C   UNL     1      45.597   3.077   8.639  0.00  0.00    +0.000 A 
ATOM     24  C   UNL     1      45.822   1.700   8.748  0.00  0.00    +0.000 A 
ATOM     25  N   UNL     1      46.375   0.919   7.782  0.00  0.00    +0.000 NA
ATOM     26  C   UNL     1      46.718   1.544   6.633  0.00  0.00    +0.000 A 
ATOM     27  C   UNL     1      46.531   2.894   6.416  0.00  0.00    +0.000 A 
ATOM     28  F   UNL     1      46.897   3.461   5.260  0.00  0.00    +0.000 F 
ATOM     29  C   UNL     1      45.974   3.666   7.422  0.00  0.00    +0.000 A 
ENDBRANCH  21  23
ENDBRANCH   1  17
TORSDOF 4
ENDMDL
MODEL 6
REMARK VINA RESULT:    -6.671      3.748      7.780
REMARK INTER + INTRA:          -8.763
REMARK INTER:                  -8.856
REMARK INTRA:                   0.093
REMARK UNBOUND:                -0.532
REMARK  Name = 
REMARK  4 active torsions:
REMARK  status: ('A' for Active; 'I' for Inactive)
REMARK    1  A    between atoms: C_2  and  C_4
REMARK    2  A    between atoms: N_8  and  C_9
REMARK    3  A    between atoms: C_9  and  C_10
REMARK    4  A    between atoms: C_14  and  C_15
REMARK                            x       y       z     vdW  Elec       q    Type
REMARK                         _______ _______ _______ _____ _____    ______ ____
ROOT
ATOM      1  C   UNL     1      44.534   3.612  12.421  0.00  0.00    +0.000 C 
ATOM      2  C   UNL     1      43.386   4.236  13.202  0.00  0.00    +0.000 C 
ATOM      3  C   UNL     1      43.195   2.913  12.540  0.00  0.00    +0.000 C 
ENDROOT
BRANCH   1   8
ATOM      4  C   UNL     1      48.155   6.002  15.310  0.00  0.00    +0.000 A 
ATOM      5  C   UNL     1      47.642   6.389  14.077  0.00  0.00    +0.000 A 
ATOM      6  C   UNL     1      46.800   5.515  13.380  0.00  0.00    +0.000 A 
ATOM      7  C   UNL     1      46.483   4.285  13.930  0.00  0.00    +0.000 A 
ATOM      8  N   UNL     1      45.717   3.322  13.259  0.00  0.00    +0.000 N 
ATOM      9  N   UNL     1      46.992   3.888  15.122  0.00  0.00    +0.000 NA
ATOM     10  C   UNL     1      47.822   4.744  15.782  0.00  0.00    +0.000 A 
ATOM     11  H   UNL     1      45.592   2.571  13.934  0.00  0.00    +0.000 HD
BRANCH   4  13
ATOM     12  N   UNL     1      48.529   8.016  16.608  0.00  0.00    +0.000 N 
ATOM     13  C   UNL     1      49.064   6.867  16.091  0.00  0.00    +0.000 C 
ATOM     14  O   UNL     1      50.232   6.562  16.286  0.00  0.00    +0.000 OA
ATOM     15  H   UNL     1      49.128   8.569  17.206  0.00  0.00    +0.000 HD
ATOM     16  H   UNL     1      47.533   8.171  16.676  0.00  0.00    +0.000 HD
ENDBRANCH   4  13
ENDBRANCH   1   8
BRANCH   1  17
ATOM     17  C   UNL     1      44.913   4.169  11.055  0.00  0.00    +0.000 A 
ATOM     18  C   UNL     1      45.103   5.542  10.840  0.00  0.00    +0.000 A 
ATOM     19  C   UNL     1      45.626   6.019   9.641  0.00  0.00    +0.000 A 
ATOM     20  C   UNL     1      45.986   5.124   8.636  0.00  0.00    +0.000 A 
ATOM     21  C   UNL     1      45.809   3.739   8.797  0.00  0.00    +0.000 A 
ATOM     22  C   UNL     1      45.227   3.294   9.997  0.00  0.00    +0.000 A 
BRANCH  21  23
ATOM     23  C   UNL     1      46.336   2.782   7.808  0.00  0.00    +0.000 A 
ATOM     24  C   UNL     1      46.391   1.401   8.033  0.00  0.00    +0.000 A 
ATOM     25  N   UNL     1      46.937   0.492   7.184  0.00  0.00    +0.000 NA
ATOM     26  C   UNL     1      47.454   0.982   6.035  0.00  0.00    +0.000 A 
ATOM     27  C   UNL     1      47.444   2.323   5.708  0.00  0.00    +0.000 A 
ATOM     28  F   UNL     1      47.977   2.754   4.558  0.00  0.00    +0.000 F 
ATOM     29  C   UNL     1      46.888   3.228   6.598  0.00  0.00    +0.000 A 
ENDBRANCH  21  23
ENDBRANCH   1  17
TORSDOF 4
ENDMDL
