MODEL 1
REMARK VINA RESULT:    -7.564      0.000      0.000
REMARK INTER + INTRA:         -12.414
REMARK INTER:                 -11.101
REMARK INTRA:                  -1.313
REMARK UNBOUND:                -1.313
REMARK  Name = 
REMARK  9 active torsions:
REMARK  status: ('A' for Active; 'I' for Inactive)
REMARK    1  A    between atoms: C_1  and  C_2
REMARK    2  A    between atoms: C_2  and  C_24
REMARK    3  A    between atoms: C_3  and  C_4
REMARK    4  A    between atoms: C_7  and  C_8
REMARK    5  A    between atoms: C_8  and  N_9
REMARK    6  A    between atoms: C_10  and  C_12
REMARK    7  A    between atoms: N_26  and  C_27
REMARK    8  A    between atoms: C_27  and  C_28
REMARK    9  A    between atoms: C_28  and  N_29
REMARK                            x       y       z     vdW  Elec       q    Type
REMARK                         _______ _______ _______ _____ _____    ______ ____
ROOT
ATOM      1  C   UNL     1      46.932   4.544  13.851  0.00  0.00    +0.000 A 
ATOM      2  C   UNL     1      47.576   5.786  13.794  0.00  0.00    +0.000 A 
ATOM      3  C   UNL     1      48.197   6.318  14.929  0.00  0.00    +0.000 A 
ATOM      4  C   UNL     1      48.197   5.613  16.139  0.00  0.00    +0.000 A 
ATOM      5  C   UNL     1      47.532   4.379  16.197  0.00  0.00    +0.000 A 
ATOM      6  C   UNL     1      46.911   3.845  15.060  0.00  0.00    +0.000 A 
ENDROOT
BRANCH   1   9
ATOM      7  C   UNL     1      43.959   4.878  13.226  0.00  0.00    +0.000 C 
ATOM      8  C   UNL     1      44.957   4.140  12.369  0.00  0.00    +0.000 C 
ATOM      9  C   UNL     1      46.270   4.015  12.650  0.00  0.00    +0.000 C 
BRANCH   8  10
ATOM     10  C   UNL     1      44.321   3.474  11.177  0.00  0.00    +0.000 C 
ATOM     11  O   UNL     1      43.122   3.633  10.950  0.00  0.00    +0.000 OA
ATOM     12  N   UNL     1      45.125   2.733  10.346  0.00  0.00    +0.000 N 
ATOM     13  H   UNL     1      46.113   2.615  10.516  0.00  0.00    +0.000 HD
BRANCH  12  14
ATOM     14  C   UNL     1      44.554   2.081   9.180  0.00  0.00    +0.000 C 
BRANCH  14  15
ATOM     15  C   UNL     1      45.596   1.518   8.193  0.00  0.00    +0.000 C 
BRANCH  15  16
ATOM     16  N   UNL     1      46.797   2.359   8.004  0.00  0.00    +0.000 NA
ATOM     17  C   UNL     1      47.732   1.803   7.016  0.00  0.00    +0.000 C 
ATOM     18  C   UNL     1      47.212   2.266   5.665  0.00  0.00    +0.000 C 
ATOM     19  O   UNL     1      46.407   3.422   5.924  0.00  0.00    +0.000 OA
ATOM     20  C   UNL     1      46.417   3.613   7.339  0.00  0.00    +0.000 C 
ENDBRANCH  15  16
ENDBRANCH  14  15
ENDBRANCH  12  14
ENDBRANCH   8  10
ENDBRANCH   1   9
BRANCH   4  21
ATOM     21  C   UNL     1      48.866   6.180  17.367  0.00  0.00    +0.000 C 
BRANCH  21  22
ATOM     22  N   UNL     1      49.909   5.309  17.845  0.00  0.00    +0.000 N 
ATOM     23  C   UNL     1      51.179   5.365  17.325  0.00  0.00    +0.000 C 
ATOM     24  O   UNL     1      51.494   6.184  16.469  0.00  0.00    +0.000 OA
ATOM     25  H   UNL     1      49.620   4.489  18.370  0.00  0.00    +0.000 HD
BRANCH  23  26
ATOM     26  C   UNL     1      52.161   4.430  17.892  0.00  0.00    +0.000 A 
ATOM     27  C   UNL     1      53.273   4.922  18.559  0.00  0.00    +0.000 A 
ATOM     28  S   UNL     1      54.282   3.707  19.201  0.00  0.00    +0.000 S 
ATOM     29  C   UNL     1      53.297   2.476  18.561  0.00  0.00    +0.000 A 
ATOM     30  N   UNL     1      53.616   1.165  18.733  0.00  0.00    +0.000 NA
ATOM     31  C   UNL     1      52.802   0.338  18.167  0.00  0.00    +0.000 A 
ATOM     32  N   UNL     1      51.691   0.707  17.451  0.00  0.00    +0.000 N 
ATOM     33  C   UNL     1      51.311   2.014  17.280  0.00  0.00    +0.000 A 
ATOM     34  O   UNL     1      50.286   2.305  16.672  0.00  0.00    +0.000 OA
ATOM     35  C   UNL     1      52.203   2.987  17.884  0.00  0.00    +0.000 A 
ATOM     36  H   UNL     1      51.087   0.009  17.038  0.00  0.00    +0.000 HD
ENDBRANCH  23  26
ENDBRANCH  21  22
ENDBRANCH   4  21
TORSDOF 8
ENDMDL
MODEL 2
REMARK VINA RESULT:    -6.898      3.836     10.041
REMARK INTER + INTRA:         -11.438
REMARK INTER:                 -10.775
REMARK INTRA:                  -0.663
REMARK UNBOUND:                -1.313
REMARK  Name = 
REMARK  9 active torsions:
REMARK  status: ('A' for Active; 'I' for Inactive)
REMARK    1  A    between atoms: C_1  and  C_2
REMARK    2  A    between atoms: C_2  and  C_24
REMARK    3  A    between atoms: C_3  and  C_4
REMARK    4  A    between atoms: C_7  and  C_8
REMARK    5  A    between atoms: C_8  and  N_9
REMARK    6  A    between atoms: C_10  and  C_12
REMARK    7  A    between atoms: N_26  and  C_27
REMARK    8  A    between atoms: C_27  and  C_28
REMARK    9  A    between atoms: C_28  and  N_29
REMARK                            x       y       z     vdW  Elec       q    Type
REMARK                         _______ _______ _______ _____ _____    ______ ____
ROOT
ATOM      1  C   UNL     1      51.184   2.308  17.424  0.00  0.00    +0.000 A 
ATOM      2  C   UNL     1      49.788   2.258  17.350  0.00  0.00    +0.000 A 
ATOM      3  C   UNL     1      49.036   3.435  17.269  0.00  0.00    +0.000 A 
ATOM      4  C   UNL     1      49.669   4.685  17.248  0.00  0.00    +0.000 A 
ATOM      5  C   UNL     1      51.067   4.732  17.344  0.00  0.00    +0.000 A 
ATOM      6  C   UNL     1      51.821   3.552  17.424  0.00  0.00    +0.000 A 
ENDROOT
BRANCH   1   9
ATOM      7  C   UNL     1      53.878   2.044  18.843  0.00  0.00    +0.000 C 
ATOM      8  C   UNL     1      53.148   0.930  18.135  0.00  0.00    +0.000 C 
ATOM      9  C   UNL     1      51.951   1.058  17.528  0.00  0.00    +0.000 C 
BRANCH   8  10
ATOM     10  C   UNL     1      53.934  -0.355  18.105  0.00  0.00    +0.000 C 
ATOM     11  O   UNL     1      54.954  -0.436  17.422  0.00  0.00    +0.000 OA
ATOM     12  N   UNL     1      53.500  -1.395  18.890  0.00  0.00    +0.000 N 
ATOM     13  H   UNL     1      52.674  -1.328  19.467  0.00  0.00    +0.000 HD
BRANCH  12  14
ATOM     14  C   UNL     1      54.234  -2.649  18.898  0.00  0.00    +0.000 C 
BRANCH  14  15
ATOM     15  C   UNL     1      53.386  -3.878  19.280  0.00  0.00    +0.000 C 
BRANCH  15  16
ATOM     16  N   UNL     1      53.874  -5.166  18.742  0.00  0.00    +0.000 NA
ATOM     17  C   UNL     1      52.786  -6.117  18.470  0.00  0.00    +0.000 C 
ATOM     18  C   UNL     1      52.270  -5.753  17.089  0.00  0.00    +0.000 C 
ATOM     19  O   UNL     1      53.333  -5.046  16.440  0.00  0.00    +0.000 OA
ATOM     20  C   UNL     1      54.400  -4.964  17.386  0.00  0.00    +0.000 C 
ENDBRANCH  15  16
ENDBRANCH  14  15
ENDBRANCH  12  14
ENDBRANCH   8  10
ENDBRANCH   1   9
BRANCH   4  21
ATOM     21  C   UNL     1      48.864   5.958  17.160  0.00  0.00    +0.000 C 
BRANCH  21  22
ATOM     22  N   UNL     1      47.951   5.926  16.045  0.00  0.00    +0.000 N 
ATOM     23  C   UNL     1      48.343   6.322  14.791  0.00  0.00    +0.000 C 
ATOM     24  O   UNL     1      49.493   6.677  14.551  0.00  0.00    +0.000 OA
ATOM     25  H   UNL     1      46.962   5.863  16.262  0.00  0.00    +0.000 HD
BRANCH  23  26
ATOM     26  C   UNL     1      47.328   6.245  13.731  0.00  0.00    +0.000 A 
ATOM     27  C   UNL     1      46.915   7.403  13.089  0.00  0.00    +0.000 A 
ATOM     28  S   UNL     1      45.775   7.132  11.850  0.00  0.00    +0.000 S 
ATOM     29  C   UNL     1      45.751   5.460  12.166  0.00  0.00    +0.000 A 
ATOM     30  N   UNL     1      44.944   4.626  11.455  0.00  0.00    +0.000 NA
ATOM     31  C   UNL     1      44.999   3.389  11.820  0.00  0.00    +0.000 A 
ATOM     32  N   UNL     1      45.797   2.910  12.829  0.00  0.00    +0.000 N 
ATOM     33  C   UNL     1      46.649   3.707  13.550  0.00  0.00    +0.000 A 
ATOM     34  O   UNL     1      47.383   3.237  14.414  0.00  0.00    +0.000 OA
ATOM     35  C   UNL     1      46.615   5.113  13.189  0.00  0.00    +0.000 A 
ATOM     36  H   UNL     1      45.800   1.927  13.062  0.00  0.00    +0.000 HD
ENDBRANCH  23  26
ENDBRANCH  21  22
ENDBRANCH   4  21
TORSDOF 8
ENDMDL
MODEL 3
REMARK VINA RESULT:    -6.835      3.005      3.753
REMARK INTER + INTRA:         -11.346
REMARK INTER:                 -10.110
REMARK INTRA:                  -1.236
REMARK UNBOUND:                -1.313
REMARK  Name = 
REMARK  9 active torsions:
REMARK  status: ('A' for Active; 'I' for Inactive)
REMARK    1  A    between atoms: C_1  and  C_2
REMARK    2  A    between atoms: C_2  and  C_24
REMARK    3  A    between atoms: C_3  and  C_4
REMARK    4  A    between atoms: C_7  and  C_8
REMARK    5  A    between atoms: C_8  and  N_9
REMARK    6  A    between atoms: C_10  and  C_12
REMARK    7  A    between atoms: N_26  and  C_27
REMARK    8  A    between atoms: C_27  and  C_28
REMARK    9  A    between atoms: C_28  and  N_29
REMARK                            x       y       z     vdW  Elec       q    Type
REMARK                         _______ _______ _______ _____ _____    ______ ____
ROOT
ATOM      1  C   UNL     1      46.508   6.720  12.081  0.00  0.00    +0.000 A 
ATOM      2  C   UNL     1      47.598   6.292  12.847  0.00  0.00    +0.000 A 
ATOM      3  C   UNL     1      48.144   7.119  13.835  0.00  0.00    +0.000 A 
ATOM      4  C   UNL     1      47.601   8.386  14.084  0.00  0.00    +0.000 A 
ATOM      5  C   UNL     1      46.523   8.821  13.298  0.00  0.00    +0.000 A 
ATOM      6  C   UNL     1      45.975   7.991  12.310  0.00  0.00    +0.000 A 
ENDROOT
BRANCH   1   9
ATOM      7  C   UNL     1      44.510   4.464  12.587  0.00  0.00    +0.000 C 
ATOM      8  C   UNL     1      45.096   4.830  11.247  0.00  0.00    +0.000 C 
ATOM      9  C   UNL     1      45.965   5.840  11.036  0.00  0.00    +0.000 C 
BRANCH   8  10
ATOM     10  C   UNL     1      44.668   3.893  10.148  0.00  0.00    +0.000 C 
ATOM     11  O   UNL     1      43.840   4.258   9.316  0.00  0.00    +0.000 OA
ATOM     12  N   UNL     1      45.261   2.655  10.089  0.00  0.00    +0.000 N 
ATOM     13  H   UNL     1      45.956   2.357  10.758  0.00  0.00    +0.000 HD
BRANCH  12  14
ATOM     14  C   UNL     1      44.884   1.723   9.040  0.00  0.00    +0.000 C 
BRANCH  14  15
ATOM     15  C   UNL     1      46.025   1.369   8.066  0.00  0.00    +0.000 C 
BRANCH  15  16
ATOM     16  N   UNL     1      46.946   2.481   7.750  0.00  0.00    +0.000 NA
ATOM     17  C   UNL     1      48.087   2.059   6.924  0.00  0.00    +0.000 C 
ATOM     18  C   UNL     1      47.580   2.092   5.492  0.00  0.00    +0.000 C 
ATOM     19  O   UNL     1      46.458   2.981   5.488  0.00  0.00    +0.000 OA
ATOM     20  C   UNL     1      46.285   3.421   6.835  0.00  0.00    +0.000 C 
ENDBRANCH  15  16
ENDBRANCH  14  15
ENDBRANCH  12  14
ENDBRANCH   8  10
ENDBRANCH   1   9
BRANCH   4  21
ATOM     21  C   UNL     1      48.183   9.283  15.148  0.00  0.00    +0.000 C 
BRANCH  21  22
ATOM     22  N   UNL     1      47.993   8.726  16.464  0.00  0.00    +0.000 N 
ATOM     23  C   UNL     1      49.057   8.282  17.210  0.00  0.00    +0.000 C 
ATOM     24  O   UNL     1      50.214   8.380  16.814  0.00  0.00    +0.000 OA
ATOM     25  H   UNL     1      47.054   8.427  16.706  0.00  0.00    +0.000 HD
BRANCH  23  26
ATOM     26  C   UNL     1      48.743   7.736  18.537  0.00  0.00    +0.000 A 
ATOM     27  C   UNL     1      48.366   8.592  19.562  0.00  0.00    +0.000 A 
ATOM     28  S   UNL     1      47.984   7.793  21.019  0.00  0.00    +0.000 S 
ATOM     29  C   UNL     1      48.366   6.276  20.349  0.00  0.00    +0.000 A 
ATOM     30  N   UNL     1      48.275   5.141  21.094  0.00  0.00    +0.000 NA
ATOM     31  C   UNL     1      48.626   4.066  20.472  0.00  0.00    +0.000 A 
ATOM     32  N   UNL     1      49.053   4.023  19.169  0.00  0.00    +0.000 N 
ATOM     33  C   UNL     1      49.129   5.136  18.371  0.00  0.00    +0.000 A 
ATOM     34  O   UNL     1      49.471   5.055  17.195  0.00  0.00    +0.000 OA
ATOM     35  C   UNL     1      48.760   6.378  19.026  0.00  0.00    +0.000 A 
ATOM     36  H   UNL     1      49.306   3.146  18.736  0.00  0.00    +0.000 HD
ENDBRANCH  23  26
ENDBRANCH  21  22
ENDBRANCH   4  21
TORSDOF 8
ENDMDL
MODEL 4
REMARK VINA RESULT:    -6.066      1.784      2.235
REMARK INTER + INTRA:         -10.216
REMARK INTER:                  -9.443
REMARK INTRA:                  -0.773
REMARK UNBOUND:                -1.313
REMARK  Name = 
REMARK  9 active torsions:
REMARK  status: ('A' for Active; 'I' for Inactive)
REMARK    1  A    between atoms: C_1  and  C_2
REMARK    2  A    between atoms: C_2  and  C_24
REMARK    3  A    between atoms: C_3  and  C_4
REMARK    4  A    between atoms: C_7  and  C_8
REMARK    5  A    between atoms: C_8  and  N_9
REMARK    6  A    between atoms: C_10  and  C_12
REMARK    7  A    between atoms: N_26  and  C_27
REMARK    8  A    between atoms: C_27  and  C_28
REMARK    9  A    between atoms: C_28  and  N_29
REMARK                            x       y       z     vdW  Elec       q    Type
REMARK                         _______ _______ _______ _____ _____    ______ ____
ROOT
ATOM      1  C   UNL     1      46.915   6.599  12.732  0.00  0.00    +0.000 A 
ATOM      2  C   UNL     1      46.830   7.988  12.879  0.00  0.00    +0.000 A 
ATOM      3  C   UNL     1      47.503   8.637  13.921  0.00  0.00    +0.000 A 
ATOM      4  C   UNL     1      48.283   7.908  14.828  0.00  0.00    +0.000 A 
ATOM      5  C   UNL     1      48.347   6.514  14.690  0.00  0.00    +0.000 A 
ATOM      6  C   UNL     1      47.675   5.864  13.645  0.00  0.00    +0.000 A 
ENDROOT
BRANCH   1   9
ATOM      7  C   UNL     1      44.298   5.062  13.085  0.00  0.00    +0.000 C 
ATOM      8  C   UNL     1      45.038   5.244  11.784  0.00  0.00    +0.000 C 
ATOM      9  C   UNL     1      46.185   5.940  11.640  0.00  0.00    +0.000 C 
BRANCH   8  10
ATOM     10  C   UNL     1      44.402   4.494  10.642  0.00  0.00    +0.000 C 
ATOM     11  O   UNL     1      43.386   4.935  10.107  0.00  0.00    +0.000 OA
ATOM     12  N   UNL     1      45.014   3.346  10.203  0.00  0.00    +0.000 N 
ATOM     13  H   UNL     1      45.858   2.989  10.626  0.00  0.00    +0.000 HD
BRANCH  12  14
ATOM     14  C   UNL     1      44.439   2.597   9.099  0.00  0.00    +0.000 C 
BRANCH  14  15
ATOM     15  C   UNL     1      45.454   1.744   8.314  0.00  0.00    +0.000 C 
BRANCH  15  16
ATOM     16  N   UNL     1      46.758   2.394   8.065  0.00  0.00    +0.000 NA
ATOM     17  C   UNL     1      47.603   1.635   7.131  0.00  0.00    +0.000 C 
ATOM     18  C   UNL     1      47.146   2.053   5.744  0.00  0.00    +0.000 C 
ATOM     19  O   UNL     1      46.508   3.326   5.902  0.00  0.00    +0.000 OA
ATOM     20  C   UNL     1      46.551   3.629   7.297  0.00  0.00    +0.000 C 
ENDBRANCH  15  16
ENDBRANCH  14  15
ENDBRANCH  12  14
ENDBRANCH   8  10
ENDBRANCH   1   9
BRANCH   4  21
ATOM     21  C   UNL     1      49.011   8.600  15.954  0.00  0.00    +0.000 C 
BRANCH  21  22
ATOM     22  N   UNL     1      50.091   7.789  16.457  0.00  0.00    +0.000 N 
ATOM     23  C   UNL     1      51.275   7.675  15.771  0.00  0.00    +0.000 C 
ATOM     24  O   UNL     1      51.485   8.289  14.730  0.00  0.00    +0.000 OA
ATOM     25  H   UNL     1      49.860   7.106  17.171  0.00  0.00    +0.000 HD
BRANCH  23  26
ATOM     26  C   UNL     1      52.305   6.822  16.380  0.00  0.00    +0.000 A 
ATOM     27  C   UNL     1      53.634   7.221  16.351  0.00  0.00    +0.000 A 
ATOM     28  S   UNL     1      54.691   6.147  17.148  0.00  0.00    +0.000 S 
ATOM     29  C   UNL     1      53.417   5.079  17.512  0.00  0.00    +0.000 A 
ATOM     30  N   UNL     1      53.649   3.917  18.180  0.00  0.00    +0.000 NA
ATOM     31  C   UNL     1      52.601   3.186  18.360  0.00  0.00    +0.000 A 
ATOM     32  N   UNL     1      51.338   3.518  17.937  0.00  0.00    +0.000 N 
ATOM     33  C   UNL     1      51.051   4.693  17.290  0.00  0.00    +0.000 A 
ATOM     34  O   UNL     1      49.902   4.978  16.968  0.00  0.00    +0.000 OA
ATOM     35  C   UNL     1      52.200   5.547  17.048  0.00  0.00    +0.000 A 
ATOM     36  H   UNL     1      50.555   2.905  18.116  0.00  0.00    +0.000 HD
ENDBRANCH  23  26
ENDBRANCH  21  22
ENDBRANCH   4  21
TORSDOF 8
ENDMDL
MODEL 5
REMARK VINA RESULT:    -5.986      3.185      3.687
REMARK INTER + INTRA:         -10.098
REMARK INTER:                  -8.800
REMARK INTRA:                  -1.298
REMARK UNBOUND:                -1.313
REMARK  Name = 
REMARK  9 active torsions:
REMARK  status: ('A' for Active; 'I' for Inactive)
REMARK    1  A    between atoms: C_1  and  C_2
REMARK    2  A    between atoms: C_2  and  C_24
REMARK    3  A    between atoms: C_3  and  C_4
REMARK    4  A    between atoms: C_7  and  C_8
REMARK    5  A    between atoms: C_8  and  N_9
REMARK    6  A    between atoms: C_10  and  C_12
REMARK    7  A    between atoms: N_26  and  C_27
REMARK    8  A    between atoms: C_27  and  C_28
REMARK    9  A    between atoms: C_28  and  N_29
REMARK                            x       y       z     vdW  Elec       q    Type
REMARK                         _______ _______ _______ _____ _____    ______ ____
ROOT
ATOM      1  C   UNL     1      46.558   6.751  12.095  0.00  0.00    +0.000 A 
ATOM      2  C   UNL     1      47.805   6.411  12.632  0.00  0.00    +0.000 A 
ATOM      3  C   UNL     1      48.407   7.219  13.603  0.00  0.00    +0.000 A 
ATOM      4  C   UNL     1      47.766   8.377  14.063  0.00  0.00    +0.000 A 
ATOM      5  C   UNL     1      46.527   8.726  13.506  0.00  0.00    +0.000 A 
ATOM      6  C   UNL     1      45.923   7.916  12.535  0.00  0.00    +0.000 A 
ENDROOT
BRANCH   1   9
ATOM      7  C   UNL     1      44.726   4.374  12.672  0.00  0.00    +0.000 C 
ATOM      8  C   UNL     1      45.160   4.834  11.302  0.00  0.00    +0.000 C 
ATOM      9  C   UNL     1      45.956   5.896  11.062  0.00  0.00    +0.000 C 
BRANCH   8  10
ATOM     10  C   UNL     1      44.669   3.929  10.202  0.00  0.00    +0.000 C 
ATOM     11  O   UNL     1      43.867   4.351   9.371  0.00  0.00    +0.000 OA
ATOM     12  N   UNL     1      45.176   2.654  10.141  0.00  0.00    +0.000 N 
ATOM     13  H   UNL     1      45.849   2.308  10.809  0.00  0.00    +0.000 HD
BRANCH  12  14
ATOM     14  C   UNL     1      44.736   1.752   9.090  0.00  0.00    +0.000 C 
BRANCH  14  15
ATOM     15  C   UNL     1      45.825   1.404   8.056  0.00  0.00    +0.000 C 
BRANCH  15  16
ATOM     16  N   UNL     1      46.840   2.456   7.838  0.00  0.00    +0.000 NA
ATOM     17  C   UNL     1      47.983   1.988   7.040  0.00  0.00    +0.000 C 
ATOM     18  C   UNL     1      47.547   2.130   5.592  0.00  0.00    +0.000 C 
ATOM     19  O   UNL     1      46.495   3.102   5.586  0.00  0.00    +0.000 OA
ATOM     20  C   UNL     1      46.293   3.488   6.946  0.00  0.00    +0.000 C 
ENDBRANCH  15  16
ENDBRANCH  14  15
ENDBRANCH  12  14
ENDBRANCH   8  10
ENDBRANCH   1   9
BRANCH   4  21
ATOM     21  C   UNL     1      48.409   9.253  15.110  0.00  0.00    +0.000 C 
BRANCH  21  22
ATOM     22  N   UNL     1      49.165   8.470  16.056  0.00  0.00    +0.000 N 
ATOM     23  C   UNL     1      50.502   8.702  16.264  0.00  0.00    +0.000 C 
ATOM     24  O   UNL     1      51.101   9.609  15.695  0.00  0.00    +0.000 OA
ATOM     25  H   UNL     1      48.759   7.590  16.354  0.00  0.00    +0.000 HD
BRANCH  23  26
ATOM     26  C   UNL     1      51.170   7.844  17.253  0.00  0.00    +0.000 A 
ATOM     27  C   UNL     1      52.363   7.216  16.925  0.00  0.00    +0.000 A 
ATOM     28  S   UNL     1      53.032   6.303  18.200  0.00  0.00    +0.000 S 
ATOM     29  C   UNL     1      51.721   6.669  19.221  0.00  0.00    +0.000 A 
ATOM     30  N   UNL     1      51.658   6.168  20.484  0.00  0.00    +0.000 NA
ATOM     31  C   UNL     1      50.594   6.497  21.137  0.00  0.00    +0.000 A 
ATOM     32  N   UNL     1      49.589   7.289  20.641  0.00  0.00    +0.000 N 
ATOM     33  C   UNL     1      49.625   7.843  19.386  0.00  0.00    +0.000 A 
ATOM     34  O   UNL     1      48.731   8.585  18.991  0.00  0.00    +0.000 OA
ATOM     35  C   UNL     1      50.796   7.492  18.602  0.00  0.00    +0.000 A 
ATOM     36  H   UNL     1      48.784   7.517  21.206  0.00  0.00    +0.000 HD
ENDBRANCH  23  26
ENDBRANCH  21  22
ENDBRANCH   4  21
TORSDOF 8
ENDMDL
MODEL 6
REMARK VINA RESULT:    -5.667      4.192     10.122
REMARK INTER + INTRA:          -9.631
REMARK INTER:                  -8.394
REMARK INTRA:                  -1.238
REMARK UNBOUND:                -1.313
REMARK  Name = 
REMARK  9 active torsions:
REMARK  status: ('A' for Active; 'I' for Inactive)
REMARK    1  A    between atoms: C_1  and  C_2
REMARK    2  A    between atoms: C_2  and  C_24
REMARK    3  A    between atoms: C_3  and  C_4
REMARK    4  A    between atoms: C_7  and  C_8
REMARK    5  A    between atoms: C_8  and  N_9
REMARK    6  A    between atoms: C_10  and  C_12
REMARK    7  A    between atoms: N_26  and  C_27
REMARK    8  A    between atoms: C_27  and  C_28
REMARK    9  A    between atoms: C_28  and  N_29
REMARK                            x       y       z     vdW  Elec       q    Type
REMARK                         _______ _______ _______ _____ _____    ______ ____
ROOT
ATOM      1  C   UNL     1      50.820   5.602  17.025  0.00  0.00    +0.000 A 
ATOM      2  C   UNL     1      49.430   5.453  16.980  0.00  0.00    +0.000 A 
ATOM      3  C   UNL     1      48.648   6.298  16.183  0.00  0.00    +0.000 A 
ATOM      4  C   UNL     1      49.245   7.299  15.407  0.00  0.00    +0.000 A 
ATOM      5  C   UNL     1      50.637   7.460  15.473  0.00  0.00    +0.000 A 
ATOM      6  C   UNL     1      51.420   6.613  16.269  0.00  0.00    +0.000 A 
ENDROOT
BRANCH   1   9
ATOM      7  C   UNL     1      51.839   6.349  19.808  0.00  0.00    +0.000 C 
ATOM      8  C   UNL     1      52.088   5.037  19.107  0.00  0.00    +0.000 C 
ATOM      9  C   UNL     1      51.617   4.715  17.884  0.00  0.00    +0.000 C 
BRANCH   8  10
ATOM     10  C   UNL     1      52.996   4.123  19.887  0.00  0.00    +0.000 C 
ATOM     11  O   UNL     1      52.809   3.950  21.090  0.00  0.00    +0.000 OA
ATOM     12  N   UNL     1      53.994   3.469  19.206  0.00  0.00    +0.000 N 
ATOM     13  H   UNL     1      54.141   3.593  18.214  0.00  0.00    +0.000 HD
BRANCH  12  14
ATOM     14  C   UNL     1      54.887   2.571  19.918  0.00  0.00    +0.000 C 
BRANCH  14  15
ATOM     15  C   UNL     1      55.229   1.278  19.152  0.00  0.00    +0.000 C 
BRANCH  15  16
ATOM     16  N   UNL     1      54.076   0.400  18.860  0.00  0.00    +0.000 NA
ATOM     17  C   UNL     1      53.613   0.514  17.469  0.00  0.00    +0.000 C 
ATOM     18  C   UNL     1      54.507  -0.419  16.670  0.00  0.00    +0.000 C 
ATOM     19  O   UNL     1      55.030  -1.368  17.606  0.00  0.00    +0.000 OA
ATOM     20  C   UNL     1      54.510  -1.003  18.885  0.00  0.00    +0.000 C 
ENDBRANCH  15  16
ENDBRANCH  14  15
ENDBRANCH  12  14
ENDBRANCH   8  10
ENDBRANCH   1   9
BRANCH   4  21
ATOM     21  C   UNL     1      48.409   8.213  14.545  0.00  0.00    +0.000 C 
BRANCH  21  22
ATOM     22  N   UNL     1      47.239   7.535  14.045  0.00  0.00    +0.000 N 
ATOM     23  C   UNL     1      47.030   7.376  12.697  0.00  0.00    +0.000 C 
ATOM     24  O   UNL     1      47.845   7.758  11.863  0.00  0.00    +0.000 OA
ATOM     25  H   UNL     1      46.462   7.424  14.687  0.00  0.00    +0.000 HD
BRANCH  23  26
ATOM     26  C   UNL     1      45.804   6.669  12.304  0.00  0.00    +0.000 A 
ATOM     27  C   UNL     1      44.755   7.376  11.732  0.00  0.00    +0.000 A 
ATOM     28  S   UNL     1      43.432   6.398  11.284  0.00  0.00    +0.000 S 
ATOM     29  C   UNL     1      44.190   5.001  11.891  0.00  0.00    +0.000 A 
ATOM     30  N   UNL     1      43.569   3.792  11.840  0.00  0.00    +0.000 NA
ATOM     31  C   UNL     1      44.242   2.823  12.365  0.00  0.00    +0.000 A 
ATOM     32  N   UNL     1      45.486   2.956  12.930  0.00  0.00    +0.000 N 
ATOM     33  C   UNL     1      46.163   4.147  12.974  0.00  0.00    +0.000 A 
ATOM     34  O   UNL     1      47.294   4.221  13.445  0.00  0.00    +0.000 OA
ATOM     35  C   UNL     1      45.443   5.275  12.410  0.00  0.00    +0.000 A 
ATOM     36  H   UNL     1      45.965   2.156  13.319  0.00  0.00    +0.000 HD
ENDBRANCH  23  26
ENDBRANCH  21  22
ENDBRANCH   4  21
TORSDOF 8
ENDMDL
MODEL 7
REMARK VINA RESULT:    -5.539      2.591      3.737
REMARK INTER + INTRA:          -9.442
REMARK INTER:                  -8.248
REMARK INTRA:                  -1.195
REMARK UNBOUND:                -1.313
REMARK  Name = 
REMARK  9 active torsions:
REMARK  status: ('A' for Active; 'I' for Inactive)
REMARK    1  A    between atoms: C_1  and  C_2
REMARK    2  A    between atoms: C_2  and  C_24
REMARK    3  A    between atoms: C_3  and  C_4
REMARK    4  A    between atoms: C_7  and  C_8
REMARK    5  A    between atoms: C_8  and  N_9
REMARK    6  A    between atoms: C_10  and  C_12
REMARK    7  A    between atoms: N_26  and  C_27
REMARK    8  A    between atoms: C_27  and  C_28
REMARK    9  A    between atoms: C_28  and  N_29
REMARK                            x       y       z     vdW  Elec       q    Type
REMARK                         _______ _______ _______ _____ _____    ______ ____
ROOT
ATOM      1  C   UNL     1      47.570   3.877  16.245  0.00  0.00    +0.000 A 
ATOM      2  C   UNL     1      47.248   4.923  17.118  0.00  0.00    +0.000 A 
ATOM      3  C   UNL     1      47.989   5.130  18.287  0.00  0.00    +0.000 A 
ATOM      4  C   UNL     1      49.076   4.302  18.597  0.00  0.00    +0.000 A 
ATOM      5  C   UNL     1      49.382   3.242  17.731  0.00  0.00    +0.000 A 
ATOM      6  C   UNL     1      48.640   3.035  16.559  0.00  0.00    +0.000 A 
ENDROOT
BRANCH   1   9
ATOM      7  C   UNL     1      47.510   5.787  13.860  0.00  0.00    +0.000 C 
ATOM      8  C   UNL     1      46.714   4.511  13.982  0.00  0.00    +0.000 C 
ATOM      9  C   UNL     1      46.764   3.669  15.034  0.00  0.00    +0.000 C 
BRANCH   8  10
ATOM     10  C   UNL     1      45.778   4.296  12.821  0.00  0.00    +0.000 C 
ATOM     11  O   UNL     1      45.073   3.289  12.777  0.00  0.00    +0.000 OA
ATOM     12  N   UNL     1      45.713   5.270  11.855  0.00  0.00    +0.000 N 
ATOM     13  H   UNL     1      46.276   6.108  11.895  0.00  0.00    +0.000 HD
BRANCH  12  14
ATOM     14  C   UNL     1      44.817   5.107  10.723  0.00  0.00    +0.000 C 
BRANCH  14  15
ATOM     15  C   UNL     1      45.530   4.842   9.383  0.00  0.00    +0.000 C 
BRANCH  15  16
ATOM     16  N   UNL     1      44.806   3.946   8.456  0.00  0.00    +0.000 NA
ATOM     17  C   UNL     1      45.655   3.454   7.361  0.00  0.00    +0.000 C 
ATOM     18  C   UNL     1      46.387   2.251   7.929  0.00  0.00    +0.000 C 
ATOM     19  O   UNL     1      45.600   1.791   9.034  0.00  0.00    +0.000 OA
ATOM     20  C   UNL     1      44.491   2.684   9.139  0.00  0.00    +0.000 C 
ENDBRANCH  15  16
ENDBRANCH  14  15
ENDBRANCH  12  14
ENDBRANCH   8  10
ENDBRANCH   1   9
BRANCH   4  21
ATOM     21  C   UNL     1      49.880   4.519  19.855  0.00  0.00    +0.000 C 
BRANCH  21  22
ATOM     22  N   UNL     1      51.197   5.022  19.554  0.00  0.00    +0.000 N 
ATOM     23  C   UNL     1      51.446   6.370  19.479  0.00  0.00    +0.000 C 
ATOM     24  O   UNL     1      50.576   7.205  19.709  0.00  0.00    +0.000 OA
ATOM     25  H   UNL     1      51.856   4.370  19.141  0.00  0.00    +0.000 HD
BRANCH  23  26
ATOM     26  C   UNL     1      52.826   6.767  19.168  0.00  0.00    +0.000 A 
ATOM     27  C   UNL     1      53.667   7.187  20.188  0.00  0.00    +0.000 A 
ATOM     28  S   UNL     1      55.248   7.557  19.665  0.00  0.00    +0.000 S 
ATOM     29  C   UNL     1      54.848   7.222  18.045  0.00  0.00    +0.000 A 
ATOM     30  N   UNL     1      55.768   7.367  17.054  0.00  0.00    +0.000 NA
ATOM     31  C   UNL     1      55.322   7.113  15.870  0.00  0.00    +0.000 A 
ATOM     32  N   UNL     1      54.038   6.718  15.589  0.00  0.00    +0.000 N 
ATOM     33  C   UNL     1      53.086   6.527  16.558  0.00  0.00    +0.000 A 
ATOM     34  O   UNL     1      51.961   6.129  16.276  0.00  0.00    +0.000 OA
ATOM     35  C   UNL     1      53.532   6.815  17.910  0.00  0.00    +0.000 A 
ATOM     36  H   UNL     1      53.753   6.526  14.639  0.00  0.00    +0.000 HD
ENDBRANCH  23  26
ENDBRANCH  21  22
ENDBRANCH   4  21
TORSDOF 8
ENDMDL
MODEL 8
REMARK VINA RESULT:    -5.437      3.119      3.583
REMARK INTER + INTRA:          -9.293
REMARK INTER:                  -8.081
REMARK INTRA:                  -1.212
REMARK UNBOUND:                -1.313
REMARK  Name = 
REMARK  9 active torsions:
REMARK  status: ('A' for Active; 'I' for Inactive)
REMARK    1  A    between atoms: C_1  and  C_2
REMARK    2  A    between atoms: C_2  and  C_24
REMARK    3  A    between atoms: C_3  and  C_4
REMARK    4  A    between atoms: C_7  and  C_8
REMARK    5  A    between atoms: C_8  and  N_9
REMARK    6  A    between atoms: C_10  and  C_12
REMARK    7  A    between atoms: N_26  and  C_27
REMARK    8  A    between atoms: C_27  and  C_28
REMARK    9  A    between atoms: C_28  and  N_29
REMARK                            x       y       z     vdW  Elec       q    Type
REMARK                         _______ _______ _______ _____ _____    ______ ____
ROOT
ATOM      1  C   UNL     1      47.373   7.757  12.782  0.00  0.00    +0.000 A 
ATOM      2  C   UNL     1      46.673   8.612  13.639  0.00  0.00    +0.000 A 
ATOM      3  C   UNL     1      47.332   9.270  14.684  0.00  0.00    +0.000 A 
ATOM      4  C   UNL     1      48.708   9.092  14.883  0.00  0.00    +0.000 A 
ATOM      5  C   UNL     1      49.401   8.216  14.035  0.00  0.00    +0.000 A 
ATOM      6  C   UNL     1      48.741   7.559  12.987  0.00  0.00    +0.000 A 
ENDROOT
BRANCH   1   9
ATOM      7  C   UNL     1      45.356   5.503  13.219  0.00  0.00    +0.000 C 
ATOM      8  C   UNL     1      45.775   6.056  11.880  0.00  0.00    +0.000 C 
ATOM      9  C   UNL     1      46.655   7.063  11.703  0.00  0.00    +0.000 C 
BRANCH   8  10
ATOM     10  C   UNL     1      45.160   5.311  10.723  0.00  0.00    +0.000 C 
ATOM     11  O   UNL     1      43.989   4.939  10.784  0.00  0.00    +0.000 OA
ATOM     12  N   UNL     1      45.930   5.108   9.604  0.00  0.00    +0.000 N 
ATOM     13  H   UNL     1      46.885   5.428   9.541  0.00  0.00    +0.000 HD
BRANCH  12  14
ATOM     14  C   UNL     1      45.373   4.402   8.463  0.00  0.00    +0.000 C 
BRANCH  14  15
ATOM     15  C   UNL     1      46.419   3.941   7.430  0.00  0.00    +0.000 C 
BRANCH  15  16
ATOM     16  N   UNL     1      46.136   2.638   6.792  0.00  0.00    +0.000 NA
ATOM     17  C   UNL     1      46.576   2.584   5.390  0.00  0.00    +0.000 C 
ATOM     18  C   UNL     1      48.050   2.220   5.444  0.00  0.00    +0.000 C 
ATOM     19  O   UNL     1      48.257   1.588   6.712  0.00  0.00    +0.000 OA
ATOM     20  C   UNL     1      46.997   1.605   7.384  0.00  0.00    +0.000 C 
ENDBRANCH  15  16
ENDBRANCH  14  15
ENDBRANCH  12  14
ENDBRANCH   8  10
ENDBRANCH   1   9
BRANCH   4  21
ATOM     21  C   UNL     1      49.425   9.797  16.007  0.00  0.00    +0.000 C 
BRANCH  21  22
ATOM     22  N   UNL     1      49.500   8.968  17.183  0.00  0.00    +0.000 N 
ATOM     23  C   UNL     1      50.646   8.281  17.499  0.00  0.00    +0.000 C 
ATOM     24  O   UNL     1      51.667   8.377  16.826  0.00  0.00    +0.000 OA
ATOM     25  H   UNL     1      48.621   8.695  17.612  0.00  0.00    +0.000 HD
BRANCH  23  26
ATOM     26  C   UNL     1      50.607   7.468  18.723  0.00  0.00    +0.000 A 
ATOM     27  C   UNL     1      51.459   7.770  19.776  0.00  0.00    +0.000 A 
ATOM     28  S   UNL     1      51.248   6.766  21.139  0.00  0.00    +0.000 S 
ATOM     29  C   UNL     1      50.048   5.855  20.348  0.00  0.00    +0.000 A 
ATOM     30  N   UNL     1      49.452   4.799  20.965  0.00  0.00    +0.000 NA
ATOM     31  C   UNL     1      48.585   4.176  20.240  0.00  0.00    +0.000 A 
ATOM     32  N   UNL     1      48.255   4.520  18.953  0.00  0.00    +0.000 N 
ATOM     33  C   UNL     1      48.804   5.595  18.303  0.00  0.00    +0.000 A 
ATOM     34  O   UNL     1      48.451   5.902  17.168  0.00  0.00    +0.000 OA
ATOM     35  C   UNL     1      49.799   6.323  19.069  0.00  0.00    +0.000 A 
ATOM     36  H   UNL     1      47.560   3.995  18.440  0.00  0.00    +0.000 HD
ENDBRANCH  23  26
ENDBRANCH  21  22
ENDBRANCH   4  21
TORSDOF 8
ENDMDL
MODEL 9
REMARK VINA RESULT:    -5.142      3.686     10.803
REMARK INTER + INTRA:          -8.860
REMARK INTER:                  -7.909
REMARK INTRA:                  -0.952
REMARK UNBOUND:                -1.313
REMARK  Name = 
REMARK  9 active torsions:
REMARK  status: ('A' for Active; 'I' for Inactive)
REMARK    1  A    between atoms: C_1  and  C_2
REMARK    2  A    between atoms: C_2  and  C_24
REMARK    3  A    between atoms: C_3  and  C_4
REMARK    4  A    between atoms: C_7  and  C_8
REMARK    5  A    between atoms: C_8  and  N_9
REMARK    6  A    between atoms: C_10  and  C_12
REMARK    7  A    between atoms: N_26  and  C_27
REMARK    8  A    between atoms: C_27  and  C_28
REMARK    9  A    between atoms: C_28  and  N_29
REMARK                            x       y       z     vdW  Elec       q    Type
REMARK                         _______ _______ _______ _____ _____    ______ ____
ROOT
ATOM      1  C   UNL     1      50.641   8.059  14.876  0.00  0.00    +0.000 A 
ATOM      2  C   UNL     1      49.727   7.001  14.831  0.00  0.00    +0.000 A 
ATOM      3  C   UNL     1      48.603   7.064  13.999  0.00  0.00    +0.000 A 
ATOM      4  C   UNL     1      48.380   8.184  13.188  0.00  0.00    +0.000 A 
ATOM      5  C   UNL     1      49.287   9.252  13.253  0.00  0.00    +0.000 A 
ATOM      6  C   UNL     1      50.414   9.188  14.085  0.00  0.00    +0.000 A 
ENDROOT
BRANCH   1   9
ATOM      7  C   UNL     1      53.536   7.796  13.933  0.00  0.00    +0.000 C 
ATOM      8  C   UNL     1      53.084   7.842  15.371  0.00  0.00    +0.000 C 
ATOM      9  C   UNL     1      51.803   7.976  15.772  0.00  0.00    +0.000 C 
BRANCH   8  10
ATOM     10  C   UNL     1      54.217   7.646  16.345  0.00  0.00    +0.000 C 
ATOM     11  O   UNL     1      55.194   8.393  16.310  0.00  0.00    +0.000 OA
ATOM     12  N   UNL     1      54.098   6.649  17.281  0.00  0.00    +0.000 N 
ATOM     13  H   UNL     1      53.290   6.045  17.327  0.00  0.00    +0.000 HD
BRANCH  12  14
ATOM     14  C   UNL     1      55.164   6.432  18.245  0.00  0.00    +0.000 C 
BRANCH  14  15
ATOM     15  C   UNL     1      55.071   5.093  19.002  0.00  0.00    +0.000 C 
BRANCH  15  16
ATOM     16  N   UNL     1      54.418   3.996  18.256  0.00  0.00    +0.000 NA
ATOM     17  C   UNL     1      55.281   2.814  18.111  0.00  0.00    +0.000 C 
ATOM     18  C   UNL     1      55.103   2.026  19.397  0.00  0.00    +0.000 C 
ATOM     19  O   UNL     1      53.846   2.440  19.946  0.00  0.00    +0.000 OA
ATOM     20  C   UNL     1      53.327   3.435  19.064  0.00  0.00    +0.000 C 
ENDBRANCH  15  16
ENDBRANCH  14  15
ENDBRANCH  12  14
ENDBRANCH   8  10
ENDBRANCH   1   9
BRANCH   4  21
ATOM     21  C   UNL     1      47.172   8.260  12.288  0.00  0.00    +0.000 C 
BRANCH  21  22
ATOM     22  N   UNL     1      46.556   6.967  12.128  0.00  0.00    +0.000 N 
ATOM     23  C   UNL     1      45.297   6.838  11.594  0.00  0.00    +0.000 C 
ATOM     24  O   UNL     1      44.662   7.806  11.187  0.00  0.00    +0.000 OA
ATOM     25  H   UNL     1      46.953   6.198  12.659  0.00  0.00    +0.000 HD
BRANCH  23  26
ATOM     26  C   UNL     1      44.771   5.471  11.478  0.00  0.00    +0.000 A 
ATOM     27  C   UNL     1      44.065   4.914  12.534  0.00  0.00    +0.000 A 
ATOM     28  S   UNL     1      43.477   3.345  12.216  0.00  0.00    +0.000 S 
ATOM     29  C   UNL     1      44.195   3.331  10.674  0.00  0.00    +0.000 A 
ATOM     30  N   UNL     1      44.092   2.243   9.865  0.00  0.00    +0.000 NA
ATOM     31  C   UNL     1      44.711   2.354   8.738  0.00  0.00    +0.000 A 
ATOM     32  N   UNL     1      45.420   3.461   8.344  0.00  0.00    +0.000 N 
ATOM     33  C   UNL     1      45.524   4.593   9.112  0.00  0.00    +0.000 A 
ATOM     34  O   UNL     1      46.127   5.583   8.709  0.00  0.00    +0.000 OA
ATOM     35  C   UNL     1      44.857   4.515  10.399  0.00  0.00    +0.000 A 
ATOM     36  H   UNL     1      45.877   3.489   7.444  0.00  0.00    +0.000 HD
ENDBRANCH  23  26
ENDBRANCH  21  22
ENDBRANCH   4  21
TORSDOF 8
ENDMDL
