MODEL 1
REMARK VINA RESULT:    -9.250      0.000      0.000
REMARK INTER + INTRA:         -13.984
REMARK INTER:                 -13.036
REMARK INTRA:                  -0.948
REMARK UNBOUND:                -0.948
REMARK  Name = 
REMARK  7 active torsions:
REMARK  status: ('A' for Active; 'I' for Inactive)
REMARK    1  A    between atoms: C_2  and  C_4
REMARK    2  A    between atoms: C_7  and  O_8
REMARK    3  A    between atoms: O_8  and  C_9
REMARK    4  A    between atoms: C_9  and  C_10
REMARK    5  A    between atoms: C_10  and  C_13
REMARK    6  A    between atoms: C_17  and  O_18
REMARK    7  A    between atoms: O_18  and  C_19
REMARK                            x       y       z     vdW  Elec       q    Type
REMARK                         _______ _______ _______ _____ _____    ______ ____
ROOT
ATOM      1  C   UNL     1      43.575   5.408  12.192  0.00  0.00    +0.000 C 
ATOM      2  F   UNL     1      43.233   6.566  11.554  0.00  0.00    +0.000 F 
ATOM      3  F   UNL     1      42.718   5.304  13.249  0.00  0.00    +0.000 F 
ENDROOT
BRANCH   1   4
ATOM      4  C   UNL     1      45.020   5.424  12.644  0.00  0.00    +0.000 A 
ATOM      5  C   UNL     1      45.893   6.439  12.239  0.00  0.00    +0.000 A 
ATOM      6  C   UNL     1      47.219   6.374  12.642  0.00  0.00    +0.000 A 
ATOM      7  N   UNL     1      47.732   5.365  13.380  0.00  0.00    +0.000 NA
ATOM      8  C   UNL     1      46.872   4.405  13.771  0.00  0.00    +0.000 A 
ATOM      9  C   UNL     1      45.524   4.399  13.453  0.00  0.00    +0.000 A 
BRANCH   8  10
ATOM     10  O   UNL     1      47.343   3.335  14.504  0.00  0.00    +0.000 OA
BRANCH  10  11
ATOM     11  C   UNL     1      47.749   3.632  15.854  0.00  0.00    +0.000 C 
ATOM     12  C   UNL     1      48.484   2.520  16.622  0.00  0.00    +0.000 C 
ATOM     13  C   UNL     1      47.449   2.773  17.708  0.00  0.00    +0.000 C 
ATOM     14  O   UNL     1      46.639   3.556  16.802  0.00  0.00    +0.000 OA
ENDBRANCH  10  11
ENDBRANCH   8  10
ENDBRANCH   1   4
BRANCH   1  15
ATOM     15  C   UNL     1      43.325   4.227  11.232  0.00  0.00    +0.000 C 
BRANCH  15  16
ATOM     16  O   UNL     1      43.637   4.607   9.882  0.00  0.00    +0.000 OA
BRANCH  16  20
ATOM     17  C   UNL     1      46.198   1.995   8.015  0.00  0.00    +0.000 A 
ATOM     18  C   UNL     1      46.286   3.329   7.633  0.00  0.00    +0.000 A 
ATOM     19  C   UNL     1      45.437   4.257   8.239  0.00  0.00    +0.000 A 
ATOM     20  C   UNL     1      44.530   3.829   9.206  0.00  0.00    +0.000 A 
ATOM     21  C   UNL     1      44.522   2.470   9.521  0.00  0.00    +0.000 A 
ATOM     22  N   UNL     1      45.325   1.536   8.951  0.00  0.00    +0.000 NA
BRANCH  17  24
ATOM     23  N   UNL     1      46.839  -0.325   7.669  0.00  0.00    +0.000 N 
ATOM     24  C   UNL     1      47.093   0.987   7.364  0.00  0.00    +0.000 C 
ATOM     25  O   UNL     1      47.990   1.304   6.594  0.00  0.00    +0.000 OA
ATOM     26  H   UNL     1      47.374  -1.049   7.215  0.00  0.00    +0.000 HD
ATOM     27  H   UNL     1      46.041  -0.560   8.249  0.00  0.00    +0.000 HD
ENDBRANCH  17  24
ENDBRANCH  16  20
ENDBRANCH  15  16
ENDBRANCH   1  15
TORSDOF 7
ENDMDL
MODEL 2
REMARK VINA RESULT:    -9.039      1.331      1.472
REMARK INTER + INTRA:         -13.686
REMARK INTER:                 -12.604
REMARK INTRA:                  -1.082
REMARK UNBOUND:                -0.948
REMARK  Name = 
REMARK  7 active torsions:
REMARK  status: ('A' for Active; 'I' for Inactive)
REMARK    1  A    between atoms: C_2  and  C_4
REMARK    2  A    between atoms: C_7  and  O_8
REMARK    3  A    between atoms: O_8  and  C_9
REMARK    4  A    between atoms: C_9  and  C_10
REMARK    5  A    between atoms: C_10  and  C_13
REMARK    6  A    between atoms: C_17  and  O_18
REMARK    7  A    between atoms: O_18  and  C_19
REMARK                            x       y       z     vdW  Elec       q    Type
REMARK                         _______ _______ _______ _____ _____    ______ ____
ROOT
ATOM      1  C   UNL     1      43.605   4.547  12.404  0.00  0.00    +0.000 C 
ATOM      2  F   UNL     1      42.616   5.219  13.065  0.00  0.00    +0.000 F 
ATOM      3  F   UNL     1      43.613   3.289  12.936  0.00  0.00    +0.000 F 
ENDROOT
BRANCH   1   4
ATOM      4  C   UNL     1      44.948   5.228  12.563  0.00  0.00    +0.000 A 
ATOM      5  C   UNL     1      45.384   6.189  11.645  0.00  0.00    +0.000 A 
ATOM      6  C   UNL     1      46.644   6.742  11.811  0.00  0.00    +0.000 A 
ATOM      7  N   UNL     1      47.499   6.385  12.794  0.00  0.00    +0.000 NA
ATOM      8  C   UNL     1      47.055   5.469  13.676  0.00  0.00    +0.000 A 
ATOM      9  C   UNL     1      45.801   4.884  13.619  0.00  0.00    +0.000 A 
BRANCH   8  10
ATOM     10  O   UNL     1      47.893   5.044  14.687  0.00  0.00    +0.000 OA
BRANCH  10  11
ATOM     11  C   UNL     1      47.363   4.018  15.549  0.00  0.00    +0.000 C 
ATOM     12  C   UNL     1      47.555   4.212  17.063  0.00  0.00    +0.000 C 
ATOM     13  C   UNL     1      48.123   2.801  17.035  0.00  0.00    +0.000 C 
ATOM     14  O   UNL     1      48.212   2.829  15.592  0.00  0.00    +0.000 OA
ENDBRANCH  10  11
ENDBRANCH   8  10
ENDBRANCH   1   4
BRANCH   1  15
ATOM     15  C   UNL     1      43.223   4.452  10.913  0.00  0.00    +0.000 C 
BRANCH  15  16
ATOM     16  O   UNL     1      43.532   3.147  10.401  0.00  0.00    +0.000 OA
BRANCH  16  20
ATOM     17  C   UNL     1      46.412   2.572   7.530  0.00  0.00    +0.000 A 
ATOM     18  C   UNL     1      45.920   3.866   7.664  0.00  0.00    +0.000 A 
ATOM     19  C   UNL     1      44.940   4.114   8.627  0.00  0.00    +0.000 A 
ATOM     20  C   UNL     1      44.483   3.068   9.425  0.00  0.00    +0.000 A 
ATOM     21  C   UNL     1      45.042   1.807   9.215  0.00  0.00    +0.000 A 
ATOM     22  N   UNL     1      45.990   1.524   8.286  0.00  0.00    +0.000 NA
BRANCH  17  24
ATOM     23  N   UNL     1      47.403   3.065   5.364  0.00  0.00    +0.000 N 
ATOM     24  C   UNL     1      47.454   2.289   6.492  0.00  0.00    +0.000 C 
ATOM     25  O   UNL     1      48.311   1.428   6.639  0.00  0.00    +0.000 OA
ATOM     26  H   UNL     1      48.115   2.956   4.659  0.00  0.00    +0.000 HD
ATOM     27  H   UNL     1      46.729   3.821   5.305  0.00  0.00    +0.000 HD
ENDBRANCH  17  24
ENDBRANCH  16  20
ENDBRANCH  15  16
ENDBRANCH   1  15
TORSDOF 7
ENDMDL
MODEL 3
REMARK VINA RESULT:    -8.072      2.238      3.578
REMARK INTER + INTRA:         -12.324
REMARK INTER:                 -11.306
REMARK INTRA:                  -1.017
REMARK UNBOUND:                -0.948
REMARK  Name = 
REMARK  7 active torsions:
REMARK  status: ('A' for Active; 'I' for Inactive)
REMARK    1  A    between atoms: C_2  and  C_4
REMARK    2  A    between atoms: C_7  and  O_8
REMARK    3  A    between atoms: O_8  and  C_9
REMARK    4  A    between atoms: C_9  and  C_10
REMARK    5  A    between atoms: C_10  and  C_13
REMARK    6  A    between atoms: C_17  and  O_18
REMARK    7  A    between atoms: O_18  and  C_19
REMARK                            x       y       z     vdW  Elec       q    Type
REMARK                         _______ _______ _______ _____ _____    ______ ____
ROOT
ATOM      1  C   UNL     1      43.744   5.493  12.189  0.00  0.00    +0.000 C 
ATOM      2  F   UNL     1      43.440   6.619  11.479  0.00  0.00    +0.000 F 
ATOM      3  F   UNL     1      42.912   5.505  13.271  0.00  0.00    +0.000 F 
ENDROOT
BRANCH   1   4
ATOM      4  C   UNL     1      45.200   5.470  12.605  0.00  0.00    +0.000 A 
ATOM      5  C   UNL     1      45.650   4.614  13.616  0.00  0.00    +0.000 A 
ATOM      6  C   UNL     1      46.983   4.673  13.991  0.00  0.00    +0.000 A 
ATOM      7  N   UNL     1      47.877   5.535  13.459  0.00  0.00    +0.000 NA
ATOM      8  C   UNL     1      47.428   6.341  12.477  0.00  0.00    +0.000 A 
ATOM      9  C   UNL     1      46.126   6.334  12.006  0.00  0.00    +0.000 A 
BRANCH   8  10
ATOM     10  O   UNL     1      48.288   7.262  11.914  0.00  0.00    +0.000 OA
BRANCH  10  11
ATOM     11  C   UNL     1      47.925   8.645  12.090  0.00  0.00    +0.000 C 
ATOM     12  C   UNL     1      49.000   9.695  11.758  0.00  0.00    +0.000 C 
ATOM     13  C   UNL     1      48.691  10.249  13.141  0.00  0.00    +0.000 C 
ATOM     14  O   UNL     1      47.952   9.057  13.492  0.00  0.00    +0.000 OA
ENDBRANCH  10  11
ENDBRANCH   8  10
ENDBRANCH   1   4
BRANCH   1  15
ATOM     15  C   UNL     1      43.414   4.261  11.322  0.00  0.00    +0.000 C 
BRANCH  15  16
ATOM     16  O   UNL     1      43.608   4.563   9.932  0.00  0.00    +0.000 OA
BRANCH  16  20
ATOM     17  C   UNL     1      46.422   2.543   7.727  0.00  0.00    +0.000 A 
ATOM     18  C   UNL     1      45.615   1.773   8.556  0.00  0.00    +0.000 A 
ATOM     19  C   UNL     1      44.641   2.412   9.326  0.00  0.00    +0.000 A 
ATOM     20  C   UNL     1      44.502   3.796   9.245  0.00  0.00    +0.000 A 
ATOM     21  C   UNL     1      45.358   4.478   8.380  0.00  0.00    +0.000 A 
ATOM     22  N   UNL     1      46.320   3.895   7.621  0.00  0.00    +0.000 NA
BRANCH  17  24
ATOM     23  N   UNL     1      48.500   2.676   6.471  0.00  0.00    +0.000 N 
ATOM     24  C   UNL     1      47.479   1.872   6.905  0.00  0.00    +0.000 C 
ATOM     25  O   UNL     1      47.448   0.677   6.642  0.00  0.00    +0.000 OA
ATOM     26  H   UNL     1      49.268   2.266   5.963  0.00  0.00    +0.000 HD
ATOM     27  H   UNL     1      48.538   3.645   6.769  0.00  0.00    +0.000 HD
ENDBRANCH  17  24
ENDBRANCH  16  20
ENDBRANCH  15  16
ENDBRANCH   1  15
TORSDOF 7
ENDMDL
MODEL 4
REMARK VINA RESULT:    -7.525      2.128      7.047
REMARK INTER + INTRA:         -11.552
REMARK INTER:                 -10.678
REMARK INTRA:                  -0.874
REMARK UNBOUND:                -0.948
REMARK  Name = 
REMARK  7 active torsions:
REMARK  status: ('A' for Active; 'I' for Inactive)
REMARK    1  A    between atoms: C_2  and  C_4
REMARK    2  A    between atoms: C_7  and  O_8
REMARK    3  A    between atoms: O_8  and  C_9
REMARK    4  A    between atoms: C_9  and  C_10
REMARK    5  A    between atoms: C_10  and  C_13
REMARK    6  A    between atoms: C_17  and  O_18
REMARK    7  A    between atoms: O_18  and  C_19
REMARK                            x       y       z     vdW  Elec       q    Type
REMARK                         _______ _______ _______ _____ _____    ______ ____
ROOT
ATOM      1  C   UNL     1      45.073   6.568  11.410  0.00  0.00    +0.000 C 
ATOM      2  F   UNL     1      44.147   7.533  11.136  0.00  0.00    +0.000 F 
ATOM      3  F   UNL     1      46.118   6.810  10.566  0.00  0.00    +0.000 F 
ENDROOT
BRANCH   1   4
ATOM      4  C   UNL     1      44.507   5.177  11.214  0.00  0.00    +0.000 A 
ATOM      5  C   UNL     1      43.772   4.547  12.223  0.00  0.00    +0.000 A 
ATOM      6  C   UNL     1      43.322   3.253  12.007  0.00  0.00    +0.000 A 
ATOM      7  N   UNL     1      43.581   2.543  10.886  0.00  0.00    +0.000 NA
ATOM      8  C   UNL     1      44.279   3.174   9.921  0.00  0.00    +0.000 A 
ATOM      9  C   UNL     1      44.740   4.475  10.025  0.00  0.00    +0.000 A 
BRANCH   8  10
ATOM     10  O   UNL     1      44.597   2.491   8.764  0.00  0.00    +0.000 OA
BRANCH  10  11
ATOM     11  C   UNL     1      45.986   2.142   8.607  0.00  0.00    +0.000 C 
ATOM     12  C   UNL     1      46.668   2.572   7.297  0.00  0.00    +0.000 C 
ATOM     13  C   UNL     1      47.099   1.115   7.203  0.00  0.00    +0.000 C 
ATOM     14  O   UNL     1      46.172   0.738   8.247  0.00  0.00    +0.000 OA
ENDBRANCH  10  11
ENDBRANCH   8  10
ENDBRANCH   1   4
BRANCH   1  15
ATOM     15  C   UNL     1      45.557   6.751  12.863  0.00  0.00    +0.000 C 
BRANCH  15  16
ATOM     16  O   UNL     1      46.943   6.391  12.976  0.00  0.00    +0.000 OA
BRANCH  16  20
ATOM     17  C   UNL     1      47.898   4.154  16.285  0.00  0.00    +0.000 A 
ATOM     18  C   UNL     1      48.522   5.391  16.172  0.00  0.00    +0.000 A 
ATOM     19  C   UNL     1      48.231   6.191  15.066  0.00  0.00    +0.000 A 
ATOM     20  C   UNL     1      47.327   5.735  14.109  0.00  0.00    +0.000 A 
ATOM     21  C   UNL     1      46.752   4.481  14.315  0.00  0.00    +0.000 A 
ATOM     22  N   UNL     1      47.014   3.671  15.372  0.00  0.00    +0.000 NA
BRANCH  17  24
ATOM     23  N   UNL     1      47.133   2.745  18.113  0.00  0.00    +0.000 N 
ATOM     24  C   UNL     1      48.212   3.280  17.460  0.00  0.00    +0.000 C 
ATOM     25  O   UNL     1      49.358   3.042  17.815  0.00  0.00    +0.000 OA
ATOM     26  H   UNL     1      47.287   2.103  18.875  0.00  0.00    +0.000 HD
ATOM     27  H   UNL     1      46.198   2.898  17.748  0.00  0.00    +0.000 HD
ENDBRANCH  17  24
ENDBRANCH  16  20
ENDBRANCH  15  16
ENDBRANCH   1  15
TORSDOF 7
ENDMDL
MODEL 5
REMARK VINA RESULT:    -7.023      2.786      3.316
REMARK INTER + INTRA:         -10.844
REMARK INTER:                 -10.073
REMARK INTRA:                  -0.771
REMARK UNBOUND:                -0.948
REMARK  Name = 
REMARK  7 active torsions:
REMARK  status: ('A' for Active; 'I' for Inactive)
REMARK    1  A    between atoms: C_2  and  C_4
REMARK    2  A    between atoms: C_7  and  O_8
REMARK    3  A    between atoms: O_8  and  C_9
REMARK    4  A    between atoms: C_9  and  C_10
REMARK    5  A    between atoms: C_10  and  C_13
REMARK    6  A    between atoms: C_17  and  O_18
REMARK    7  A    between atoms: O_18  and  C_19
REMARK                            x       y       z     vdW  Elec       q    Type
REMARK                         _______ _______ _______ _____ _____    ______ ____
ROOT
ATOM      1  C   UNL     1      43.479   5.793  12.086  0.00  0.00    +0.000 C 
ATOM      2  F   UNL     1      42.406   6.166  11.327  0.00  0.00    +0.000 F 
ATOM      3  F   UNL     1      42.971   5.487  13.315  0.00  0.00    +0.000 F 
ENDROOT
BRANCH   1   4
ATOM      4  C   UNL     1      44.516   6.892  12.168  0.00  0.00    +0.000 A 
ATOM      5  C   UNL     1      44.292   8.143  11.585  0.00  0.00    +0.000 A 
ATOM      6  C   UNL     1      45.299   9.095  11.647  0.00  0.00    +0.000 A 
ATOM      7  N   UNL     1      46.507   8.876  12.211  0.00  0.00    +0.000 NA
ATOM      8  C   UNL     1      46.698   7.670  12.780  0.00  0.00    +0.000 A 
ATOM      9  C   UNL     1      45.744   6.667  12.803  0.00  0.00    +0.000 A 
BRANCH   8  10
ATOM     10  O   UNL     1      47.922   7.378  13.349  0.00  0.00    +0.000 OA
BRANCH  10  11
ATOM     11  C   UNL     1      48.983   8.309  13.060  0.00  0.00    +0.000 C 
ATOM     12  C   UNL     1      50.025   7.874  12.015  0.00  0.00    +0.000 C 
ATOM     13  C   UNL     1      51.046   8.245  13.079  0.00  0.00    +0.000 C 
ATOM     14  O   UNL     1      50.017   8.316  14.092  0.00  0.00    +0.000 OA
ENDBRANCH  10  11
ENDBRANCH   8  10
ENDBRANCH   1   4
BRANCH   1  15
ATOM     15  C   UNL     1      44.094   4.518  11.472  0.00  0.00    +0.000 C 
BRANCH  15  16
ATOM     16  O   UNL     1      43.793   4.444  10.070  0.00  0.00    +0.000 OA
BRANCH  16  20
ATOM     17  C   UNL     1      46.405   2.247   7.786  0.00  0.00    +0.000 A 
ATOM     18  C   UNL     1      46.447   3.627   7.621  0.00  0.00    +0.000 A 
ATOM     19  C   UNL     1      45.579   4.419   8.376  0.00  0.00    +0.000 A 
ATOM     20  C   UNL     1      44.700   3.813   9.270  0.00  0.00    +0.000 A 
ATOM     21  C   UNL     1      44.738   2.422   9.365  0.00  0.00    +0.000 A 
ATOM     22  N   UNL     1      45.560   1.617   8.645  0.00  0.00    +0.000 NA
BRANCH  17  24
ATOM     23  N   UNL     1      48.359   2.029   6.355  0.00  0.00    +0.000 N 
ATOM     24  C   UNL     1      47.321   1.385   6.974  0.00  0.00    +0.000 C 
ATOM     25  O   UNL     1      47.167   0.174   6.874  0.00  0.00    +0.000 OA
ATOM     26  H   UNL     1      49.039   1.490   5.842  0.00  0.00    +0.000 HD
ATOM     27  H   UNL     1      48.504   3.021   6.519  0.00  0.00    +0.000 HD
ENDBRANCH  17  24
ENDBRANCH  16  20
ENDBRANCH  15  16
ENDBRANCH   1  15
TORSDOF 7
ENDMDL
MODEL 6
REMARK VINA RESULT:    -6.444      2.684      7.142
REMARK INTER + INTRA:         -10.029
REMARK INTER:                  -9.243
REMARK INTRA:                  -0.786
REMARK UNBOUND:                -0.948
REMARK  Name = 
REMARK  7 active torsions:
REMARK  status: ('A' for Active; 'I' for Inactive)
REMARK    1  A    between atoms: C_2  and  C_4
REMARK    2  A    between atoms: C_7  and  O_8
REMARK    3  A    between atoms: O_8  and  C_9
REMARK    4  A    between atoms: C_9  and  C_10
REMARK    5  A    between atoms: C_10  and  C_13
REMARK    6  A    between atoms: C_17  and  O_18
REMARK    7  A    between atoms: O_18  and  C_19
REMARK                            x       y       z     vdW  Elec       q    Type
REMARK                         _______ _______ _______ _____ _____    ______ ____
ROOT
ATOM      1  C   UNL     1      46.504   7.758  11.856  0.00  0.00    +0.000 C 
ATOM      2  F   UNL     1      46.237   9.018  11.402  0.00  0.00    +0.000 F 
ATOM      3  F   UNL     1      47.739   7.444  11.365  0.00  0.00    +0.000 F 
ENDROOT
BRANCH   1   4
ATOM      4  C   UNL     1      45.455   6.765  11.403  0.00  0.00    +0.000 A 
ATOM      5  C   UNL     1      44.093   7.011  11.601  0.00  0.00    +0.000 A 
ATOM      6  C   UNL     1      43.179   6.043  11.213  0.00  0.00    +0.000 A 
ATOM      7  N   UNL     1      43.527   4.851  10.680  0.00  0.00    +0.000 NA
ATOM      8  C   UNL     1      44.843   4.640  10.483  0.00  0.00    +0.000 A 
ATOM      9  C   UNL     1      45.830   5.557  10.803  0.00  0.00    +0.000 A 
BRANCH   8  10
ATOM     10  O   UNL     1      45.261   3.429   9.967  0.00  0.00    +0.000 OA
BRANCH  10  11
ATOM     11  C   UNL     1      45.137   3.283   8.539  0.00  0.00    +0.000 C 
ATOM     12  C   UNL     1      46.104   2.303   7.853  0.00  0.00    +0.000 C 
ATOM     13  C   UNL     1      46.406   3.467   6.921  0.00  0.00    +0.000 C 
ATOM     14  O   UNL     1      45.740   4.395   7.807  0.00  0.00    +0.000 OA
ENDBRANCH  10  11
ENDBRANCH   8  10
ENDBRANCH   1   4
BRANCH   1  15
ATOM     15  C   UNL     1      46.578   7.796  13.396  0.00  0.00    +0.000 C 
BRANCH  15  16
ATOM     16  O   UNL     1      47.896   7.442  13.841  0.00  0.00    +0.000 OA
BRANCH  16  20
ATOM     17  C   UNL     1      48.001   4.124  16.259  0.00  0.00    +0.000 A 
ATOM     18  C   UNL     1      48.776   5.207  16.659  0.00  0.00    +0.000 A 
ATOM     19  C   UNL     1      48.775   6.359  15.871  0.00  0.00    +0.000 A 
ATOM     20  C   UNL     1      48.001   6.398  14.714  0.00  0.00    +0.000 A 
ATOM     21  C   UNL     1      47.255   5.262  14.401  0.00  0.00    +0.000 A 
ATOM     22  N   UNL     1      47.235   4.121  15.136  0.00  0.00    +0.000 NA
BRANCH  17  24
ATOM     23  N   UNL     1      46.839   2.598  17.754  0.00  0.00    +0.000 N 
ATOM     24  C   UNL     1      48.003   2.877  17.088  0.00  0.00    +0.000 C 
ATOM     25  O   UNL     1      48.976   2.137  17.160  0.00  0.00    +0.000 OA
ATOM     26  H   UNL     1      46.766   1.741  18.281  0.00  0.00    +0.000 HD
ATOM     27  H   UNL     1      46.026   3.189  17.614  0.00  0.00    +0.000 HD
ENDBRANCH  17  24
ENDBRANCH  16  20
ENDBRANCH  15  16
ENDBRANCH   1  15
TORSDOF 7
ENDMDL
MODEL 7
REMARK VINA RESULT:    -6.432      4.051      6.425
REMARK INTER + INTRA:         -10.011
REMARK INTER:                  -9.316
REMARK INTRA:                  -0.695
REMARK UNBOUND:                -0.948
REMARK  Name = 
REMARK  7 active torsions:
REMARK  status: ('A' for Active; 'I' for Inactive)
REMARK    1  A    between atoms: C_2  and  C_4
REMARK    2  A    between atoms: C_7  and  O_8
REMARK    3  A    between atoms: O_8  and  C_9
REMARK    4  A    between atoms: C_9  and  C_10
REMARK    5  A    between atoms: C_10  and  C_13
REMARK    6  A    between atoms: C_17  and  O_18
REMARK    7  A    between atoms: O_18  and  C_19
REMARK                            x       y       z     vdW  Elec       q    Type
REMARK                         _______ _______ _______ _____ _____    ______ ____
ROOT
ATOM      1  C   UNL     1      47.677   3.605  16.892  0.00  0.00    +0.000 C 
ATOM      2  F   UNL     1      47.189   4.831  17.245  0.00  0.00    +0.000 F 
ATOM      3  F   UNL     1      46.903   2.696  17.554  0.00  0.00    +0.000 F 
ENDROOT
BRANCH   1   4
ATOM      4  C   UNL     1      49.140   3.460  17.253  0.00  0.00    +0.000 A 
ATOM      5  C   UNL     1      49.894   4.560  17.675  0.00  0.00    +0.000 A 
ATOM      6  C   UNL     1      51.242   4.378  17.943  0.00  0.00    +0.000 A 
ATOM      7  N   UNL     1      51.888   3.201  17.789  0.00  0.00    +0.000 NA
ATOM      8  C   UNL     1      51.141   2.151  17.395  0.00  0.00    +0.000 A 
ATOM      9  C   UNL     1      49.782   2.221  17.138  0.00  0.00    +0.000 A 
BRANCH   8  10
ATOM     10  O   UNL     1      51.750   0.928  17.194  0.00  0.00    +0.000 OA
BRANCH  10  11
ATOM     11  C   UNL     1      53.052   0.773  17.791  0.00  0.00    +0.000 C 
ATOM     12  C   UNL     1      54.154   0.159  16.910  0.00  0.00    +0.000 C 
ATOM     13  C   UNL     1      54.367  -0.794  18.077  0.00  0.00    +0.000 C 
ATOM     14  O   UNL     1      53.124  -0.379  18.687  0.00  0.00    +0.000 OA
ENDBRANCH  10  11
ENDBRANCH   8  10
ENDBRANCH   1   4
BRANCH   1  15
ATOM     15  C   UNL     1      47.477   3.415  15.374  0.00  0.00    +0.000 C 
BRANCH  15  16
ATOM     16  O   UNL     1      47.555   4.680  14.699  0.00  0.00    +0.000 OA
BRANCH  16  20
ATOM     17  C   UNL     1      44.416   5.274  12.118  0.00  0.00    +0.000 A 
ATOM     18  C   UNL     1      45.283   6.346  12.298  0.00  0.00    +0.000 A 
ATOM     19  C   UNL     1      46.366   6.195  13.164  0.00  0.00    +0.000 A 
ATOM     20  C   UNL     1      46.554   4.982  13.823  0.00  0.00    +0.000 A 
ATOM     21  C   UNL     1      45.631   3.966  13.573  0.00  0.00    +0.000 A 
ATOM     22  N   UNL     1      44.562   4.076  12.744  0.00  0.00    +0.000 NA
BRANCH  17  24
ATOM     23  N   UNL     1      42.171   6.113  11.710  0.00  0.00    +0.000 N 
ATOM     24  C   UNL     1      43.242   5.427  11.202  0.00  0.00    +0.000 C 
ATOM     25  O   UNL     1      43.235   4.980  10.062  0.00  0.00    +0.000 OA
ATOM     26  H   UNL     1      41.376   6.295  11.116  0.00  0.00    +0.000 HD
ATOM     27  H   UNL     1      42.236   6.537  12.629  0.00  0.00    +0.000 HD
ENDBRANCH  17  24
ENDBRANCH  16  20
ENDBRANCH  15  16
ENDBRANCH   1  15
TORSDOF 7
ENDMDL
