MODEL 1
REMARK VINA RESULT:    -8.353      0.000      0.000
REMARK INTER + INTRA:         -13.766
REMARK INTER:                 -12.260
REMARK INTRA:                  -1.506
REMARK UNBOUND:                -1.506
REMARK  Name = 
REMARK  9 active torsions:
REMARK  status: ('A' for Active; 'I' for Inactive)
REMARK    1  A    between atoms: C_1  and  O_2
REMARK    2  A    between atoms: O_2  and  C_3
REMARK    3  A    between atoms: C_10  and  C_11
REMARK    4  A    between atoms: N_13  and  C_14
REMARK    5  A    between atoms: C_14  and  C_15
REMARK    6  A    between atoms: C_18  and  C_19
REMARK    7  A    between atoms: C_19  and  N_20
REMARK    8  A    between atoms: N_20  and  C_21
REMARK    9  A    between atoms: C_21  and  C_22
REMARK                            x       y       z     vdW  Elec       q    Type
REMARK                         _______ _______ _______ _____ _____    ______ ____
ROOT
ATOM      1  C   UNL     1      46.560   7.561  12.731  0.00  0.00    +0.000 A 
ATOM      2  C   UNL     1      46.983   6.606  11.797  0.00  0.00    +0.000 A 
ATOM      3  C   UNL     1      46.053   5.913  11.010  0.00  0.00    +0.000 A 
ATOM      4  C   UNL     1      44.678   6.167  11.125  0.00  0.00    +0.000 A 
ATOM      5  C   UNL     1      44.263   7.164  12.019  0.00  0.00    +0.000 A 
ATOM      6  C   UNL     1      45.192   7.854  12.809  0.00  0.00    +0.000 A 
ENDROOT
BRANCH   1   7
ATOM      7  C   UNL     1      47.557   8.276  13.614  0.00  0.00    +0.000 C 
BRANCH   7  10
ATOM      8  C   UNL     1      49.147   6.963  14.983  0.00  0.00    +0.000 C 
ATOM      9  O   UNL     1      50.063   7.147  14.180  0.00  0.00    +0.000 OA
ATOM     10  N   UNL     1      47.899   7.484  14.767  0.00  0.00    +0.000 N 
ATOM     11  H   UNL     1      47.155   7.286  15.420  0.00  0.00    +0.000 HD
BRANCH   8  19
ATOM     12  C   UNL     1      47.461   4.312  16.383  0.00  0.00    +0.000 A 
ATOM     13  N   UNL     1      47.000   3.291  17.130  0.00  0.00    +0.000 NA
ATOM     14  C   UNL     1      47.642   3.009  18.266  0.00  0.00    +0.000 A 
ATOM     15  N   UNL     1      48.708   3.630  18.760  0.00  0.00    +0.000 NA
ATOM     16  C   UNL     1      49.143   4.634  17.978  0.00  0.00    +0.000 A 
ATOM     17  S   UNL     1      50.501   5.537  18.448  0.00  0.00    +0.000 S 
ATOM     18  C   UNL     1      50.398   6.510  17.057  0.00  0.00    +0.000 A 
ATOM     19  C   UNL     1      49.345   6.178  16.214  0.00  0.00    +0.000 A 
ATOM     20  C   UNL     1      48.595   5.050  16.769  0.00  0.00    +0.000 A 
BRANCH  12  22
ATOM     21  C   UNL     1      47.137   3.660  14.162  0.00  0.00    +0.000 C 
ATOM     22  O   UNL     1      46.814   4.585  15.197  0.00  0.00    +0.000 OA
ENDBRANCH  12  22
ENDBRANCH   8  19
ENDBRANCH   7  10
ENDBRANCH   1   7
BRANCH   4  23
ATOM     23  C   UNL     1      43.670   5.389  10.299  0.00  0.00    +0.000 C 
BRANCH  23  24
ATOM     24  N   UNL     1      44.310   4.741   9.154  0.00  0.00    +0.000 NA
ATOM     25  H   UNL     1      45.271   5.075   9.082  0.00  0.00    +0.000 HD
BRANCH  24  26
ATOM     26  C   UNL     1      44.327   3.282   9.275  0.00  0.00    +0.000 C 
BRANCH  26  27
ATOM     27  C   UNL     1      45.426   2.691   8.417  0.00  0.00    +0.000 A 
ATOM     28  C   UNL     1      46.229   3.520   7.612  0.00  0.00    +0.000 A 
ATOM     29  C   UNL     1      47.285   2.991   6.863  0.00  0.00    +0.000 A 
ATOM     30  C   UNL     1      47.543   1.623   6.896  0.00  0.00    +0.000 A 
ATOM     31  C   UNL     1      46.732   0.795   7.665  0.00  0.00    +0.000 A 
ATOM     32  F   UNL     1      46.973  -0.522   7.690  0.00  0.00    +0.000 F 
ATOM     33  C   UNL     1      45.679   1.312   8.417  0.00  0.00    +0.000 A 
ENDBRANCH  26  27
ENDBRANCH  24  26
ENDBRANCH  23  24
ENDBRANCH   4  23
TORSDOF 8
ENDMDL
MODEL 2
REMARK VINA RESULT:    -8.337      1.823      2.198
REMARK INTER + INTRA:         -13.742
REMARK INTER:                 -12.490
REMARK INTRA:                  -1.252
REMARK UNBOUND:                -1.506
REMARK  Name = 
REMARK  9 active torsions:
REMARK  status: ('A' for Active; 'I' for Inactive)
REMARK    1  A    between atoms: C_1  and  O_2
REMARK    2  A    between atoms: O_2  and  C_3
REMARK    3  A    between atoms: C_10  and  C_11
REMARK    4  A    between atoms: N_13  and  C_14
REMARK    5  A    between atoms: C_14  and  C_15
REMARK    6  A    between atoms: C_18  and  C_19
REMARK    7  A    between atoms: C_19  and  N_20
REMARK    8  A    between atoms: N_20  and  C_21
REMARK    9  A    between atoms: C_21  and  C_22
REMARK                            x       y       z     vdW  Elec       q    Type
REMARK                         _______ _______ _______ _____ _____    ______ ____
ROOT
ATOM      1  C   UNL     1      47.178   6.238  12.923  0.00  0.00    +0.000 A 
ATOM      2  C   UNL     1      46.261   5.365  13.522  0.00  0.00    +0.000 A 
ATOM      3  C   UNL     1      45.072   5.014  12.867  0.00  0.00    +0.000 A 
ATOM      4  C   UNL     1      44.777   5.513  11.590  0.00  0.00    +0.000 A 
ATOM      5  C   UNL     1      45.724   6.340  10.968  0.00  0.00    +0.000 A 
ATOM      6  C   UNL     1      46.910   6.694  11.625  0.00  0.00    +0.000 A 
ENDROOT
BRANCH   1   7
ATOM      7  C   UNL     1      48.437   6.656  13.647  0.00  0.00    +0.000 C 
BRANCH   7  10
ATOM      8  C   UNL     1      49.104   6.689  16.029  0.00  0.00    +0.000 C 
ATOM      9  O   UNL     1      50.227   6.252  15.770  0.00  0.00    +0.000 OA
ATOM     10  N   UNL     1      48.182   6.906  15.042  0.00  0.00    +0.000 N 
ATOM     11  H   UNL     1      47.255   7.227  15.283  0.00  0.00    +0.000 HD
BRANCH   8  19
ATOM     12  C   UNL     1      48.893   4.810  18.902  0.00  0.00    +0.000 A 
ATOM     13  N   UNL     1      48.728   4.317  20.145  0.00  0.00    +0.000 NA
ATOM     14  C   UNL     1      48.279   5.145  21.091  0.00  0.00    +0.000 A 
ATOM     15  N   UNL     1      47.970   6.430  20.950  0.00  0.00    +0.000 NA
ATOM     16  C   UNL     1      48.161   6.884  19.699  0.00  0.00    +0.000 A 
ATOM     17  S   UNL     1      47.823   8.507  19.335  0.00  0.00    +0.000 S 
ATOM     18  C   UNL     1      48.281   8.291  17.711  0.00  0.00    +0.000 A 
ATOM     19  C   UNL     1      48.696   6.999  17.411  0.00  0.00    +0.000 A 
ATOM     20  C   UNL     1      48.624   6.159  18.607  0.00  0.00    +0.000 A 
BRANCH  12  22
ATOM     21  C   UNL     1      48.376   3.126  17.366  0.00  0.00    +0.000 C 
ATOM     22  O   UNL     1      49.382   3.961  17.933  0.00  0.00    +0.000 OA
ENDBRANCH  12  22
ENDBRANCH   8  19
ENDBRANCH   7  10
ENDBRANCH   1   7
BRANCH   4  23
ATOM     23  C   UNL     1      43.473   5.161  10.897  0.00  0.00    +0.000 C 
BRANCH  23  24
ATOM     24  N   UNL     1      43.716   4.518   9.605  0.00  0.00    +0.000 NA
ATOM     25  H   UNL     1      44.450   5.030   9.116  0.00  0.00    +0.000 HD
BRANCH  24  26
ATOM     26  C   UNL     1      44.130   3.121   9.746  0.00  0.00    +0.000 C 
BRANCH  26  27
ATOM     27  C   UNL     1      45.196   2.778   8.726  0.00  0.00    +0.000 A 
ATOM     28  C   UNL     1      45.742   3.777   7.899  0.00  0.00    +0.000 A 
ATOM     29  C   UNL     1      46.769   3.481   6.997  0.00  0.00    +0.000 A 
ATOM     30  C   UNL     1      47.253   2.179   6.898  0.00  0.00    +0.000 A 
ATOM     31  C   UNL     1      46.694   1.183   7.690  0.00  0.00    +0.000 A 
ATOM     32  F   UNL     1      47.153  -0.072   7.588  0.00  0.00    +0.000 F 
ATOM     33  C   UNL     1      45.673   1.466   8.594  0.00  0.00    +0.000 A 
ENDBRANCH  26  27
ENDBRANCH  24  26
ENDBRANCH  23  24
ENDBRANCH   4  23
TORSDOF 8
ENDMDL
MODEL 3
REMARK VINA RESULT:    -7.996      2.292      2.819
REMARK INTER + INTRA:         -13.242
REMARK INTER:                 -12.109
REMARK INTRA:                  -1.133
REMARK UNBOUND:                -1.506
REMARK  Name = 
REMARK  9 active torsions:
REMARK  status: ('A' for Active; 'I' for Inactive)
REMARK    1  A    between atoms: C_1  and  O_2
REMARK    2  A    between atoms: O_2  and  C_3
REMARK    3  A    between atoms: C_10  and  C_11
REMARK    4  A    between atoms: N_13  and  C_14
REMARK    5  A    between atoms: C_14  and  C_15
REMARK    6  A    between atoms: C_18  and  C_19
REMARK    7  A    between atoms: C_19  and  N_20
REMARK    8  A    between atoms: N_20  and  C_21
REMARK    9  A    between atoms: C_21  and  C_22
REMARK                            x       y       z     vdW  Elec       q    Type
REMARK                         _______ _______ _______ _____ _____    ______ ____
ROOT
ATOM      1  C   UNL     1      46.964   6.258  12.974  0.00  0.00    +0.000 A 
ATOM      2  C   UNL     1      46.704   6.846  11.729  0.00  0.00    +0.000 A 
ATOM      3  C   UNL     1      45.542   6.523  11.013  0.00  0.00    +0.000 A 
ATOM      4  C   UNL     1      44.603   5.619  11.530  0.00  0.00    +0.000 A 
ATOM      5  C   UNL     1      44.837   5.077  12.802  0.00  0.00    +0.000 A 
ATOM      6  C   UNL     1      46.001   5.395  13.516  0.00  0.00    +0.000 A 
ENDROOT
BRANCH   1   7
ATOM      7  C   UNL     1      48.238   6.566  13.726  0.00  0.00    +0.000 C 
BRANCH   7  10
ATOM      8  C   UNL     1      49.002   6.624  16.079  0.00  0.00    +0.000 C 
ATOM      9  O   UNL     1      49.947   7.364  15.804  0.00  0.00    +0.000 OA
ATOM     10  N   UNL     1      48.131   6.195  15.114  0.00  0.00    +0.000 N 
ATOM     11  H   UNL     1      47.388   5.557  15.357  0.00  0.00    +0.000 HD
BRANCH   8  19
ATOM     12  C   UNL     1      47.806   8.176  18.906  0.00  0.00    +0.000 A 
ATOM     13  N   UNL     1      47.370   8.529  20.130  0.00  0.00    +0.000 NA
ATOM     14  C   UNL     1      47.384   7.602  21.090  0.00  0.00    +0.000 A 
ATOM     15  N   UNL     1      47.785   6.339  20.979  0.00  0.00    +0.000 NA
ATOM     16  C   UNL     1      48.199   6.025  19.739  0.00  0.00    +0.000 A 
ATOM     17  S   UNL     1      48.743   4.452  19.409  0.00  0.00    +0.000 S 
ATOM     18  C   UNL     1      49.055   4.845  17.784  0.00  0.00    +0.000 A 
ATOM     19  C   UNL     1      48.758   6.163  17.458  0.00  0.00    +0.000 A 
ATOM     20  C   UNL     1      48.243   6.867  18.633  0.00  0.00    +0.000 A 
BRANCH  12  22
ATOM     21  C   UNL     1      47.886  10.458  18.405  0.00  0.00    +0.000 C 
ATOM     22  O   UNL     1      47.765   9.127  17.909  0.00  0.00    +0.000 OA
ENDBRANCH  12  22
ENDBRANCH   8  19
ENDBRANCH   7  10
ENDBRANCH   1   7
BRANCH   4  23
ATOM     23  C   UNL     1      43.364   5.243  10.738  0.00  0.00    +0.000 C 
BRANCH  23  24
ATOM     24  N   UNL     1      43.717   4.565   9.491  0.00  0.00    +0.000 NA
ATOM     25  H   UNL     1      44.478   5.077   9.043  0.00  0.00    +0.000 HD
BRANCH  24  26
ATOM     26  C   UNL     1      44.146   3.182   9.707  0.00  0.00    +0.000 C 
BRANCH  26  27
ATOM     27  C   UNL     1      45.222   2.797   8.714  0.00  0.00    +0.000 A 
ATOM     28  C   UNL     1      45.818   3.772   7.892  0.00  0.00    +0.000 A 
ATOM     29  C   UNL     1      46.854   3.437   7.015  0.00  0.00    +0.000 A 
ATOM     30  C   UNL     1      47.300   2.120   6.937  0.00  0.00    +0.000 A 
ATOM     31  C   UNL     1      46.693   1.148   7.725  0.00  0.00    +0.000 A 
ATOM     32  F   UNL     1      47.115  -0.122   7.644  0.00  0.00    +0.000 F 
ATOM     33  C   UNL     1      45.662   1.470   8.604  0.00  0.00    +0.000 A 
ENDBRANCH  26  27
ENDBRANCH  24  26
ENDBRANCH  23  24
ENDBRANCH   4  23
TORSDOF 8
ENDMDL
MODEL 4
REMARK VINA RESULT:    -7.369      1.794      2.163
REMARK INTER + INTRA:         -12.321
REMARK INTER:                 -11.290
REMARK INTRA:                  -1.031
REMARK UNBOUND:                -1.506
REMARK  Name = 
REMARK  9 active torsions:
REMARK  status: ('A' for Active; 'I' for Inactive)
REMARK    1  A    between atoms: C_1  and  O_2
REMARK    2  A    between atoms: O_2  and  C_3
REMARK    3  A    between atoms: C_10  and  C_11
REMARK    4  A    between atoms: N_13  and  C_14
REMARK    5  A    between atoms: C_14  and  C_15
REMARK    6  A    between atoms: C_18  and  C_19
REMARK    7  A    between atoms: C_19  and  N_20
REMARK    8  A    between atoms: N_20  and  C_21
REMARK    9  A    between atoms: C_21  and  C_22
REMARK                            x       y       z     vdW  Elec       q    Type
REMARK                         _______ _______ _______ _____ _____    ______ ____
ROOT
ATOM      1  C   UNL     1      47.581   7.576  13.588  0.00  0.00    +0.000 A 
ATOM      2  C   UNL     1      47.549   6.181  13.465  0.00  0.00    +0.000 A 
ATOM      3  C   UNL     1      46.612   5.556  12.630  0.00  0.00    +0.000 A 
ATOM      4  C   UNL     1      45.694   6.309  11.884  0.00  0.00    +0.000 A 
ATOM      5  C   UNL     1      45.767   7.707  11.964  0.00  0.00    +0.000 A 
ATOM      6  C   UNL     1      46.700   8.332  12.802  0.00  0.00    +0.000 A 
ENDROOT
BRANCH   1   7
ATOM      7  C   UNL     1      48.558   8.250  14.524  0.00  0.00    +0.000 C 
BRANCH   7  10
ATOM      8  C   UNL     1      49.435   6.994  16.467  0.00  0.00    +0.000 C 
ATOM      9  O   UNL     1      48.646   7.543  17.238  0.00  0.00    +0.000 OA
ATOM     10  N   UNL     1      49.447   7.294  15.131  0.00  0.00    +0.000 N 
ATOM     11  H   UNL     1      50.129   6.860  14.527  0.00  0.00    +0.000 HD
BRANCH   8  19
ATOM     12  C   UNL     1      49.348   3.563  16.688  0.00  0.00    +0.000 A 
ATOM     13  N   UNL     1      49.577   2.249  16.874  0.00  0.00    +0.000 NA
ATOM     14  C   UNL     1      50.751   1.886  17.398  0.00  0.00    +0.000 A 
ATOM     15  N   UNL     1      51.746   2.687  17.765  0.00  0.00    +0.000 NA
ATOM     16  C   UNL     1      51.481   3.988  17.551  0.00  0.00    +0.000 A 
ATOM     17  S   UNL     1      52.642   5.159  17.956  0.00  0.00    +0.000 S 
ATOM     18  C   UNL     1      51.630   6.419  17.429  0.00  0.00    +0.000 A 
ATOM     19  C   UNL     1      50.403   5.988  16.939  0.00  0.00    +0.000 A 
ATOM     20  C   UNL     1      50.318   4.529  17.013  0.00  0.00    +0.000 A 
BRANCH  12  22
ATOM     21  C   UNL     1      47.077   3.965  17.063  0.00  0.00    +0.000 C 
ATOM     22  O   UNL     1      48.147   3.933  16.123  0.00  0.00    +0.000 OA
ENDBRANCH  12  22
ENDBRANCH   8  19
ENDBRANCH   7  10
ENDBRANCH   1   7
BRANCH   4  23
ATOM     23  C   UNL     1      44.657   5.630  11.008  0.00  0.00    +0.000 C 
BRANCH  23  24
ATOM     24  N   UNL     1      45.252   5.139   9.765  0.00  0.00    +0.000 NA
ATOM     25  H   UNL     1      46.206   4.832   9.956  0.00  0.00    +0.000 HD
BRANCH  24  26
ATOM     26  C   UNL     1      44.504   4.019   9.191  0.00  0.00    +0.000 C 
BRANCH  26  27
ATOM     27  C   UNL     1      45.410   3.155   8.340  0.00  0.00    +0.000 A 
ATOM     28  C   UNL     1      45.690   1.827   8.713  0.00  0.00    +0.000 A 
ATOM     29  C   UNL     1      46.477   1.003   7.902  0.00  0.00    +0.000 A 
ATOM     30  C   UNL     1      47.007   1.499   6.714  0.00  0.00    +0.000 A 
ATOM     31  C   UNL     1      46.760   2.820   6.357  0.00  0.00    +0.000 A 
ATOM     32  F   UNL     1      47.278   3.301   5.219  0.00  0.00    +0.000 F 
ATOM     33  C   UNL     1      45.975   3.649   7.156  0.00  0.00    +0.000 A 
ENDBRANCH  26  27
ENDBRANCH  24  26
ENDBRANCH  23  24
ENDBRANCH   4  23
TORSDOF 8
ENDMDL
MODEL 5
REMARK VINA RESULT:    -7.334      1.985      2.576
REMARK INTER + INTRA:         -12.269
REMARK INTER:                 -10.840
REMARK INTRA:                  -1.430
REMARK UNBOUND:                -1.506
REMARK  Name = 
REMARK  9 active torsions:
REMARK  status: ('A' for Active; 'I' for Inactive)
REMARK    1  A    between atoms: C_1  and  O_2
REMARK    2  A    between atoms: O_2  and  C_3
REMARK    3  A    between atoms: C_10  and  C_11
REMARK    4  A    between atoms: N_13  and  C_14
REMARK    5  A    between atoms: C_14  and  C_15
REMARK    6  A    between atoms: C_18  and  C_19
REMARK    7  A    between atoms: C_19  and  N_20
REMARK    8  A    between atoms: N_20  and  C_21
REMARK    9  A    between atoms: C_21  and  C_22
REMARK                            x       y       z     vdW  Elec       q    Type
REMARK                         _______ _______ _______ _____ _____    ______ ____
ROOT
ATOM      1  C   UNL     1      45.124   7.017  12.205  0.00  0.00    +0.000 A 
ATOM      2  C   UNL     1      45.744   6.290  11.179  0.00  0.00    +0.000 A 
ATOM      3  C   UNL     1      45.286   5.012  10.830  0.00  0.00    +0.000 A 
ATOM      4  C   UNL     1      44.188   4.435  11.485  0.00  0.00    +0.000 A 
ATOM      5  C   UNL     1      43.534   5.189  12.470  0.00  0.00    +0.000 A 
ATOM      6  C   UNL     1      43.995   6.465  12.822  0.00  0.00    +0.000 A 
ENDROOT
BRANCH   1   7
ATOM      7  C   UNL     1      45.646   8.376  12.615  0.00  0.00    +0.000 C 
BRANCH   7  10
ATOM      8  C   UNL     1      47.973   8.484  13.447  0.00  0.00    +0.000 C 
ATOM      9  O   UNL     1      48.406   8.790  12.335  0.00  0.00    +0.000 OA
ATOM     10  N   UNL     1      46.638   8.265  13.653  0.00  0.00    +0.000 N 
ATOM     11  H   UNL     1      46.313   7.975  14.564  0.00  0.00    +0.000 HD
BRANCH   8  19
ATOM     12  C   UNL     1      48.578   5.908  15.645  0.00  0.00    +0.000 A 
ATOM     13  N   UNL     1      49.001   5.079  16.619  0.00  0.00    +0.000 NA
ATOM     14  C   UNL     1      49.911   5.539  17.480  0.00  0.00    +0.000 A 
ATOM     15  N   UNL     1      50.465   6.748  17.491  0.00  0.00    +0.000 NA
ATOM     16  C   UNL     1      50.025   7.538  16.496  0.00  0.00    +0.000 A 
ATOM     17  S   UNL     1      50.628   9.118  16.349  0.00  0.00    +0.000 S 
ATOM     18  C   UNL     1      49.661   9.416  14.983  0.00  0.00    +0.000 A 
ATOM     19  C   UNL     1      48.867   8.338  14.610  0.00  0.00    +0.000 A 
ATOM     20  C   UNL     1      49.089   7.213  15.519  0.00  0.00    +0.000 A 
BRANCH  12  22
ATOM     21  C   UNL     1      47.177   4.125  15.080  0.00  0.00    +0.000 C 
ATOM     22  O   UNL     1      47.658   5.423  14.741  0.00  0.00    +0.000 OA
ENDBRANCH  12  22
ENDBRANCH   8  19
ENDBRANCH   7  10
ENDBRANCH   1   7
BRANCH   4  23
ATOM     23  C   UNL     1      43.716   3.036  11.131  0.00  0.00    +0.000 C 
BRANCH  23  24
ATOM     24  N   UNL     1      44.762   2.283  10.440  0.00  0.00    +0.000 NA
ATOM     25  H   UNL     1      44.960   1.433  10.970  0.00  0.00    +0.000 HD
BRANCH  24  26
ATOM     26  C   UNL     1      44.376   1.908   9.079  0.00  0.00    +0.000 C 
BRANCH  26  27
ATOM     27  C   UNL     1      45.547   2.065   8.131  0.00  0.00    +0.000 A 
ATOM     28  C   UNL     1      46.517   1.052   8.019  0.00  0.00    +0.000 A 
ATOM     29  C   UNL     1      47.569   1.162   7.104  0.00  0.00    +0.000 A 
ATOM     30  C   UNL     1      47.673   2.293   6.298  0.00  0.00    +0.000 A 
ATOM     31  C   UNL     1      46.734   3.310   6.428  0.00  0.00    +0.000 A 
ATOM     32  F   UNL     1      46.840   4.403   5.659  0.00  0.00    +0.000 F 
ATOM     33  C   UNL     1      45.681   3.211   7.334  0.00  0.00    +0.000 A 
ENDBRANCH  26  27
ENDBRANCH  24  26
ENDBRANCH  23  24
ENDBRANCH   4  23
TORSDOF 8
ENDMDL
MODEL 6
REMARK VINA RESULT:    -7.052      1.887      2.801
REMARK INTER + INTRA:         -11.855
REMARK INTER:                 -11.719
REMARK INTRA:                  -0.136
REMARK UNBOUND:                -1.506
REMARK  Name = 
REMARK  9 active torsions:
REMARK  status: ('A' for Active; 'I' for Inactive)
REMARK    1  A    between atoms: C_1  and  O_2
REMARK    2  A    between atoms: O_2  and  C_3
REMARK    3  A    between atoms: C_10  and  C_11
REMARK    4  A    between atoms: N_13  and  C_14
REMARK    5  A    between atoms: C_14  and  C_15
REMARK    6  A    between atoms: C_18  and  C_19
REMARK    7  A    between atoms: C_19  and  N_20
REMARK    8  A    between atoms: N_20  and  C_21
REMARK    9  A    between atoms: C_21  and  C_22
REMARK                            x       y       z     vdW  Elec       q    Type
REMARK                         _______ _______ _______ _____ _____    ______ ____
ROOT
ATOM      1  C   UNL     1      46.660   6.243  12.884  0.00  0.00    +0.000 A 
ATOM      2  C   UNL     1      46.266   4.920  13.124  0.00  0.00    +0.000 A 
ATOM      3  C   UNL     1      45.338   4.286  12.285  0.00  0.00    +0.000 A 
ATOM      4  C   UNL     1      44.793   4.951  11.178  0.00  0.00    +0.000 A 
ATOM      5  C   UNL     1      45.234   6.254  10.907  0.00  0.00    +0.000 A 
ATOM      6  C   UNL     1      46.158   6.890  11.747  0.00  0.00    +0.000 A 
ENDROOT
BRANCH   1   7
ATOM      7  C   UNL     1      47.624   6.945  13.813  0.00  0.00    +0.000 C 
BRANCH   7  10
ATOM      8  C   UNL     1      48.855   6.401  15.889  0.00  0.00    +0.000 C 
ATOM      9  O   UNL     1      49.734   7.227  15.641  0.00  0.00    +0.000 OA
ATOM     10  N   UNL     1      47.799   6.210  15.040  0.00  0.00    +0.000 N 
ATOM     11  H   UNL     1      47.113   5.499  15.245  0.00  0.00    +0.000 HD
BRANCH   8  19
ATOM     12  C   UNL     1      49.692   7.068  19.158  0.00  0.00    +0.000 A 
ATOM     13  N   UNL     1      49.953   7.059  20.479  0.00  0.00    +0.000 NA
ATOM     14  C   UNL     1      49.806   5.906  21.137  0.00  0.00    +0.000 A 
ATOM     15  N   UNL     1      49.423   4.738  20.631  0.00  0.00    +0.000 NA
ATOM     16  C   UNL     1      49.162   4.795  19.313  0.00  0.00    +0.000 A 
ATOM     17  S   UNL     1      48.653   3.396  18.498  0.00  0.00    +0.000 S 
ATOM     18  C   UNL     1      48.549   4.233  17.021  0.00  0.00    +0.000 A 
ATOM     19  C   UNL     1      48.893   5.576  17.110  0.00  0.00    +0.000 A 
ATOM     20  C   UNL     1      49.259   5.910  18.488  0.00  0.00    +0.000 A 
BRANCH  12  22
ATOM     21  C   UNL     1      50.374   9.300  19.292  0.00  0.00    +0.000 C 
ATOM     22  O   UNL     1      49.818   8.265  18.485  0.00  0.00    +0.000 OA
ENDBRANCH  12  22
ENDBRANCH   8  19
ENDBRANCH   7  10
ENDBRANCH   1   7
BRANCH   4  23
ATOM     23  C   UNL     1      43.761   4.276  10.292  0.00  0.00    +0.000 C 
BRANCH  23  24
ATOM     24  N   UNL     1      44.131   4.372   8.880  0.00  0.00    +0.000 NA
ATOM     25  H   UNL     1      43.661   5.181   8.472  0.00  0.00    +0.000 HD
BRANCH  24  26
ATOM     26  C   UNL     1      45.575   4.522   8.688  0.00  0.00    +0.000 C 
BRANCH  26  27
ATOM     27  C   UNL     1      46.124   3.371   7.871  0.00  0.00    +0.000 A 
ATOM     28  C   UNL     1      46.765   3.610   6.641  0.00  0.00    +0.000 A 
ATOM     29  C   UNL     1      47.328   2.560   5.908  0.00  0.00    +0.000 A 
ATOM     30  C   UNL     1      47.246   1.256   6.388  0.00  0.00    +0.000 A 
ATOM     31  C   UNL     1      46.587   1.011   7.588  0.00  0.00    +0.000 A 
ATOM     32  F   UNL     1      46.500  -0.245   8.046  0.00  0.00    +0.000 F 
ATOM     33  C   UNL     1      46.024   2.049   8.327  0.00  0.00    +0.000 A 
ENDBRANCH  26  27
ENDBRANCH  24  26
ENDBRANCH  23  24
ENDBRANCH   4  23
TORSDOF 8
ENDMDL
MODEL 7
REMARK VINA RESULT:    -6.697      2.144      3.227
REMARK INTER + INTRA:         -11.335
REMARK INTER:                 -10.688
REMARK INTRA:                  -0.647
REMARK UNBOUND:                -1.506
REMARK  Name = 
REMARK  9 active torsions:
REMARK  status: ('A' for Active; 'I' for Inactive)
REMARK    1  A    between atoms: C_1  and  O_2
REMARK    2  A    between atoms: O_2  and  C_3
REMARK    3  A    between atoms: C_10  and  C_11
REMARK    4  A    between atoms: N_13  and  C_14
REMARK    5  A    between atoms: C_14  and  C_15
REMARK    6  A    between atoms: C_18  and  C_19
REMARK    7  A    between atoms: C_19  and  N_20
REMARK    8  A    between atoms: N_20  and  C_21
REMARK    9  A    between atoms: C_21  and  C_22
REMARK                            x       y       z     vdW  Elec       q    Type
REMARK                         _______ _______ _______ _____ _____    ______ ____
ROOT
ATOM      1  C   UNL     1      46.081   5.146  13.747  0.00  0.00    +0.000 A 
ATOM      2  C   UNL     1      46.487   3.858  13.371  0.00  0.00    +0.000 A 
ATOM      3  C   UNL     1      45.747   3.118  12.439  0.00  0.00    +0.000 A 
ATOM      4  C   UNL     1      44.593   3.651  11.846  0.00  0.00    +0.000 A 
ATOM      5  C   UNL     1      44.223   4.961  12.180  0.00  0.00    +0.000 A 
ATOM      6  C   UNL     1      44.960   5.700  13.116  0.00  0.00    +0.000 A 
ENDROOT
BRANCH   1   7
ATOM      7  C   UNL     1      46.850   5.928  14.787  0.00  0.00    +0.000 C 
BRANCH   7  10
ATOM      8  C   UNL     1      47.974   4.623  16.564  0.00  0.00    +0.000 C 
ATOM      9  O   UNL     1      47.025   4.768  17.337  0.00  0.00    +0.000 OA
ATOM     10  N   UNL     1      47.955   5.164  15.307  0.00  0.00    +0.000 N 
ATOM     11  H   UNL     1      48.761   5.065  14.707  0.00  0.00    +0.000 HD
BRANCH   8  19
ATOM     12  C   UNL     1      51.029   5.534  17.853  0.00  0.00    +0.000 A 
ATOM     13  N   UNL     1      52.277   5.613  18.354  0.00  0.00    +0.000 NA
ATOM     14  C   UNL     1      52.970   4.480  18.489  0.00  0.00    +0.000 A 
ATOM     15  N   UNL     1      52.565   3.252  18.180  0.00  0.00    +0.000 NA
ATOM     16  C   UNL     1      51.311   3.216  17.696  0.00  0.00    +0.000 A 
ATOM     17  S   UNL     1      50.624   1.729  17.253  0.00  0.00    +0.000 S 
ATOM     18  C   UNL     1      49.172   2.480  16.784  0.00  0.00    +0.000 A 
ATOM     19  C   UNL     1      49.174   3.860  16.951  0.00  0.00    +0.000 A 
ATOM     20  C   UNL     1      50.459   4.298  17.499  0.00  0.00    +0.000 A 
BRANCH  12  22
ATOM     21  C   UNL     1      50.499   7.584  18.842  0.00  0.00    +0.000 C 
ATOM     22  O   UNL     1      50.306   6.701  17.740  0.00  0.00    +0.000 OA
ENDBRANCH  12  22
ENDBRANCH   8  19
ENDBRANCH   7  10
ENDBRANCH   1   7
BRANCH   4  23
ATOM     23  C   UNL     1      43.772   2.834  10.864  0.00  0.00    +0.000 C 
BRANCH  23  24
ATOM     24  N   UNL     1      43.786   3.437   9.531  0.00  0.00    +0.000 NA
ATOM     25  H   UNL     1      43.079   4.172   9.495  0.00  0.00    +0.000 HD
BRANCH  24  26
ATOM     26  C   UNL     1      45.087   4.020   9.195  0.00  0.00    +0.000 C 
BRANCH  26  27
ATOM     27  C   UNL     1      45.838   3.125   8.231  0.00  0.00    +0.000 A 
ATOM     28  C   UNL     1      46.462   3.666   7.092  0.00  0.00    +0.000 A 
ATOM     29  C   UNL     1      47.208   2.857   6.229  0.00  0.00    +0.000 A 
ATOM     30  C   UNL     1      47.328   1.494   6.485  0.00  0.00    +0.000 A 
ATOM     31  C   UNL     1      46.687   0.950   7.592  0.00  0.00    +0.000 A 
ATOM     32  F   UNL     1      46.794  -0.364   7.834  0.00  0.00    +0.000 F 
ATOM     33  C   UNL     1      45.943   1.746   8.460  0.00  0.00    +0.000 A 
ENDBRANCH  26  27
ENDBRANCH  24  26
ENDBRANCH  23  24
ENDBRANCH   4  23
TORSDOF 8
ENDMDL
MODEL 8
REMARK VINA RESULT:    -6.690      1.906      3.415
REMARK INTER + INTRA:         -11.325
REMARK INTER:                 -10.134
REMARK INTRA:                  -1.191
REMARK UNBOUND:                -1.506
REMARK  Name = 
REMARK  9 active torsions:
REMARK  status: ('A' for Active; 'I' for Inactive)
REMARK    1  A    between atoms: C_1  and  O_2
REMARK    2  A    between atoms: O_2  and  C_3
REMARK    3  A    between atoms: C_10  and  C_11
REMARK    4  A    between atoms: N_13  and  C_14
REMARK    5  A    between atoms: C_14  and  C_15
REMARK    6  A    between atoms: C_18  and  C_19
REMARK    7  A    between atoms: C_19  and  N_20
REMARK    8  A    between atoms: N_20  and  C_21
REMARK    9  A    between atoms: C_21  and  C_22
REMARK                            x       y       z     vdW  Elec       q    Type
REMARK                         _______ _______ _______ _____ _____    ______ ____
ROOT
ATOM      1  C   UNL     1      46.283   4.887  13.980  0.00  0.00    +0.000 A 
ATOM      2  C   UNL     1      45.408   3.990  13.354  0.00  0.00    +0.000 A 
ATOM      3  C   UNL     1      44.869   4.278  12.091  0.00  0.00    +0.000 A 
ATOM      4  C   UNL     1      45.203   5.461  11.417  0.00  0.00    +0.000 A 
ATOM      5  C   UNL     1      46.124   6.329  12.021  0.00  0.00    +0.000 A 
ATOM      6  C   UNL     1      46.659   6.043  13.284  0.00  0.00    +0.000 A 
ENDROOT
BRANCH   1   7
ATOM      7  C   UNL     1      46.828   4.601  15.361  0.00  0.00    +0.000 C 
BRANCH   7  10
ATOM      8  C   UNL     1      48.806   5.217  16.713  0.00  0.00    +0.000 C 
ATOM      9  O   UNL     1      48.242   4.910  17.764  0.00  0.00    +0.000 OA
ATOM     10  N   UNL     1      48.173   5.094  15.506  0.00  0.00    +0.000 N 
ATOM     11  H   UNL     1      48.642   5.390  14.662  0.00  0.00    +0.000 HD
BRANCH   8  19
ATOM     12  C   UNL     1      50.355   7.764  14.997  0.00  0.00    +0.000 A 
ATOM     13  N   UNL     1      51.189   8.682  14.472  0.00  0.00    +0.000 NA
ATOM     14  C   UNL     1      52.465   8.666  14.866  0.00  0.00    +0.000 A 
ATOM     15  N   UNL     1      53.024   7.831  15.737  0.00  0.00    +0.000 NA
ATOM     16  C   UNL     1      52.154   6.940  16.245  0.00  0.00    +0.000 A 
ATOM     17  S   UNL     1      52.691   5.797  17.379  0.00  0.00    +0.000 S 
ATOM     18  C   UNL     1      51.138   5.116  17.505  0.00  0.00    +0.000 A 
ATOM     19  C   UNL     1      50.187   5.732  16.700  0.00  0.00    +0.000 A 
ATOM     20  C   UNL     1      50.801   6.826  15.946  0.00  0.00    +0.000 A 
BRANCH  12  22
ATOM     21  C   UNL     1      48.286   8.814  15.275  0.00  0.00    +0.000 C 
ATOM     22  O   UNL     1      49.033   7.799  14.610  0.00  0.00    +0.000 OA
ENDBRANCH  12  22
ENDBRANCH   8  19
ENDBRANCH   7  10
ENDBRANCH   1   7
BRANCH   4  23
ATOM     23  C   UNL     1      44.591   5.789  10.067  0.00  0.00    +0.000 C 
BRANCH  23  24
ATOM     24  N   UNL     1      45.344   5.166   8.978  0.00  0.00    +0.000 NA
ATOM     25  H   UNL     1      46.283   4.948   9.311  0.00  0.00    +0.000 HD
BRANCH  24  26
ATOM     26  C   UNL     1      44.717   3.932   8.499  0.00  0.00    +0.000 C 
BRANCH  26  27
ATOM     27  C   UNL     1      45.753   3.010   7.892  0.00  0.00    +0.000 A 
ATOM     28  C   UNL     1      46.759   3.521   7.051  0.00  0.00    +0.000 A 
ATOM     29  C   UNL     1      47.756   2.687   6.534  0.00  0.00    +0.000 A 
ATOM     30  C   UNL     1      47.752   1.329   6.840  0.00  0.00    +0.000 A 
ATOM     31  C   UNL     1      46.743   0.814   7.645  0.00  0.00    +0.000 A 
ATOM     32  F   UNL     1      46.733  -0.495   7.932  0.00  0.00    +0.000 F 
ATOM     33  C   UNL     1      45.746   1.636   8.168  0.00  0.00    +0.000 A 
ENDBRANCH  26  27
ENDBRANCH  24  26
ENDBRANCH  23  24
ENDBRANCH   4  23
TORSDOF 8
ENDMDL
MODEL 9
REMARK VINA RESULT:    -6.589      1.968      2.567
REMARK INTER + INTRA:         -11.176
REMARK INTER:                  -9.809
REMARK INTRA:                  -1.368
REMARK UNBOUND:                -1.506
REMARK  Name = 
REMARK  9 active torsions:
REMARK  status: ('A' for Active; 'I' for Inactive)
REMARK    1  A    between atoms: C_1  and  O_2
REMARK    2  A    between atoms: O_2  and  C_3
REMARK    3  A    between atoms: C_10  and  C_11
REMARK    4  A    between atoms: N_13  and  C_14
REMARK    5  A    between atoms: C_14  and  C_15
REMARK    6  A    between atoms: C_18  and  C_19
REMARK    7  A    between atoms: C_19  and  N_20
REMARK    8  A    between atoms: N_20  and  C_21
REMARK    9  A    between atoms: C_21  and  C_22
REMARK                            x       y       z     vdW  Elec       q    Type
REMARK                         _______ _______ _______ _____ _____    ______ ____
ROOT
ATOM      1  C   UNL     1      47.928   8.553  12.498  0.00  0.00    +0.000 A 
ATOM      2  C   UNL     1      48.121   7.386  11.746  0.00  0.00    +0.000 A 
ATOM      3  C   UNL     1      47.044   6.538  11.452  0.00  0.00    +0.000 A 
ATOM      4  C   UNL     1      45.746   6.842  11.887  0.00  0.00    +0.000 A 
ATOM      5  C   UNL     1      45.547   8.039  12.589  0.00  0.00    +0.000 A 
ATOM      6  C   UNL     1      46.624   8.885  12.887  0.00  0.00    +0.000 A 
ENDROOT
BRANCH   1   7
ATOM      7  C   UNL     1      49.095   9.445  12.858  0.00  0.00    +0.000 C 
BRANCH   7  10
ATOM      8  C   UNL     1      51.082   9.047  14.277  0.00  0.00    +0.000 C 
ATOM      9  O   UNL     1      51.847   9.454  13.402  0.00  0.00    +0.000 OA
ATOM     10  N   UNL     1      49.729   9.013  14.077  0.00  0.00    +0.000 N 
ATOM     11  H   UNL     1      49.125   8.638  14.794  0.00  0.00    +0.000 HD
BRANCH   8  19
ATOM     12  C   UNL     1      50.251   6.393  16.301  0.00  0.00    +0.000 A 
ATOM     13  N   UNL     1      50.131   5.454  17.259  0.00  0.00    +0.000 NA
ATOM     14  C   UNL     1      50.922   5.549  18.330  0.00  0.00    +0.000 A 
ATOM     15  N   UNL     1      51.838   6.483  18.570  0.00  0.00    +0.000 NA
ATOM     16  C   UNL     1      51.934   7.392  17.584  0.00  0.00    +0.000 A 
ATOM     17  S   UNL     1      53.057   8.658  17.715  0.00  0.00    +0.000 S 
ATOM     18  C   UNL     1      52.588   9.298  16.212  0.00  0.00    +0.000 A 
ATOM     19  C   UNL     1      51.581   8.577  15.582  0.00  0.00    +0.000 A 
ATOM     20  C   UNL     1      51.192   7.433  16.408  0.00  0.00    +0.000 A 
BRANCH  12  22
ATOM     21  C   UNL     1      48.104   5.939  15.496  0.00  0.00    +0.000 C 
ATOM     22  O   UNL     1      49.453   6.278  15.184  0.00  0.00    +0.000 OA
ENDBRANCH  12  22
ENDBRANCH   8  19
ENDBRANCH   7  10
ENDBRANCH   1   7
BRANCH   4  23
ATOM     23  C   UNL     1      44.587   5.904  11.599  0.00  0.00    +0.000 C 
BRANCH  23  24
ATOM     24  N   UNL     1      44.537   5.544  10.182  0.00  0.00    +0.000 NA
ATOM     25  H   UNL     1      45.460   5.688   9.773  0.00  0.00    +0.000 HD
BRANCH  24  26
ATOM     26  C   UNL     1      44.143   4.149   9.973  0.00  0.00    +0.000 C 
BRANCH  26  27
ATOM     27  C   UNL     1      45.074   3.477   8.985  0.00  0.00    +0.000 A 
ATOM     28  C   UNL     1      45.832   4.243   8.081  0.00  0.00    +0.000 A 
ATOM     29  C   UNL     1      46.738   3.636   7.206  0.00  0.00    +0.000 A 
ATOM     30  C   UNL     1      46.889   2.252   7.214  0.00  0.00    +0.000 A 
ATOM     31  C   UNL     1      46.120   1.487   8.084  0.00  0.00    +0.000 A 
ATOM     32  F   UNL     1      46.258   0.155   8.086  0.00  0.00    +0.000 F 
ATOM     33  C   UNL     1      45.216   2.082   8.962  0.00  0.00    +0.000 A 
ENDBRANCH  26  27
ENDBRANCH  24  26
ENDBRANCH  23  24
ENDBRANCH   4  23
TORSDOF 8
ENDMDL
