MODEL 1
REMARK VINA RESULT:    -6.635      0.000      0.000
REMARK INTER + INTRA:          -8.873
REMARK INTER:                  -9.157
REMARK INTRA:                   0.283
REMARK UNBOUND:                 0.283
REMARK  Name = 
REMARK  8 active torsions:
REMARK  status: ('A' for Active; 'I' for Inactive)
REMARK    1  A    between atoms: N_1  and  C_2
REMARK    2  A    between atoms: C_2  and  C_3
REMARK    3  A    between atoms: C_3  and  C_4
REMARK    4  A    between atoms: C_9  and  C_10
REMARK    5  A    between atoms: C_10  and  C_11
REMARK    6  A    between atoms: C_11  and  O_12
REMARK    7  A    between atoms: C_11  and  C_13
REMARK    8  A    between atoms: C_13  and  O_14
REMARK                            x       y       z     vdW  Elec       q    Type
REMARK                         _______ _______ _______ _____ _____    ______ ____
ROOT
ATOM      1  C   UNL     1      43.823   4.480  11.521  0.00  0.00    +0.000 A 
ATOM      2  C   UNL     1      43.450   3.172  11.244  0.00  0.00    +0.000 A 
ATOM      3  N   UNL     1      43.920   2.491  10.172  0.00  0.00    +0.000 NA
ATOM      4  C   UNL     1      44.773   3.149   9.366  0.00  0.00    +0.000 A 
ATOM      5  C   UNL     1      45.236   2.522   8.220  0.00  0.00    +0.000 A 
ATOM      6  C   UNL     1      46.057   3.210   7.335  0.00  0.00    +0.000 A 
ATOM      7  N   UNL     1      46.487   4.464   7.584  0.00  0.00    +0.000 NA
ATOM      8  C   UNL     1      46.039   5.045   8.729  0.00  0.00    +0.000 A 
ATOM      9  C   UNL     1      45.169   4.470   9.642  0.00  0.00    +0.000 A 
ATOM     10  N   UNL     1      44.699   5.143  10.725  0.00  0.00    +0.000 NA
ENDROOT
BRANCH   1  11
ATOM     11  C   UNL     1      43.213   5.224  12.678  0.00  0.00    +0.000 C 
BRANCH  11  12
ATOM     12  C   UNL     1      42.120   6.181  12.194  0.00  0.00    +0.000 C 
BRANCH  12  13
ATOM     13  N   UNL     1      42.645   7.132  11.215  0.00  0.00    +0.000 NA
ATOM     14  H   UNL     1      43.650   7.240  11.359  0.00  0.00    +0.000 HD
ATOM     15  H   UNL     1      42.242   8.053  11.386  0.00  0.00    +0.000 HD
ENDBRANCH  12  13
ENDBRANCH  11  12
ENDBRANCH   1  11
BRANCH   6  16
ATOM     16  C   UNL     1      46.414   2.601   6.002  0.00  0.00    +0.000 C 
BRANCH  16  17
ATOM     17  C   UNL     1      47.376   1.416   6.094  0.00  0.00    +0.000 C 
BRANCH  17  18
ATOM     18  O   UNL     1      48.700   1.816   5.716  0.00  0.00    +0.000 OA
ATOM     19  H   UNL     1      49.334   1.396   6.323  0.00  0.00    +0.000 HD
ENDBRANCH  17  18
BRANCH  17  20
ATOM     20  C   UNL     1      47.397   0.875   7.537  0.00  0.00    +0.000 C 
BRANCH  20  21
ATOM     21  O   UNL     1      46.884  -0.452   7.614  0.00  0.00    +0.000 OA
ATOM     22  H   UNL     1      46.784  -0.681   8.555  0.00  0.00    +0.000 HD
ENDBRANCH  20  21
ENDBRANCH  17  20
ENDBRANCH  16  17
ENDBRANCH   6  16
TORSDOF 8
ENDMDL
MODEL 2
REMARK VINA RESULT:    -6.488      3.297      6.221
REMARK INTER + INTRA:          -8.670
REMARK INTER:                  -8.367
REMARK INTRA:                  -0.302
REMARK UNBOUND:                 0.283
REMARK  Name = 
REMARK  8 active torsions:
REMARK  status: ('A' for Active; 'I' for Inactive)
REMARK    1  A    between atoms: N_1  and  C_2
REMARK    2  A    between atoms: C_2  and  C_3
REMARK    3  A    between atoms: C_3  and  C_4
REMARK    4  A    between atoms: C_9  and  C_10
REMARK    5  A    between atoms: C_10  and  C_11
REMARK    6  A    between atoms: C_11  and  O_12
REMARK    7  A    between atoms: C_11  and  C_13
REMARK    8  A    between atoms: C_13  and  O_14
REMARK                            x       y       z     vdW  Elec       q    Type
REMARK                         _______ _______ _______ _____ _____    ______ ____
ROOT
ATOM      1  C   UNL     1      46.028   3.047   7.158  0.00  0.00    +0.000 A 
ATOM      2  C   UNL     1      45.629   1.944   7.899  0.00  0.00    +0.000 A 
ATOM      3  N   UNL     1      45.242   2.036   9.193  0.00  0.00    +0.000 NA
ATOM      4  C   UNL     1      45.270   3.262   9.745  0.00  0.00    +0.000 A 
ATOM      5  C   UNL     1      44.945   3.405  11.085  0.00  0.00    +0.000 A 
ATOM      6  C   UNL     1      45.040   4.651  11.694  0.00  0.00    +0.000 A 
ATOM      7  N   UNL     1      45.375   5.761  11.006  0.00  0.00    +0.000 NA
ATOM      8  C   UNL     1      45.663   5.596   9.687  0.00  0.00    +0.000 A 
ATOM      9  C   UNL     1      45.661   4.390   9.003  0.00  0.00    +0.000 A 
ATOM     10  N   UNL     1      46.038   4.291   7.701  0.00  0.00    +0.000 NA
ENDROOT
BRANCH   1  11
ATOM     11  C   UNL     1      46.526   2.885   5.748  0.00  0.00    +0.000 C 
BRANCH  11  12
ATOM     12  C   UNL     1      47.845   2.108   5.721  0.00  0.00    +0.000 C 
BRANCH  12  13
ATOM     13  N   UNL     1      48.872   2.781   6.515  0.00  0.00    +0.000 NA
ATOM     14  H   UNL     1      49.770   2.706   6.034  0.00  0.00    +0.000 HD
ATOM     15  H   UNL     1      48.993   2.291   7.402  0.00  0.00    +0.000 HD
ENDBRANCH  12  13
ENDBRANCH  11  12
ENDBRANCH   1  11
BRANCH   6  16
ATOM     16  C   UNL     1      44.867   4.779  13.187  0.00  0.00    +0.000 C 
BRANCH  16  17
ATOM     17  C   UNL     1      46.161   4.605  13.984  0.00  0.00    +0.000 C 
BRANCH  17  18
ATOM     18  O   UNL     1      46.750   3.327  13.710  0.00  0.00    +0.000 OA
ATOM     19  H   UNL     1      46.446   2.697  14.386  0.00  0.00    +0.000 HD
ENDBRANCH  17  18
BRANCH  17  20
ATOM     20  C   UNL     1      47.157   5.720  13.607  0.00  0.00    +0.000 C 
BRANCH  20  21
ATOM     21  O   UNL     1      46.548   7.007  13.630  0.00  0.00    +0.000 OA
ATOM     22  H   UNL     1      47.130   7.607  14.130  0.00  0.00    +0.000 HD
ENDBRANCH  20  21
ENDBRANCH  17  20
ENDBRANCH  16  17
ENDBRANCH   6  16
TORSDOF 8
ENDMDL
MODEL 3
REMARK VINA RESULT:    -6.409      3.939      5.223
REMARK INTER + INTRA:          -8.562
REMARK INTER:                  -7.917
REMARK INTRA:                  -0.645
REMARK UNBOUND:                 0.283
REMARK  Name = 
REMARK  8 active torsions:
REMARK  status: ('A' for Active; 'I' for Inactive)
REMARK    1  A    between atoms: N_1  and  C_2
REMARK    2  A    between atoms: C_2  and  C_3
REMARK    3  A    between atoms: C_3  and  C_4
REMARK    4  A    between atoms: C_9  and  C_10
REMARK    5  A    between atoms: C_10  and  C_11
REMARK    6  A    between atoms: C_11  and  O_12
REMARK    7  A    between atoms: C_11  and  C_13
REMARK    8  A    between atoms: C_13  and  O_14
REMARK                            x       y       z     vdW  Elec       q    Type
REMARK                         _______ _______ _______ _____ _____    ______ ____
ROOT
ATOM      1  C   UNL     1      47.363   5.095  15.162  0.00  0.00    +0.000 A 
ATOM      2  C   UNL     1      47.893   6.108  14.376  0.00  0.00    +0.000 A 
ATOM      3  N   UNL     1      47.517   6.305  13.091  0.00  0.00    +0.000 NA
ATOM      4  C   UNL     1      46.598   5.457  12.594  0.00  0.00    +0.000 A 
ATOM      5  C   UNL     1      46.223   5.573  11.265  0.00  0.00    +0.000 A 
ATOM      6  C   UNL     1      45.333   4.660  10.712  0.00  0.00    +0.000 A 
ATOM      7  N   UNL     1      44.753   3.689  11.447  0.00  0.00    +0.000 NA
ATOM      8  C   UNL     1      45.119   3.615  12.754  0.00  0.00    +0.000 A 
ATOM      9  C   UNL     1      46.045   4.434  13.384  0.00  0.00    +0.000 A 
ATOM     10  N   UNL     1      46.421   4.249  14.677  0.00  0.00    +0.000 NA
ENDROOT
BRANCH   1  11
ATOM     11  C   UNL     1      47.871   4.863  16.560  0.00  0.00    +0.000 C 
BRANCH  11  12
ATOM     12  C   UNL     1      47.857   3.372  16.905  0.00  0.00    +0.000 C 
BRANCH  12  13
ATOM     13  N   UNL     1      46.632   3.004  17.615  0.00  0.00    +0.000 NA
ATOM     14  H   UNL     1      46.528   1.989  17.598  0.00  0.00    +0.000 HD
ATOM     15  H   UNL     1      45.824   3.372  17.112  0.00  0.00    +0.000 HD
ENDBRANCH  12  13
ENDBRANCH  11  12
ENDBRANCH   1  11
BRANCH   6  16
ATOM     16  C   UNL     1      45.063   4.669   9.228  0.00  0.00    +0.000 C 
BRANCH  16  17
ATOM     17  C   UNL     1      45.358   3.339   8.531  0.00  0.00    +0.000 C 
BRANCH  17  18
ATOM     18  O   UNL     1      44.171   2.538   8.457  0.00  0.00    +0.000 OA
ATOM     19  H   UNL     1      44.177   1.910   9.200  0.00  0.00    +0.000 HD
ENDBRANCH  17  18
BRANCH  17  20
ATOM     20  C   UNL     1      45.887   3.605   7.108  0.00  0.00    +0.000 C 
BRANCH  20  21
ATOM     21  O   UNL     1      47.069   4.398   7.119  0.00  0.00    +0.000 OA
ATOM     22  H   UNL     1      46.809   5.328   6.992  0.00  0.00    +0.000 HD
ENDBRANCH  20  21
ENDBRANCH  17  20
ENDBRANCH  16  17
ENDBRANCH   6  16
TORSDOF 8
ENDMDL
MODEL 4
REMARK VINA RESULT:    -6.402      4.810      6.812
REMARK INTER + INTRA:          -8.551
REMARK INTER:                  -8.069
REMARK INTRA:                  -0.482
REMARK UNBOUND:                 0.283
REMARK  Name = 
REMARK  8 active torsions:
REMARK  status: ('A' for Active; 'I' for Inactive)
REMARK    1  A    between atoms: N_1  and  C_2
REMARK    2  A    between atoms: C_2  and  C_3
REMARK    3  A    between atoms: C_3  and  C_4
REMARK    4  A    between atoms: C_9  and  C_10
REMARK    5  A    between atoms: C_10  and  C_11
REMARK    6  A    between atoms: C_11  and  O_12
REMARK    7  A    between atoms: C_11  and  C_13
REMARK    8  A    between atoms: C_13  and  O_14
REMARK                            x       y       z     vdW  Elec       q    Type
REMARK                         _______ _______ _______ _____ _____    ______ ____
ROOT
ATOM      1  C   UNL     1      44.819   4.303  10.251  0.00  0.00    +0.000 A 
ATOM      2  C   UNL     1      44.609   3.271  11.154  0.00  0.00    +0.000 A 
ATOM      3  N   UNL     1      45.106   3.292  12.413  0.00  0.00    +0.000 NA
ATOM      4  C   UNL     1      45.835   4.369  12.756  0.00  0.00    +0.000 A 
ATOM      5  C   UNL     1      46.421   4.414  14.011  0.00  0.00    +0.000 A 
ATOM      6  C   UNL     1      47.240   5.482  14.358  0.00  0.00    +0.000 A 
ATOM      7  N   UNL     1      47.435   6.532  13.534  0.00  0.00    +0.000 NA
ATOM      8  C   UNL     1      46.826   6.474  12.320  0.00  0.00    +0.000 A 
ATOM      9  C   UNL     1      46.046   5.427  11.854  0.00  0.00    +0.000 A 
ATOM     10  N   UNL     1      45.535   5.403  10.595  0.00  0.00    +0.000 NA
ENDROOT
BRANCH   1  11
ATOM     11  C   UNL     1      44.315   4.199   8.837  0.00  0.00    +0.000 C 
BRANCH  11  12
ATOM     12  C   UNL     1      45.348   3.514   7.938  0.00  0.00    +0.000 C 
BRANCH  12  13
ATOM     13  N   UNL     1      46.463   4.412   7.634  0.00  0.00    +0.000 NA
ATOM     14  H   UNL     1      47.342   3.928   7.820  0.00  0.00    +0.000 HD
ATOM     15  H   UNL     1      46.445   5.206   8.274  0.00  0.00    +0.000 HD
ENDBRANCH  12  13
ENDBRANCH  11  12
ENDBRANCH   1  11
BRANCH   6  16
ATOM     16  C   UNL     1      48.025   5.449  15.646  0.00  0.00    +0.000 C 
BRANCH  16  17
ATOM     17  C   UNL     1      48.066   4.075  16.317  0.00  0.00    +0.000 C 
BRANCH  17  18
ATOM     18  O   UNL     1      49.406   3.750  16.710  0.00  0.00    +0.000 OA
ATOM     19  H   UNL     1      49.958   4.544  16.607  0.00  0.00    +0.000 HD
ENDBRANCH  17  18
BRANCH  17  20
ATOM     20  C   UNL     1      47.154   4.077  17.560  0.00  0.00    +0.000 C 
BRANCH  20  21
ATOM     21  O   UNL     1      46.473   2.837  17.722  0.00  0.00    +0.000 OA
ATOM     22  H   UNL     1      47.079   2.124  17.454  0.00  0.00    +0.000 HD
ENDBRANCH  20  21
ENDBRANCH  17  20
ENDBRANCH  16  17
ENDBRANCH   6  16
TORSDOF 8
ENDMDL
MODEL 5
REMARK VINA RESULT:    -6.214      4.619      5.658
REMARK INTER + INTRA:          -8.292
REMARK INTER:                  -7.508
REMARK INTRA:                  -0.784
REMARK UNBOUND:                 0.283
REMARK  Name = 
REMARK  8 active torsions:
REMARK  status: ('A' for Active; 'I' for Inactive)
REMARK    1  A    between atoms: N_1  and  C_2
REMARK    2  A    between atoms: C_2  and  C_3
REMARK    3  A    between atoms: C_3  and  C_4
REMARK    4  A    between atoms: C_9  and  C_10
REMARK    5  A    between atoms: C_10  and  C_11
REMARK    6  A    between atoms: C_11  and  O_12
REMARK    7  A    between atoms: C_11  and  C_13
REMARK    8  A    between atoms: C_13  and  O_14
REMARK                            x       y       z     vdW  Elec       q    Type
REMARK                         _______ _______ _______ _____ _____    ______ ____
ROOT
ATOM      1  C   UNL     1      48.276   5.451  15.533  0.00  0.00    +0.000 A 
ATOM      2  C   UNL     1      47.385   4.423  15.804  0.00  0.00    +0.000 A 
ATOM      3  N   UNL     1      46.426   4.039  14.930  0.00  0.00    +0.000 NA
ATOM      4  C   UNL     1      46.363   4.715  13.769  0.00  0.00    +0.000 A 
ATOM      5  C   UNL     1      45.361   4.406  12.862  0.00  0.00    +0.000 A 
ATOM      6  C   UNL     1      45.232   5.142  11.691  0.00  0.00    +0.000 A 
ATOM      7  N   UNL     1      46.102   6.118  11.359  0.00  0.00    +0.000 NA
ATOM      8  C   UNL     1      47.092   6.381  12.253  0.00  0.00    +0.000 A 
ATOM      9  C   UNL     1      47.268   5.751  13.475  0.00  0.00    +0.000 A 
ATOM     10  N   UNL     1      48.235   6.123  14.355  0.00  0.00    +0.000 NA
ENDROOT
BRANCH   1  11
ATOM     11  C   UNL     1      49.273   5.896  16.568  0.00  0.00    +0.000 C 
BRANCH  11  12
ATOM     12  C   UNL     1      48.669   6.962  17.485  0.00  0.00    +0.000 C 
BRANCH  12  13
ATOM     13  N   UNL     1      48.219   8.125  16.719  0.00  0.00    +0.000 NA
ATOM     14  H   UNL     1      48.104   7.857  15.741  0.00  0.00    +0.000 HD
ATOM     15  H   UNL     1      48.947   8.839  16.726  0.00  0.00    +0.000 HD
ENDBRANCH  12  13
ENDBRANCH  11  12
ENDBRANCH   1  11
BRANCH   6  16
ATOM     16  C   UNL     1      44.038   4.935  10.793  0.00  0.00    +0.000 C 
BRANCH  16  17
ATOM     17  C   UNL     1      44.377   4.318   9.435  0.00  0.00    +0.000 C 
BRANCH  17  18
ATOM     18  O   UNL     1      45.424   5.061   8.795  0.00  0.00    +0.000 OA
ATOM     19  H   UNL     1      46.084   5.304   9.467  0.00  0.00    +0.000 HD
ENDBRANCH  17  18
BRANCH  17  20
ATOM     20  C   UNL     1      44.829   2.857   9.626  0.00  0.00    +0.000 C 
BRANCH  20  21
ATOM     21  O   UNL     1      43.895   2.108  10.396  0.00  0.00    +0.000 OA
ATOM     22  H   UNL     1      43.852   2.503  11.285  0.00  0.00    +0.000 HD
ENDBRANCH  20  21
ENDBRANCH  17  20
ENDBRANCH  16  17
ENDBRANCH   6  16
TORSDOF 8
ENDMDL
MODEL 6
REMARK VINA RESULT:    -6.199      4.342      5.680
REMARK INTER + INTRA:          -8.271
REMARK INTER:                  -7.724
REMARK INTRA:                  -0.547
REMARK UNBOUND:                 0.283
REMARK  Name = 
REMARK  8 active torsions:
REMARK  status: ('A' for Active; 'I' for Inactive)
REMARK    1  A    between atoms: N_1  and  C_2
REMARK    2  A    between atoms: C_2  and  C_3
REMARK    3  A    between atoms: C_3  and  C_4
REMARK    4  A    between atoms: C_9  and  C_10
REMARK    5  A    between atoms: C_10  and  C_11
REMARK    6  A    between atoms: C_11  and  O_12
REMARK    7  A    between atoms: C_11  and  C_13
REMARK    8  A    between atoms: C_13  and  O_14
REMARK                            x       y       z     vdW  Elec       q    Type
REMARK                         _______ _______ _______ _____ _____    ______ ____
ROOT
ATOM      1  C   UNL     1      48.265   6.707  14.240  0.00  0.00    +0.000 A 
ATOM      2  C   UNL     1      47.732   7.550  13.276  0.00  0.00    +0.000 A 
ATOM      3  N   UNL     1      46.784   7.148  12.398  0.00  0.00    +0.000 NA
ATOM      4  C   UNL     1      46.378   5.869  12.492  0.00  0.00    +0.000 A 
ATOM      5  C   UNL     1      45.456   5.385  11.578  0.00  0.00    +0.000 A 
ATOM      6  C   UNL     1      45.080   4.048  11.611  0.00  0.00    +0.000 A 
ATOM      7  N   UNL     1      45.532   3.200  12.558  0.00  0.00    +0.000 NA
ATOM      8  C   UNL     1      46.414   3.708  13.459  0.00  0.00    +0.000 A 
ATOM      9  C   UNL     1      46.901   5.006  13.473  0.00  0.00    +0.000 A 
ATOM     10  N   UNL     1      47.845   5.422  14.357  0.00  0.00    +0.000 NA
ENDROOT
BRANCH   1  11
ATOM     11  C   UNL     1      49.374   7.175  15.142  0.00  0.00    +0.000 C 
BRANCH  11  12
ATOM     12  C   UNL     1      49.214   6.594  16.550  0.00  0.00    +0.000 C 
BRANCH  12  13
ATOM     13  N   UNL     1      49.883   5.299  16.667  0.00  0.00    +0.000 NA
ATOM     14  H   UNL     1      50.820   5.439  17.047  0.00  0.00    +0.000 HD
ATOM     15  H   UNL     1      50.020   4.902  15.737  0.00  0.00    +0.000 HD
ENDBRANCH  12  13
ENDBRANCH  11  12
ENDBRANCH   1  11
BRANCH   6  16
ATOM     16  C   UNL     1      44.222   3.474  10.511  0.00  0.00    +0.000 C 
BRANCH  16  17
ATOM     17  C   UNL     1      45.013   2.802   9.388  0.00  0.00    +0.000 C 
BRANCH  17  18
ATOM     18  O   UNL     1      44.560   1.457   9.191  0.00  0.00    +0.000 OA
ATOM     19  H   UNL     1      44.334   1.078  10.059  0.00  0.00    +0.000 HD
ENDBRANCH  17  18
BRANCH  17  20
ATOM     20  C   UNL     1      44.836   3.598   8.080  0.00  0.00    +0.000 C 
BRANCH  20  21
ATOM     21  O   UNL     1      45.586   4.809   8.089  0.00  0.00    +0.000 OA
ATOM     22  H   UNL     1      46.489   4.602   8.390  0.00  0.00    +0.000 HD
ENDBRANCH  20  21
ENDBRANCH  17  20
ENDBRANCH  16  17
ENDBRANCH   6  16
TORSDOF 8
ENDMDL
MODEL 7
REMARK VINA RESULT:    -6.138      5.392      6.993
REMARK INTER + INTRA:          -8.187
REMARK INTER:                  -7.435
REMARK INTRA:                  -0.753
REMARK UNBOUND:                 0.283
REMARK  Name = 
REMARK  8 active torsions:
REMARK  status: ('A' for Active; 'I' for Inactive)
REMARK    1  A    between atoms: N_1  and  C_2
REMARK    2  A    between atoms: C_2  and  C_3
REMARK    3  A    between atoms: C_3  and  C_4
REMARK    4  A    between atoms: C_9  and  C_10
REMARK    5  A    between atoms: C_10  and  C_11
REMARK    6  A    between atoms: C_11  and  O_12
REMARK    7  A    between atoms: C_11  and  C_13
REMARK    8  A    between atoms: C_13  and  O_14
REMARK                            x       y       z     vdW  Elec       q    Type
REMARK                         _______ _______ _______ _____ _____    ______ ____
ROOT
ATOM      1  C   UNL     1      48.972   6.684  14.903  0.00  0.00    +0.000 A 
ATOM      2  C   UNL     1      48.861   7.562  13.835  0.00  0.00    +0.000 A 
ATOM      3  N   UNL     1      47.959   7.391  12.840  0.00  0.00    +0.000 NA
ATOM      4  C   UNL     1      47.164   6.309  12.927  0.00  0.00    +0.000 A 
ATOM      5  C   UNL     1      46.265   6.049  11.904  0.00  0.00    +0.000 A 
ATOM      6  C   UNL     1      45.489   4.897  11.937  0.00  0.00    +0.000 A 
ATOM      7  N   UNL     1      45.524   4.039  12.976  0.00  0.00    +0.000 NA
ATOM      8  C   UNL     1      46.395   4.332  13.978  0.00  0.00    +0.000 A 
ATOM      9  C   UNL     1      47.257   5.417  14.010  0.00  0.00    +0.000 A 
ATOM     10  N   UNL     1      48.160   5.602  15.009  0.00  0.00    +0.000 NA
ENDROOT
BRANCH   1  11
ATOM     11  C   UNL     1      50.044   6.870  15.942  0.00  0.00    +0.000 C 
BRANCH  11  12
ATOM     12  C   UNL     1      49.778   5.986  17.164  0.00  0.00    +0.000 C 
BRANCH  12  13
ATOM     13  N   UNL     1      50.439   4.688  17.031  0.00  0.00    +0.000 NA
ATOM     14  H   UNL     1      51.330   4.814  16.549  0.00  0.00    +0.000 HD
ATOM     15  H   UNL     1      49.882   4.084  16.426  0.00  0.00    +0.000 HD
ENDBRANCH  12  13
ENDBRANCH  11  12
ENDBRANCH   1  11
BRANCH   6  16
ATOM     16  C   UNL     1      44.646   4.517  10.744  0.00  0.00    +0.000 C 
BRANCH  16  17
ATOM     17  C   UNL     1      43.159   4.347  11.058  0.00  0.00    +0.000 C 
BRANCH  17  18
ATOM     18  O   UNL     1      42.936   3.126  11.776  0.00  0.00    +0.000 OA
ATOM     19  H   UNL     1      42.019   3.124  12.102  0.00  0.00    +0.000 HD
ENDBRANCH  17  18
BRANCH  17  20
ATOM     20  C   UNL     1      42.668   5.537  11.906  0.00  0.00    +0.000 C 
BRANCH  20  21
ATOM     21  O   UNL     1      42.609   5.215  13.292  0.00  0.00    +0.000 OA
ATOM     22  H   UNL     1      42.509   6.045  13.790  0.00  0.00    +0.000 HD
ENDBRANCH  20  21
ENDBRANCH  17  20
ENDBRANCH  16  17
ENDBRANCH   6  16
TORSDOF 8
ENDMDL
MODEL 8
REMARK VINA RESULT:    -5.844      5.784      7.902
REMARK INTER + INTRA:          -7.781
REMARK INTER:                  -7.135
REMARK INTRA:                  -0.647
REMARK UNBOUND:                 0.283
REMARK  Name = 
REMARK  8 active torsions:
REMARK  status: ('A' for Active; 'I' for Inactive)
REMARK    1  A    between atoms: N_1  and  C_2
REMARK    2  A    between atoms: C_2  and  C_3
REMARK    3  A    between atoms: C_3  and  C_4
REMARK    4  A    between atoms: C_9  and  C_10
REMARK    5  A    between atoms: C_10  and  C_11
REMARK    6  A    between atoms: C_11  and  O_12
REMARK    7  A    between atoms: C_11  and  C_13
REMARK    8  A    between atoms: C_13  and  O_14
REMARK                            x       y       z     vdW  Elec       q    Type
REMARK                         _______ _______ _______ _____ _____    ______ ____
ROOT
ATOM      1  C   UNL     1      45.188   4.993  11.418  0.00  0.00    +0.000 A 
ATOM      2  C   UNL     1      45.519   6.303  11.730  0.00  0.00    +0.000 A 
ATOM      3  N   UNL     1      46.295   6.627  12.791  0.00  0.00    +0.000 NA
ATOM      4  C   UNL     1      46.732   5.608  13.552  0.00  0.00    +0.000 A 
ATOM      5  C   UNL     1      47.477   5.886  14.687  0.00  0.00    +0.000 A 
ATOM      6  C   UNL     1      47.874   4.853  15.528  0.00  0.00    +0.000 A 
ATOM      7  N   UNL     1      47.619   3.559  15.243  0.00  0.00    +0.000 NA
ATOM      8  C   UNL     1      46.910   3.314  14.109  0.00  0.00    +0.000 A 
ATOM      9  C   UNL     1      46.414   4.274  13.241  0.00  0.00    +0.000 A 
ATOM     10  N   UNL     1      45.642   3.957  12.168  0.00  0.00    +0.000 NA
ENDROOT
BRANCH   1  11
ATOM     11  C   UNL     1      44.257   4.686  10.277  0.00  0.00    +0.000 C 
BRANCH  11  12
ATOM     12  C   UNL     1      44.210   3.182  10.001  0.00  0.00    +0.000 C 
BRANCH  12  13
ATOM     13  N   UNL     1      43.425   2.481  11.017  0.00  0.00    +0.000 NA
ATOM     14  H   UNL     1      42.694   1.935  10.559  0.00  0.00    +0.000 HD
ATOM     15  H   UNL     1      42.936   3.163  11.598  0.00  0.00    +0.000 HD
ENDBRANCH  12  13
ENDBRANCH  11  12
ENDBRANCH   1  11
BRANCH   6  16
ATOM     16  C   UNL     1      48.523   5.162  16.854  0.00  0.00    +0.000 C 
BRANCH  16  17
ATOM     17  C   UNL     1      47.589   5.015  18.056  0.00  0.00    +0.000 C 
BRANCH  17  18
ATOM     18  O   UNL     1      46.685   3.921  17.857  0.00  0.00    +0.000 OA
ATOM     19  H   UNL     1      45.857   4.269  17.482  0.00  0.00    +0.000 HD
ENDBRANCH  17  18
BRANCH  17  20
ATOM     20  C   UNL     1      48.418   4.769  19.331  0.00  0.00    +0.000 C 
BRANCH  20  21
ATOM     21  O   UNL     1      48.430   3.394  19.702  0.00  0.00    +0.000 OA
ATOM     22  H   UNL     1      48.166   2.871  18.924  0.00  0.00    +0.000 HD
ENDBRANCH  20  21
ENDBRANCH  17  20
ENDBRANCH  16  17
ENDBRANCH   6  16
TORSDOF 8
ENDMDL
MODEL 9
REMARK VINA RESULT:    -5.716      5.806      7.476
REMARK INTER + INTRA:          -7.605
REMARK INTER:                  -6.852
REMARK INTRA:                  -0.753
REMARK UNBOUND:                 0.283
REMARK  Name = 
REMARK  8 active torsions:
REMARK  status: ('A' for Active; 'I' for Inactive)
REMARK    1  A    between atoms: N_1  and  C_2
REMARK    2  A    between atoms: C_2  and  C_3
REMARK    3  A    between atoms: C_3  and  C_4
REMARK    4  A    between atoms: C_9  and  C_10
REMARK    5  A    between atoms: C_10  and  C_11
REMARK    6  A    between atoms: C_11  and  O_12
REMARK    7  A    between atoms: C_11  and  C_13
REMARK    8  A    between atoms: C_13  and  O_14
REMARK                            x       y       z     vdW  Elec       q    Type
REMARK                         _______ _______ _______ _____ _____    ______ ____
ROOT
ATOM      1  C   UNL     1      44.726   4.480  11.313  0.00  0.00    +0.000 A 
ATOM      2  C   UNL     1      45.166   3.620  12.308  0.00  0.00    +0.000 A 
ATOM      3  N   UNL     1      46.054   3.998  13.258  0.00  0.00    +0.000 NA
ATOM      4  C   UNL     1      46.508   5.262  13.191  0.00  0.00    +0.000 A 
ATOM      5  C   UNL     1      47.465   5.684  14.101  0.00  0.00    +0.000 A 
ATOM      6  C   UNL     1      48.002   6.961  14.002  0.00  0.00    +0.000 A 
ATOM      7  N   UNL     1      47.572   7.851  13.084  0.00  0.00    +0.000 NA
ATOM      8  C   UNL     1      46.612   7.420  12.222  0.00  0.00    +0.000 A 
ATOM      9  C   UNL     1      46.060   6.148  12.195  0.00  0.00    +0.000 A 
ATOM     10  N   UNL     1      45.161   5.764  11.251  0.00  0.00    +0.000 NA
ENDROOT
BRANCH   1  11
ATOM     11  C   UNL     1      43.801   3.993  10.231  0.00  0.00    +0.000 C 
BRANCH  11  12
ATOM     12  C   UNL     1      44.586   3.616   8.972  0.00  0.00    +0.000 C 
BRANCH  12  13
ATOM     13  N   UNL     1      45.315   4.767   8.439  0.00  0.00    +0.000 NA
ATOM     14  H   UNL     1      45.441   4.646   7.432  0.00  0.00    +0.000 HD
ATOM     15  H   UNL     1      46.255   4.786   8.833  0.00  0.00    +0.000 HD
ENDBRANCH  12  13
ENDBRANCH  11  12
ENDBRANCH   1  11
BRANCH   6  16
ATOM     16  C   UNL     1      49.171   7.361  14.868  0.00  0.00    +0.000 C 
BRANCH  16  17
ATOM     17  C   UNL     1      48.790   8.223  16.073  0.00  0.00    +0.000 C 
BRANCH  17  18
ATOM     18  O   UNL     1      47.559   8.914  15.825  0.00  0.00    +0.000 OA
ATOM     19  H   UNL     1      46.926   8.286  15.435  0.00  0.00    +0.000 HD
ENDBRANCH  17  18
BRANCH  17  20
ATOM     20  C   UNL     1      48.635   7.332  17.321  0.00  0.00    +0.000 C 
BRANCH  20  21
ATOM     21  O   UNL     1      47.519   7.721  18.116  0.00  0.00    +0.000 OA
ATOM     22  H   UNL     1      46.757   7.849  17.524  0.00  0.00    +0.000 HD
ENDBRANCH  20  21
ENDBRANCH  17  20
ENDBRANCH  16  17
ENDBRANCH   6  16
TORSDOF 8
ENDMDL
