MODEL 1
REMARK VINA RESULT:    -9.107      0.000      0.000
REMARK INTER + INTRA:         -13.261
REMARK INTER:                 -12.301
REMARK INTRA:                  -0.959
REMARK UNBOUND:                -0.959
REMARK  Name = 
REMARK  9 active torsions:
REMARK  status: ('A' for Active; 'I' for Inactive)
REMARK    1  A    between atoms: C_1  and  O_2
REMARK    2  A    between atoms: O_2  and  C_3
REMARK    3  A    between atoms: C_6  and  C_7
REMARK    4  A    between atoms: C_7  and  C_8
REMARK    5  A    between atoms: C_7  and  C_9
REMARK    6  A    between atoms: C_7  and  C_10
REMARK    7  A    between atoms: C_10  and  N_11
REMARK    8  A    between atoms: C_15  and  C_16
REMARK    9  A    between atoms: C_22  and  C_23
REMARK                            x       y       z     vdW  Elec       q    Type
REMARK                         _______ _______ _______ _____ _____    ______ ____
ROOT
ATOM      1  C   UNL     1      43.665   5.468  11.955  0.00  0.00    +0.000 C 
ATOM      2  C   UNL     1      42.906   5.097  13.248  0.00  0.00    +0.000 C 
ATOM      3  C   UNL     1      43.042   6.772  11.384  0.00  0.00    +0.000 C 
ENDROOT
BRANCH   1   7
ATOM      4  C   UNL     1      47.851   6.288  12.990  0.00  0.00    +0.000 A 
ATOM      5  C   UNL     1      47.261   6.890  11.875  0.00  0.00    +0.000 A 
ATOM      6  C   UNL     1      45.930   6.638  11.541  0.00  0.00    +0.000 A 
ATOM      7  C   UNL     1      45.150   5.738  12.271  0.00  0.00    +0.000 A 
ATOM      8  C   UNL     1      45.772   5.107  13.368  0.00  0.00    +0.000 A 
ATOM      9  C   UNL     1      47.094   5.397  13.787  0.00  0.00    +0.000 A 
BRANCH   9  10
ATOM     10  C   UNL     1      47.586   4.843  15.081  0.00  0.00    +0.000 A 
ATOM     11  C   UNL     1      48.050   5.661  16.128  0.00  0.00    +0.000 A 
ATOM     12  C   UNL     1      48.367   5.131  17.383  0.00  0.00    +0.000 A 
ATOM     13  C   UNL     1      48.269   3.764  17.595  0.00  0.00    +0.000 A 
ATOM     14  F   UNL     1      48.547   3.259  18.804  0.00  0.00    +0.000 F 
ATOM     15  C   UNL     1      47.879   2.915  16.573  0.00  0.00    +0.000 A 
ATOM     16  C   UNL     1      47.534   3.453  15.328  0.00  0.00    +0.000 A 
ENDBRANCH   9  10
BRANCH   4  18
ATOM     17  C   UNL     1      49.819   7.624  12.736  0.00  0.00    +0.000 C 
ATOM     18  O   UNL     1      49.136   6.562  13.386  0.00  0.00    +0.000 OA
ENDBRANCH   4  18
ENDBRANCH   1   7
BRANCH   1  19
ATOM     19  C   UNL     1      43.404   4.370  10.868  0.00  0.00    +0.000 C 
BRANCH  19  20
ATOM     20  N   UNL     1      43.945   4.712   9.561  0.00  0.00    +0.000 N 
ATOM     21  C   UNL     1      44.902   3.948   8.937  0.00  0.00    +0.000 A 
ATOM     22  C   UNL     1      45.084   2.574   9.131  0.00  0.00    +0.000 A 
ATOM     23  N   UNL     1      45.993   1.819   8.460  0.00  0.00    +0.000 NA
ATOM     24  C   UNL     1      46.723   2.511   7.543  0.00  0.00    +0.000 A 
ATOM     25  C   UNL     1      46.554   3.868   7.331  0.00  0.00    +0.000 A 
ATOM     26  N   UNL     1      45.649   4.606   8.025  0.00  0.00    +0.000 NA
ATOM     27  H   UNL     1      44.098   5.694   9.345  0.00  0.00    +0.000 HD
BRANCH  24  28
ATOM     28  C   UNL     1      47.725   1.750   6.748  0.00  0.00    +0.000 C 
ATOM     29  N   UNL     1      48.744   2.490   6.219  0.00  0.00    +0.000 N 
ATOM     30  O   UNL     1      47.642   0.540   6.576  0.00  0.00    +0.000 OA
ATOM     31  H   UNL     1      48.775   3.492   6.367  0.00  0.00    +0.000 HD
ATOM     32  H   UNL     1      49.452   2.034   5.657  0.00  0.00    +0.000 HD
ENDBRANCH  24  28
ENDBRANCH  19  20
ENDBRANCH   1  19
TORSDOF 6
ENDMDL
MODEL 2
REMARK VINA RESULT:    -7.532      4.428      7.731
REMARK INTER + INTRA:         -11.133
REMARK INTER:                 -10.065
REMARK INTRA:                  -1.068
REMARK UNBOUND:                -0.959
REMARK  Name = 
REMARK  9 active torsions:
REMARK  status: ('A' for Active; 'I' for Inactive)
REMARK    1  A    between atoms: C_1  and  O_2
REMARK    2  A    between atoms: O_2  and  C_3
REMARK    3  A    between atoms: C_6  and  C_7
REMARK    4  A    between atoms: C_7  and  C_8
REMARK    5  A    between atoms: C_7  and  C_9
REMARK    6  A    between atoms: C_7  and  C_10
REMARK    7  A    between atoms: C_10  and  N_11
REMARK    8  A    between atoms: C_15  and  C_16
REMARK    9  A    between atoms: C_22  and  C_23
REMARK                            x       y       z     vdW  Elec       q    Type
REMARK                         _______ _______ _______ _____ _____    ______ ____
ROOT
ATOM      1  C   UNL     1      48.511   8.229  12.367  0.00  0.00    +0.000 C 
ATOM      2  C   UNL     1      49.489   7.126  11.904  0.00  0.00    +0.000 C 
ATOM      3  C   UNL     1      48.819   9.520  11.558  0.00  0.00    +0.000 C 
ENDROOT
BRANCH   1   7
ATOM      4  C   UNL     1      44.411   7.013  11.380  0.00  0.00    +0.000 A 
ATOM      5  C   UNL     1      44.663   8.249  11.981  0.00  0.00    +0.000 A 
ATOM      6  C   UNL     1      45.963   8.646  12.295  0.00  0.00    +0.000 A 
ATOM      7  C   UNL     1      47.058   7.808  12.071  0.00  0.00    +0.000 A 
ATOM      8  C   UNL     1      46.783   6.547  11.503  0.00  0.00    +0.000 A 
ATOM      9  C   UNL     1      45.487   6.141  11.096  0.00  0.00    +0.000 A 
BRANCH   9  10
ATOM     10  C   UNL     1      45.331   4.883  10.309  0.00  0.00    +0.000 A 
ATOM     11  C   UNL     1      45.632   4.806   8.937  0.00  0.00    +0.000 A 
ATOM     12  C   UNL     1      45.620   3.585   8.254  0.00  0.00    +0.000 A 
ATOM     13  C   UNL     1      45.259   2.427   8.927  0.00  0.00    +0.000 A 
ATOM     14  F   UNL     1      45.273   1.254   8.281  0.00  0.00    +0.000 F 
ATOM     15  C   UNL     1      44.894   2.468  10.262  0.00  0.00    +0.000 A 
ATOM     16  C   UNL     1      44.936   3.686  10.948  0.00  0.00    +0.000 A 
ENDBRANCH   9  10
BRANCH   4  18
ATOM     17  C   UNL     1      42.386   5.860  11.923  0.00  0.00    +0.000 C 
ATOM     18  O   UNL     1      43.153   6.618  10.998  0.00  0.00    +0.000 OA
ENDBRANCH   4  18
ENDBRANCH   1   7
BRANCH   1  19
ATOM     19  C   UNL     1      48.809   8.592  13.862  0.00  0.00    +0.000 C 
BRANCH  19  20
ATOM     20  N   UNL     1      49.653   7.616  14.535  0.00  0.00    +0.000 N 
ATOM     21  C   UNL     1      49.135   6.605  15.310  0.00  0.00    +0.000 A 
ATOM     22  C   UNL     1      47.868   6.035  15.144  0.00  0.00    +0.000 A 
ATOM     23  N   UNL     1      47.394   4.994  15.876  0.00  0.00    +0.000 NA
ATOM     24  C   UNL     1      48.273   4.515  16.798  0.00  0.00    +0.000 A 
ATOM     25  C   UNL     1      49.533   5.059  16.974  0.00  0.00    +0.000 A 
ATOM     26  N   UNL     1      49.981   6.111  16.239  0.00  0.00    +0.000 NA
ATOM     27  H   UNL     1      50.533   7.934  14.932  0.00  0.00    +0.000 HD
BRANCH  24  28
ATOM     28  C   UNL     1      47.838   3.357  17.625  0.00  0.00    +0.000 C 
ATOM     29  N   UNL     1      48.748   2.910  18.541  0.00  0.00    +0.000 N 
ATOM     30  O   UNL     1      46.737   2.836  17.495  0.00  0.00    +0.000 OA
ATOM     31  H   UNL     1      49.657   3.354  18.613  0.00  0.00    +0.000 HD
ATOM     32  H   UNL     1      48.519   2.117  19.126  0.00  0.00    +0.000 HD
ENDBRANCH  24  28
ENDBRANCH  19  20
ENDBRANCH   1  19
TORSDOF 6
ENDMDL
MODEL 3
REMARK VINA RESULT:    -7.250      2.895      5.284
REMARK INTER + INTRA:         -10.753
REMARK INTER:                  -9.535
REMARK INTRA:                  -1.218
REMARK UNBOUND:                -0.959
REMARK  Name = 
REMARK  9 active torsions:
REMARK  status: ('A' for Active; 'I' for Inactive)
REMARK    1  A    between atoms: C_1  and  O_2
REMARK    2  A    between atoms: O_2  and  C_3
REMARK    3  A    between atoms: C_6  and  C_7
REMARK    4  A    between atoms: C_7  and  C_8
REMARK    5  A    between atoms: C_7  and  C_9
REMARK    6  A    between atoms: C_7  and  C_10
REMARK    7  A    between atoms: C_10  and  N_11
REMARK    8  A    between atoms: C_15  and  C_16
REMARK    9  A    between atoms: C_22  and  C_23
REMARK                            x       y       z     vdW  Elec       q    Type
REMARK                         _______ _______ _______ _____ _____    ______ ____
ROOT
ATOM      1  C   UNL     1      48.617   8.706  14.132  0.00  0.00    +0.000 C 
ATOM      2  C   UNL     1      49.036  10.192  14.064  0.00  0.00    +0.000 C 
ATOM      3  C   UNL     1      49.609   7.883  13.264  0.00  0.00    +0.000 C 
ENDROOT
BRANCH   1   7
ATOM      4  C   UNL     1      48.786   7.136  18.227  0.00  0.00    +0.000 A 
ATOM      5  C   UNL     1      48.270   8.409  17.973  0.00  0.00    +0.000 A 
ATOM      6  C   UNL     1      48.208   8.915  16.674  0.00  0.00    +0.000 A 
ATOM      7  C   UNL     1      48.706   8.196  15.584  0.00  0.00    +0.000 A 
ATOM      8  C   UNL     1      49.262   6.930  15.863  0.00  0.00    +0.000 A 
ATOM      9  C   UNL     1      49.268   6.348  17.155  0.00  0.00    +0.000 A 
BRANCH   9  10
ATOM     10  C   UNL     1      49.678   4.923  17.311  0.00  0.00    +0.000 A 
ATOM     11  C   UNL     1      48.782   3.853  17.130  0.00  0.00    +0.000 A 
ATOM     12  C   UNL     1      49.221   2.525  17.135  0.00  0.00    +0.000 A 
ATOM     13  C   UNL     1      50.558   2.246  17.370  0.00  0.00    +0.000 A 
ATOM     14  F   UNL     1      50.984   0.976  17.349  0.00  0.00    +0.000 F 
ATOM     15  C   UNL     1      51.463   3.266  17.616  0.00  0.00    +0.000 A 
ATOM     16  C   UNL     1      51.025   4.593  17.581  0.00  0.00    +0.000 A 
ENDBRANCH   9  10
BRANCH   4  18
ATOM     17  C   UNL     1      47.557   6.218  20.063  0.00  0.00    +0.000 C 
ATOM     18  O   UNL     1      48.801   6.580  19.482  0.00  0.00    +0.000 OA
ENDBRANCH   4  18
ENDBRANCH   1   7
BRANCH   1  19
ATOM     19  C   UNL     1      47.219   8.530  13.448  0.00  0.00    +0.000 C 
BRANCH  19  20
ATOM     20  N   UNL     1      46.584   7.256  13.752  0.00  0.00    +0.000 N 
ATOM     21  C   UNL     1      45.965   6.494  12.789  0.00  0.00    +0.000 A 
ATOM     22  C   UNL     1      46.292   6.499  11.429  0.00  0.00    +0.000 A 
ATOM     23  N   UNL     1      45.714   5.695  10.499  0.00  0.00    +0.000 NA
ATOM     24  C   UNL     1      44.779   4.844  11.002  0.00  0.00    +0.000 A 
ATOM     25  C   UNL     1      44.445   4.818  12.345  0.00  0.00    +0.000 A 
ATOM     26  N   UNL     1      45.026   5.643  13.255  0.00  0.00    +0.000 NA
ATOM     27  H   UNL     1      46.086   7.164  14.633  0.00  0.00    +0.000 HD
BRANCH  24  28
ATOM     28  C   UNL     1      44.116   3.911  10.050  0.00  0.00    +0.000 C 
ATOM     29  N   UNL     1      44.084   4.322   8.748  0.00  0.00    +0.000 N 
ATOM     30  O   UNL     1      43.627   2.847  10.409  0.00  0.00    +0.000 OA
ATOM     31  H   UNL     1      44.484   5.217   8.486  0.00  0.00    +0.000 HD
ATOM     32  H   UNL     1      43.636   3.740   8.052  0.00  0.00    +0.000 HD
ENDBRANCH  24  28
ENDBRANCH  19  20
ENDBRANCH   1  19
TORSDOF 6
ENDMDL
MODEL 4
REMARK VINA RESULT:    -6.677      3.529      6.353
REMARK INTER + INTRA:          -9.979
REMARK INTER:                  -8.578
REMARK INTRA:                  -1.400
REMARK UNBOUND:                -0.959
REMARK  Name = 
REMARK  9 active torsions:
REMARK  status: ('A' for Active; 'I' for Inactive)
REMARK    1  A    between atoms: C_1  and  O_2
REMARK    2  A    between atoms: O_2  and  C_3
REMARK    3  A    between atoms: C_6  and  C_7
REMARK    4  A    between atoms: C_7  and  C_8
REMARK    5  A    between atoms: C_7  and  C_9
REMARK    6  A    between atoms: C_7  and  C_10
REMARK    7  A    between atoms: C_10  and  N_11
REMARK    8  A    between atoms: C_15  and  C_16
REMARK    9  A    between atoms: C_22  and  C_23
REMARK                            x       y       z     vdW  Elec       q    Type
REMARK                         _______ _______ _______ _____ _____    ______ ____
ROOT
ATOM      1  C   UNL     1      48.524   4.429  17.211  0.00  0.00    +0.000 C 
ATOM      2  C   UNL     1      49.127   3.009  17.146  0.00  0.00    +0.000 C 
ATOM      3  C   UNL     1      48.197   4.749  18.696  0.00  0.00    +0.000 C 
ENDROOT
BRANCH   1   7
ATOM      4  C   UNL     1      51.423   7.325  15.638  0.00  0.00    +0.000 A 
ATOM      5  C   UNL     1      51.801   6.394  16.608  0.00  0.00    +0.000 A 
ATOM      6  C   UNL     1      50.888   5.467  17.111  0.00  0.00    +0.000 A 
ATOM      7  C   UNL     1      49.550   5.465  16.708  0.00  0.00    +0.000 A 
ATOM      8  C   UNL     1      49.174   6.438  15.759  0.00  0.00    +0.000 A 
ATOM      9  C   UNL     1      50.089   7.342  15.165  0.00  0.00    +0.000 A 
BRANCH   9  10
ATOM     10  C   UNL     1      49.642   8.184  14.018  0.00  0.00    +0.000 A 
ATOM     11  C   UNL     1      49.599   7.702  12.696  0.00  0.00    +0.000 A 
ATOM     12  C   UNL     1      49.038   8.458  11.662  0.00  0.00    +0.000 A 
ATOM     13  C   UNL     1      48.553   9.730  11.927  0.00  0.00    +0.000 A 
ATOM     14  F   UNL     1      47.992  10.444  10.943  0.00  0.00    +0.000 F 
ATOM     15  C   UNL     1      48.634  10.268  13.201  0.00  0.00    +0.000 A 
ATOM     16  C   UNL     1      49.169   9.497  14.238  0.00  0.00    +0.000 A 
ENDBRANCH   9  10
BRANCH   4  18
ATOM     17  C   UNL     1      52.751   9.303  15.862  0.00  0.00    +0.000 C 
ATOM     18  O   UNL     1      52.310   8.208  15.073  0.00  0.00    +0.000 OA
ENDBRANCH   4  18
ENDBRANCH   1   7
BRANCH   1  19
ATOM     19  C   UNL     1      47.145   4.442  16.468  0.00  0.00    +0.000 C 
BRANCH  19  20
ATOM     20  N   UNL     1      47.139   3.646  15.249  0.00  0.00    +0.000 N 
ATOM     21  C   UNL     1      46.460   4.035  14.119  0.00  0.00    +0.000 A 
ATOM     22  C   UNL     1      46.178   5.360  13.769  0.00  0.00    +0.000 A 
ATOM     23  N   UNL     1      45.560   5.733  12.617  0.00  0.00    +0.000 NA
ATOM     24  C   UNL     1      45.244   4.697  11.794  0.00  0.00    +0.000 A 
ATOM     25  C   UNL     1      45.520   3.381  12.118  0.00  0.00    +0.000 A 
ATOM     26  N   UNL     1      46.125   3.030  13.283  0.00  0.00    +0.000 NA
ATOM     27  H   UNL     1      47.106   2.634  15.336  0.00  0.00    +0.000 HD
BRANCH  24  28
ATOM     28  C   UNL     1      44.587   5.025  10.499  0.00  0.00    +0.000 C 
ATOM     29  N   UNL     1      45.413   5.509   9.524  0.00  0.00    +0.000 N 
ATOM     30  O   UNL     1      43.385   4.875  10.318  0.00  0.00    +0.000 OA
ATOM     31  H   UNL     1      46.401   5.636   9.711  0.00  0.00    +0.000 HD
ATOM     32  H   UNL     1      45.026   5.763   8.624  0.00  0.00    +0.000 HD
ENDBRANCH  24  28
ENDBRANCH  19  20
ENDBRANCH   1  19
TORSDOF 6
ENDMDL
MODEL 5
REMARK VINA RESULT:    -6.564      4.389      6.917
REMARK INTER + INTRA:          -9.826
REMARK INTER:                  -8.801
REMARK INTRA:                  -1.025
REMARK UNBOUND:                -0.959
REMARK  Name = 
REMARK  9 active torsions:
REMARK  status: ('A' for Active; 'I' for Inactive)
REMARK    1  A    between atoms: C_1  and  O_2
REMARK    2  A    between atoms: O_2  and  C_3
REMARK    3  A    between atoms: C_6  and  C_7
REMARK    4  A    between atoms: C_7  and  C_8
REMARK    5  A    between atoms: C_7  and  C_9
REMARK    6  A    between atoms: C_7  and  C_10
REMARK    7  A    between atoms: C_10  and  N_11
REMARK    8  A    between atoms: C_15  and  C_16
REMARK    9  A    between atoms: C_22  and  C_23
REMARK                            x       y       z     vdW  Elec       q    Type
REMARK                         _______ _______ _______ _____ _____    ______ ____
ROOT
ATOM      1  C   UNL     1      48.045   4.052  17.227  0.00  0.00    +0.000 C 
ATOM      2  C   UNL     1      46.998   2.927  17.391  0.00  0.00    +0.000 C 
ATOM      3  C   UNL     1      47.791   5.115  18.331  0.00  0.00    +0.000 C 
ENDROOT
BRANCH   1   7
ATOM      4  C   UNL     1      52.140   2.534  17.669  0.00  0.00    +0.000 A 
ATOM      5  C   UNL     1      51.097   1.677  17.309  0.00  0.00    +0.000 A 
ATOM      6  C   UNL     1      49.793   2.151  17.162  0.00  0.00    +0.000 A 
ATOM      7  C   UNL     1      49.466   3.485  17.419  0.00  0.00    +0.000 A 
ATOM      8  C   UNL     1      50.522   4.328  17.822  0.00  0.00    +0.000 A 
ATOM      9  C   UNL     1      51.872   3.904  17.903  0.00  0.00    +0.000 A 
BRANCH   9  10
ATOM     10  C   UNL     1      52.943   4.917  18.125  0.00  0.00    +0.000 A 
ATOM     11  C   UNL     1      53.555   5.616  17.069  0.00  0.00    +0.000 A 
ATOM     12  C   UNL     1      54.449   6.665  17.309  0.00  0.00    +0.000 A 
ATOM     13  C   UNL     1      54.780   6.999  18.613  0.00  0.00    +0.000 A 
ATOM     14  F   UNL     1      55.615   8.020  18.845  0.00  0.00    +0.000 F 
ATOM     15  C   UNL     1      54.249   6.295  19.681  0.00  0.00    +0.000 A 
ATOM     16  C   UNL     1      53.333   5.266  19.438  0.00  0.00    +0.000 A 
ENDBRANCH   9  10
BRANCH   4  18
ATOM     17  C   UNL     1      53.763   0.823  17.265  0.00  0.00    +0.000 C 
ATOM     18  O   UNL     1      53.444   2.117  17.758  0.00  0.00    +0.000 OA
ENDBRANCH   4  18
ENDBRANCH   1   7
BRANCH   1  19
ATOM     19  C   UNL     1      47.801   4.793  15.868  0.00  0.00    +0.000 C 
BRANCH  19  20
ATOM     20  N   UNL     1      47.414   3.900  14.786  0.00  0.00    +0.000 N 
ATOM     21  C   UNL     1      46.470   4.246  13.848  0.00  0.00    +0.000 A 
ATOM     22  C   UNL     1      46.174   5.556  13.453  0.00  0.00    +0.000 A 
ATOM     23  N   UNL     1      45.283   5.880  12.480  0.00  0.00    +0.000 NA
ATOM     24  C   UNL     1      44.695   4.807  11.884  0.00  0.00    +0.000 A 
ATOM     25  C   UNL     1      44.977   3.505  12.255  0.00  0.00    +0.000 A 
ATOM     26  N   UNL     1      45.862   3.205  13.242  0.00  0.00    +0.000 NA
ATOM     27  H   UNL     1      47.351   2.905  14.982  0.00  0.00    +0.000 HD
BRANCH  24  28
ATOM     28  C   UNL     1      43.723   5.077  10.789  0.00  0.00    +0.000 C 
ATOM     29  N   UNL     1      44.100   4.651   9.547  0.00  0.00    +0.000 N 
ATOM     30  O   UNL     1      42.656   5.647  10.986  0.00  0.00    +0.000 OA
ATOM     31  H   UNL     1      44.996   4.197   9.415  0.00  0.00    +0.000 HD
ATOM     32  H   UNL     1      43.489   4.816   8.757  0.00  0.00    +0.000 HD
ENDBRANCH  24  28
ENDBRANCH  19  20
ENDBRANCH   1  19
TORSDOF 6
ENDMDL
MODEL 6
REMARK VINA RESULT:    -6.521      4.242      7.050
REMARK INTER + INTRA:          -9.767
REMARK INTER:                  -8.313
REMARK INTRA:                  -1.454
REMARK UNBOUND:                -0.959
REMARK  Name = 
REMARK  9 active torsions:
REMARK  status: ('A' for Active; 'I' for Inactive)
REMARK    1  A    between atoms: C_1  and  O_2
REMARK    2  A    between atoms: O_2  and  C_3
REMARK    3  A    between atoms: C_6  and  C_7
REMARK    4  A    between atoms: C_7  and  C_8
REMARK    5  A    between atoms: C_7  and  C_9
REMARK    6  A    between atoms: C_7  and  C_10
REMARK    7  A    between atoms: C_10  and  N_11
REMARK    8  A    between atoms: C_15  and  C_16
REMARK    9  A    between atoms: C_22  and  C_23
REMARK                            x       y       z     vdW  Elec       q    Type
REMARK                         _______ _______ _______ _____ _____    ______ ____
ROOT
ATOM      1  C   UNL     1      45.385   5.410  12.184  0.00  0.00    +0.000 C 
ATOM      2  C   UNL     1      44.036   5.483  12.934  0.00  0.00    +0.000 C 
ATOM      3  C   UNL     1      45.105   4.947  10.727  0.00  0.00    +0.000 C 
ENDROOT
BRANCH   1   7
ATOM      4  C   UNL     1      47.315   9.352  12.162  0.00  0.00    +0.000 A 
ATOM      5  C   UNL     1      45.922   9.241  12.159  0.00  0.00    +0.000 A 
ATOM      6  C   UNL     1      45.300   7.992  12.170  0.00  0.00    +0.000 A 
ATOM      7  C   UNL     1      46.038   6.806  12.131  0.00  0.00    +0.000 A 
ATOM      8  C   UNL     1      47.441   6.936  12.091  0.00  0.00    +0.000 A 
ATOM      9  C   UNL     1      48.111   8.183  12.162  0.00  0.00    +0.000 A 
BRANCH   9  10
ATOM     10  C   UNL     1      49.593   8.206  12.332  0.00  0.00    +0.000 A 
ATOM     11  C   UNL     1      50.480   8.214  11.240  0.00  0.00    +0.000 A 
ATOM     12  C   UNL     1      51.857   8.385  11.420  0.00  0.00    +0.000 A 
ATOM     13  C   UNL     1      52.372   8.503  12.702  0.00  0.00    +0.000 A 
ATOM     14  F   UNL     1      53.686   8.693  12.874  0.00  0.00    +0.000 F 
ATOM     15  C   UNL     1      51.540   8.436  13.808  0.00  0.00    +0.000 A 
ATOM     16  C   UNL     1      50.161   8.295  13.622  0.00  0.00    +0.000 A 
ENDBRANCH   9  10
BRANCH   4  18
ATOM     17  C   UNL     1      48.077  11.309  11.015  0.00  0.00    +0.000 C 
ATOM     18  O   UNL     1      47.961  10.562  12.217  0.00  0.00    +0.000 OA
ENDBRANCH   4  18
ENDBRANCH   1   7
BRANCH   1  19
ATOM     19  C   UNL     1      46.271   4.284  12.817  0.00  0.00    +0.000 C 
BRANCH  19  20
ATOM     20  N   UNL     1      46.026   4.089  14.239  0.00  0.00    +0.000 N 
ATOM     21  C   UNL     1      46.976   4.365  15.194  0.00  0.00    +0.000 A 
ATOM     22  C   UNL     1      47.998   5.311  15.060  0.00  0.00    +0.000 A 
ATOM     23  N   UNL     1      48.891   5.618  16.036  0.00  0.00    +0.000 NA
ATOM     24  C   UNL     1      48.704   4.934  17.198  0.00  0.00    +0.000 A 
ATOM     25  C   UNL     1      47.696   3.999  17.354  0.00  0.00    +0.000 A 
ATOM     26  N   UNL     1      46.823   3.697  16.357  0.00  0.00    +0.000 NA
ATOM     27  H   UNL     1      45.477   3.283  14.526  0.00  0.00    +0.000 HD
BRANCH  24  28
ATOM     28  C   UNL     1      49.628   5.231  18.326  0.00  0.00    +0.000 C 
ATOM     29  N   UNL     1      50.149   4.142  18.964  0.00  0.00    +0.000 N 
ATOM     30  O   UNL     1      49.901   6.376  18.664  0.00  0.00    +0.000 OA
ATOM     31  H   UNL     1      49.890   3.207  18.669  0.00  0.00    +0.000 HD
ATOM     32  H   UNL     1      50.775   4.275  19.749  0.00  0.00    +0.000 HD
ENDBRANCH  24  28
ENDBRANCH  19  20
ENDBRANCH   1  19
TORSDOF 6
ENDMDL
MODEL 7
REMARK VINA RESULT:    -6.515      5.325      8.023
REMARK INTER + INTRA:          -9.760
REMARK INTER:                  -8.219
REMARK INTRA:                  -1.541
REMARK UNBOUND:                -0.959
REMARK  Name = 
REMARK  9 active torsions:
REMARK  status: ('A' for Active; 'I' for Inactive)
REMARK    1  A    between atoms: C_1  and  O_2
REMARK    2  A    between atoms: O_2  and  C_3
REMARK    3  A    between atoms: C_6  and  C_7
REMARK    4  A    between atoms: C_7  and  C_8
REMARK    5  A    between atoms: C_7  and  C_9
REMARK    6  A    between atoms: C_7  and  C_10
REMARK    7  A    between atoms: C_10  and  N_11
REMARK    8  A    between atoms: C_15  and  C_16
REMARK    9  A    between atoms: C_22  and  C_23
REMARK                            x       y       z     vdW  Elec       q    Type
REMARK                         _______ _______ _______ _____ _____    ______ ____
ROOT
ATOM      1  C   UNL     1      49.431   9.215  17.506  0.00  0.00    +0.000 C 
ATOM      2  C   UNL     1      49.820  10.708  17.587  0.00  0.00    +0.000 C 
ATOM      3  C   UNL     1      47.957   9.071  17.976  0.00  0.00    +0.000 C 
ENDROOT
BRANCH   1   7
ATOM      4  C   UNL     1      49.665   7.670  13.404  0.00  0.00    +0.000 A 
ATOM      5  C   UNL     1      50.760   8.312  13.987  0.00  0.00    +0.000 A 
ATOM      6  C   UNL     1      50.696   8.803  15.292  0.00  0.00    +0.000 A 
ATOM      7  C   UNL     1      49.525   8.721  16.048  0.00  0.00    +0.000 A 
ATOM      8  C   UNL     1      48.415   8.108  15.430  0.00  0.00    +0.000 A 
ATOM      9  C   UNL     1      48.465   7.525  14.140  0.00  0.00    +0.000 A 
BRANCH   9  10
ATOM     10  C   UNL     1      47.309   6.712  13.662  0.00  0.00    +0.000 A 
ATOM     11  C   UNL     1      47.203   5.331  13.905  0.00  0.00    +0.000 A 
ATOM     12  C   UNL     1      46.045   4.618  13.578  0.00  0.00    +0.000 A 
ATOM     13  C   UNL     1      44.991   5.271  12.958  0.00  0.00    +0.000 A 
ATOM     14  F   UNL     1      43.871   4.596  12.668  0.00  0.00    +0.000 F 
ATOM     15  C   UNL     1      45.079   6.617  12.642  0.00  0.00    +0.000 A 
ATOM     16  C   UNL     1      46.227   7.332  12.997  0.00  0.00    +0.000 A 
ENDBRANCH   9  10
BRANCH   4  18
ATOM     17  C   UNL     1      50.590   7.704  11.198  0.00  0.00    +0.000 C 
ATOM     18  O   UNL     1      49.713   7.118  12.148  0.00  0.00    +0.000 OA
ENDBRANCH   4  18
ENDBRANCH   1   7
BRANCH   1  19
ATOM     19  C   UNL     1      50.281   8.401  18.541  0.00  0.00    +0.000 C 
BRANCH  19  20
ATOM     20  N   UNL     1      49.598   7.219  19.046  0.00  0.00    +0.000 N 
ATOM     21  C   UNL     1      49.740   5.982  18.464  0.00  0.00    +0.000 A 
ATOM     22  C   UNL     1      50.864   5.556  17.748  0.00  0.00    +0.000 A 
ATOM     23  N   UNL     1      51.016   4.308  17.231  0.00  0.00    +0.000 NA
ATOM     24  C   UNL     1      49.974   3.470  17.485  0.00  0.00    +0.000 A 
ATOM     25  C   UNL     1      48.857   3.869  18.196  0.00  0.00    +0.000 A 
ATOM     26  N   UNL     1      48.720   5.127  18.690  0.00  0.00    +0.000 NA
ATOM     27  H   UNL     1      48.650   7.325  19.398  0.00  0.00    +0.000 HD
BRANCH  24  28
ATOM     28  C   UNL     1      50.075   2.076  16.973  0.00  0.00    +0.000 C 
ATOM     29  N   UNL     1      50.965   1.271  17.626  0.00  0.00    +0.000 N 
ATOM     30  O   UNL     1      49.408   1.675  16.027  0.00  0.00    +0.000 OA
ATOM     31  H   UNL     1      51.514   1.638  18.395  0.00  0.00    +0.000 HD
ATOM     32  H   UNL     1      51.091   0.314  17.319  0.00  0.00    +0.000 HD
ENDBRANCH  24  28
ENDBRANCH  19  20
ENDBRANCH   1  19
TORSDOF 6
ENDMDL
MODEL 8
REMARK VINA RESULT:    -6.508      4.223      6.674
REMARK INTER + INTRA:          -9.750
REMARK INTER:                  -8.520
REMARK INTRA:                  -1.230
REMARK UNBOUND:                -0.959
REMARK  Name = 
REMARK  9 active torsions:
REMARK  status: ('A' for Active; 'I' for Inactive)
REMARK    1  A    between atoms: C_1  and  O_2
REMARK    2  A    between atoms: O_2  and  C_3
REMARK    3  A    between atoms: C_6  and  C_7
REMARK    4  A    between atoms: C_7  and  C_8
REMARK    5  A    between atoms: C_7  and  C_9
REMARK    6  A    between atoms: C_7  and  C_10
REMARK    7  A    between atoms: C_10  and  N_11
REMARK    8  A    between atoms: C_15  and  C_16
REMARK    9  A    between atoms: C_22  and  C_23
REMARK                            x       y       z     vdW  Elec       q    Type
REMARK                         _______ _______ _______ _____ _____    ______ ____
ROOT
ATOM      1  C   UNL     1      50.458   8.057  15.221  0.00  0.00    +0.000 C 
ATOM      2  C   UNL     1      50.079   9.506  15.601  0.00  0.00    +0.000 C 
ATOM      3  C   UNL     1      51.998   7.994  15.027  0.00  0.00    +0.000 C 
ENDROOT
BRANCH   1   7
ATOM      4  C   UNL     1      49.350   5.203  18.366  0.00  0.00    +0.000 A 
ATOM      5  C   UNL     1      48.605   6.368  18.166  0.00  0.00    +0.000 A 
ATOM      6  C   UNL     1      48.947   7.279  17.167  0.00  0.00    +0.000 A 
ATOM      7  C   UNL     1      50.074   7.093  16.362  0.00  0.00    +0.000 A 
ATOM      8  C   UNL     1      50.839   5.934  16.604  0.00  0.00    +0.000 A 
ATOM      9  C   UNL     1      50.479   4.946  17.553  0.00  0.00    +0.000 A 
BRANCH   9  10
ATOM     10  C   UNL     1      51.229   3.657  17.585  0.00  0.00    +0.000 A 
ATOM     11  C   UNL     1      52.537   3.554  18.092  0.00  0.00    +0.000 A 
ATOM     12  C   UNL     1      53.165   2.314  18.248  0.00  0.00    +0.000 A 
ATOM     13  C   UNL     1      52.507   1.159  17.853  0.00  0.00    +0.000 A 
ATOM     14  F   UNL     1      53.096  -0.032  18.027  0.00  0.00    +0.000 F 
ATOM     15  C   UNL     1      51.243   1.220  17.290  0.00  0.00    +0.000 A 
ATOM     16  C   UNL     1      50.608   2.459  17.163  0.00  0.00    +0.000 A 
ENDBRANCH   9  10
BRANCH   4  18
ATOM     17  C   UNL     1      48.938   4.650  20.658  0.00  0.00    +0.000 C 
ATOM     18  O   UNL     1      49.005   4.253  19.296  0.00  0.00    +0.000 OA
ENDBRANCH   4  18
ENDBRANCH   1   7
BRANCH   1  19
ATOM     19  C   UNL     1      49.845   7.711  13.822  0.00  0.00    +0.000 C 
BRANCH  19  20
ATOM     20  N   UNL     1      48.461   8.137  13.676  0.00  0.00    +0.000 N 
ATOM     21  C   UNL     1      47.432   7.245  13.488  0.00  0.00    +0.000 A 
ATOM     22  C   UNL     1      47.429   5.918  13.933  0.00  0.00    +0.000 A 
ATOM     23  N   UNL     1      46.379   5.066  13.796  0.00  0.00    +0.000 NA
ATOM     24  C   UNL     1      45.290   5.617  13.194  0.00  0.00    +0.000 A 
ATOM     25  C   UNL     1      45.270   6.928  12.753  0.00  0.00    +0.000 A 
ATOM     26  N   UNL     1      46.337   7.758  12.887  0.00  0.00    +0.000 NA
ATOM     27  H   UNL     1      48.273   8.990  13.156  0.00  0.00    +0.000 HD
BRANCH  24  28
ATOM     28  C   UNL     1      44.088   4.755  13.028  0.00  0.00    +0.000 C 
ATOM     29  N   UNL     1      42.904   5.418  12.870  0.00  0.00    +0.000 N 
ATOM     30  O   UNL     1      44.154   3.532  13.035  0.00  0.00    +0.000 OA
ATOM     31  H   UNL     1      42.882   6.431  12.884  0.00  0.00    +0.000 HD
ATOM     32  H   UNL     1      42.047   4.889  12.765  0.00  0.00    +0.000 HD
ENDBRANCH  24  28
ENDBRANCH  19  20
ENDBRANCH   1  19
TORSDOF 6
ENDMDL
MODEL 9
REMARK VINA RESULT:    -6.148      3.940      6.086
REMARK INTER + INTRA:          -9.264
REMARK INTER:                  -7.907
REMARK INTRA:                  -1.357
REMARK UNBOUND:                -0.959
REMARK  Name = 
REMARK  9 active torsions:
REMARK  status: ('A' for Active; 'I' for Inactive)
REMARK    1  A    between atoms: C_1  and  O_2
REMARK    2  A    between atoms: O_2  and  C_3
REMARK    3  A    between atoms: C_6  and  C_7
REMARK    4  A    between atoms: C_7  and  C_8
REMARK    5  A    between atoms: C_7  and  C_9
REMARK    6  A    between atoms: C_7  and  C_10
REMARK    7  A    between atoms: C_10  and  N_11
REMARK    8  A    between atoms: C_15  and  C_16
REMARK    9  A    between atoms: C_22  and  C_23
REMARK                            x       y       z     vdW  Elec       q    Type
REMARK                         _______ _______ _______ _____ _____    ______ ____
ROOT
ATOM      1  C   UNL     1      50.595   8.722  13.361  0.00  0.00    +0.000 C 
ATOM      2  C   UNL     1      50.194  10.211  13.272  0.00  0.00    +0.000 C 
ATOM      3  C   UNL     1      52.018   8.566  12.756  0.00  0.00    +0.000 C 
ENDROOT
BRANCH   1   7
ATOM      4  C   UNL     1      50.587   7.433  17.557  0.00  0.00    +0.000 A 
ATOM      5  C   UNL     1      51.131   8.667  17.191  0.00  0.00    +0.000 A 
ATOM      6  C   UNL     1      51.134   9.087  15.861  0.00  0.00    +0.000 A 
ATOM      7  C   UNL     1      50.645   8.274  14.836  0.00  0.00    +0.000 A 
ATOM      8  C   UNL     1      50.138   7.014  15.216  0.00  0.00    +0.000 A 
ATOM      9  C   UNL     1      50.042   6.586  16.563  0.00  0.00    +0.000 A 
BRANCH   9  10
ATOM     10  C   UNL     1      49.296   5.334  16.879  0.00  0.00    +0.000 A 
ATOM     11  C   UNL     1      49.925   4.188  17.398  0.00  0.00    +0.000 A 
ATOM     12  C   UNL     1      49.187   3.079  17.825  0.00  0.00    +0.000 A 
ATOM     13  C   UNL     1      47.806   3.084  17.695  0.00  0.00    +0.000 A 
ATOM     14  F   UNL     1      47.096   2.034  18.128  0.00  0.00    +0.000 F 
ATOM     15  C   UNL     1      47.151   4.166  17.131  0.00  0.00    +0.000 A 
ATOM     16  C   UNL     1      47.891   5.284  16.733  0.00  0.00    +0.000 A 
ENDBRANCH   9  10
BRANCH   4  18
ATOM     17  C   UNL     1      49.536   7.631  19.697  0.00  0.00    +0.000 C 
ATOM     18  O   UNL     1      50.507   7.017  18.862  0.00  0.00    +0.000 OA
ENDBRANCH   4  18
ENDBRANCH   1   7
BRANCH   1  19
ATOM     19  C   UNL     1      49.654   7.875  12.439  0.00  0.00    +0.000 C 
BRANCH  19  20
ATOM     20  N   UNL     1      48.258   8.280  12.512  0.00  0.00    +0.000 N 
ATOM     21  C   UNL     1      47.231   7.371  12.611  0.00  0.00    +0.000 A 
ATOM     22  C   UNL     1      47.339   6.098  13.181  0.00  0.00    +0.000 A 
ATOM     23  N   UNL     1      46.301   5.234  13.329  0.00  0.00    +0.000 NA
ATOM     24  C   UNL     1      45.108   5.717  12.889  0.00  0.00    +0.000 A 
ATOM     25  C   UNL     1      44.977   6.975  12.328  0.00  0.00    +0.000 A 
ATOM     26  N   UNL     1      46.033   7.817  12.176  0.00  0.00    +0.000 NA
ATOM     27  H   UNL     1      47.958   9.075  11.952  0.00  0.00    +0.000 HD
BRANCH  24  28
ATOM     28  C   UNL     1      43.915   4.840  13.038  0.00  0.00    +0.000 C 
ATOM     29  N   UNL     1      42.707   5.477  13.014  0.00  0.00    +0.000 N 
ATOM     30  O   UNL     1      44.008   3.626  13.177  0.00  0.00    +0.000 OA
ATOM     31  H   UNL     1      42.665   6.485  12.914  0.00  0.00    +0.000 HD
ATOM     32  H   UNL     1      41.856   4.939  13.124  0.00  0.00    +0.000 HD
ENDBRANCH  24  28
ENDBRANCH  19  20
ENDBRANCH   1  19
TORSDOF 6
ENDMDL
