MODEL 1
REMARK VINA RESULT:    -7.928      0.000      0.000
REMARK INTER + INTRA:         -11.648
REMARK INTER:                 -10.709
REMARK INTRA:                  -0.939
REMARK UNBOUND:                -0.939
REMARK  Name = 
REMARK  6 active torsions:
REMARK  status: ('A' for Active; 'I' for Inactive)
REMARK    1  A    between atoms: C_2  and  C_25
REMARK    2  A    between atoms: N_3  and  C_4
REMARK    3  A    between atoms: C_4  and  C_5
REMARK    4  A    between atoms: C_8  and  C_9
REMARK    5  A    between atoms: C_9  and  N_10
REMARK    6  A    between atoms: C_11  and  C_13
REMARK                            x       y       z     vdW  Elec       q    Type
REMARK                         _______ _______ _______ _____ _____    ______ ____
ROOT
ATOM      1  C   UNL     1      44.848   6.037  11.093  0.00  0.00    +0.000 A 
ATOM      2  C   UNL     1      44.498   7.361  11.367  0.00  0.00    +0.000 A 
ATOM      3  C   UNL     1      45.290   8.122  12.223  0.00  0.00    +0.000 A 
ATOM      4  C   UNL     1      46.404   7.532  12.812  0.00  0.00    +0.000 A 
ATOM      5  N   UNL     1      46.770   6.251  12.552  0.00  0.00    +0.000 NA
ATOM      6  C   UNL     1      45.992   5.540  11.704  0.00  0.00    +0.000 A 
ENDROOT
BRANCH   1   7
ATOM      7  C   UNL     1      44.012   5.174  10.200  0.00  0.00    +0.000 C 
BRANCH   7  10
ATOM      8  O   UNL     1      44.927   2.526  10.118  0.00  0.00    +0.000 OA
ATOM      9  C   UNL     1      45.178   3.270   9.179  0.00  0.00    +0.000 C 
ATOM     10  N   UNL     1      44.788   4.592   9.133  0.00  0.00    +0.000 N 
ATOM     11  H   UNL     1      45.049   5.135   8.314  0.00  0.00    +0.000 HD
BRANCH   9  12
ATOM     12  C   UNL     1      45.929   2.783   7.989  0.00  0.00    +0.000 A 
ATOM     13  C   UNL     1      46.420   1.486   7.971  0.00  0.00    +0.000 A 
ATOM     14  N   UNL     1      47.091   0.979   6.904  0.00  0.00    +0.000 NA
ATOM     15  C   UNL     1      47.244   1.829   5.862  0.00  0.00    +0.000 A 
ATOM     16  C   UNL     1      46.757   3.129   5.883  0.00  0.00    +0.000 A 
ATOM     17  N   UNL     1      46.087   3.645   6.941  0.00  0.00    +0.000 NA
ENDBRANCH   9  12
ENDBRANCH   7  10
ENDBRANCH   1   7
BRANCH   4  18
ATOM     18  C   UNL     1      47.259   8.315  13.777  0.00  0.00    +0.000 C 
BRANCH  18  19
ATOM     19  N   UNL     1      47.674   7.526  14.912  0.00  0.00    +0.000 N 
ATOM     20  C   UNL     1      48.906   6.933  14.993  0.00  0.00    +0.000 C 
ATOM     21  O   UNL     1      49.738   7.033  14.095  0.00  0.00    +0.000 OA
ATOM     22  H   UNL     1      46.932   7.245  15.546  0.00  0.00    +0.000 HD
BRANCH  20  23
ATOM     23  C   UNL     1      49.210   6.231  16.247  0.00  0.00    +0.000 A 
ATOM     24  C   UNL     1      50.230   6.697  17.066  0.00  0.00    +0.000 A 
ATOM     25  S   UNL     1      50.427   5.792  18.499  0.00  0.00    +0.000 S 
ATOM     26  C   UNL     1      49.186   4.717  18.054  0.00  0.00    +0.000 A 
ATOM     27  N   UNL     1      48.857   3.662  18.848  0.00  0.00    +0.000 NA
ATOM     28  C   UNL     1      47.919   2.911  18.374  0.00  0.00    +0.000 A 
ATOM     29  N   UNL     1      47.274   3.125  17.185  0.00  0.00    +0.000 N 
ATOM     30  C   UNL     1      47.534   4.206  16.379  0.00  0.00    +0.000 A 
ATOM     31  O   UNL     1      46.872   4.419  15.370  0.00  0.00    +0.000 OA
ATOM     32  C   UNL     1      48.609   5.062  16.845  0.00  0.00    +0.000 A 
ATOM     33  H   UNL     1      46.530   2.514  16.880  0.00  0.00    +0.000 HD
ENDBRANCH  20  23
ENDBRANCH  18  19
ENDBRANCH   4  18
TORSDOF 6
ENDMDL
MODEL 2
REMARK VINA RESULT:    -7.376      4.777      9.850
REMARK INTER + INTRA:         -10.903
REMARK INTER:                 -10.127
REMARK INTRA:                  -0.775
REMARK UNBOUND:                -0.939
REMARK  Name = 
REMARK  6 active torsions:
REMARK  status: ('A' for Active; 'I' for Inactive)
REMARK    1  A    between atoms: C_2  and  C_25
REMARK    2  A    between atoms: N_3  and  C_4
REMARK    3  A    between atoms: C_4  and  C_5
REMARK    4  A    between atoms: C_8  and  C_9
REMARK    5  A    between atoms: C_9  and  N_10
REMARK    6  A    between atoms: C_11  and  C_13
REMARK                            x       y       z     vdW  Elec       q    Type
REMARK                         _______ _______ _______ _____ _____    ______ ____
ROOT
ATOM      1  C   UNL     1      51.279   3.172  17.812  0.00  0.00    +0.000 A 
ATOM      2  C   UNL     1      50.641   2.093  17.198  0.00  0.00    +0.000 A 
ATOM      3  C   UNL     1      49.290   2.183  16.872  0.00  0.00    +0.000 A 
ATOM      4  C   UNL     1      48.596   3.345  17.195  0.00  0.00    +0.000 A 
ATOM      5  N   UNL     1      49.198   4.411  17.781  0.00  0.00    +0.000 NA
ATOM      6  C   UNL     1      50.514   4.302  18.071  0.00  0.00    +0.000 A 
ENDROOT
BRANCH   1   7
ATOM      7  C   UNL     1      52.722   3.110  18.204  0.00  0.00    +0.000 C 
BRANCH   7  10
ATOM      8  O   UNL     1      54.811   1.648  17.038  0.00  0.00    +0.000 OA
ATOM      9  C   UNL     1      54.176   1.147  17.957  0.00  0.00    +0.000 C 
ATOM     10  N   UNL     1      53.121   1.777  18.584  0.00  0.00    +0.000 N 
ATOM     11  H   UNL     1      52.649   1.278  19.334  0.00  0.00    +0.000 HD
BRANCH   9  12
ATOM     12  C   UNL     1      54.515  -0.205  18.481  0.00  0.00    +0.000 A 
ATOM     13  C   UNL     1      54.653  -1.268  17.599  0.00  0.00    +0.000 A 
ATOM     14  N   UNL     1      54.986  -2.517  18.015  0.00  0.00    +0.000 NA
ATOM     15  C   UNL     1      55.173  -2.650  19.349  0.00  0.00    +0.000 A 
ATOM     16  C   UNL     1      55.029  -1.587  20.231  0.00  0.00    +0.000 A 
ATOM     17  N   UNL     1      54.698  -0.337  19.828  0.00  0.00    +0.000 NA
ENDBRANCH   9  12
ENDBRANCH   7  10
ENDBRANCH   1   7
BRANCH   4  18
ATOM     18  C   UNL     1      47.123   3.460  16.894  0.00  0.00    +0.000 C 
BRANCH  18  19
ATOM     19  N   UNL     1      46.841   4.450  15.883  0.00  0.00    +0.000 N 
ATOM     20  C   UNL     1      46.932   4.188  14.542  0.00  0.00    +0.000 C 
ATOM     21  O   UNL     1      47.267   3.087  14.114  0.00  0.00    +0.000 OA
ATOM     22  H   UNL     1      46.790   5.410  16.211  0.00  0.00    +0.000 HD
BRANCH  20  23
ATOM     23  C   UNL     1      46.536   5.275  13.638  0.00  0.00    +0.000 A 
ATOM     24  C   UNL     1      47.418   6.319  13.388  0.00  0.00    +0.000 A 
ATOM     25  S   UNL     1      46.818   7.476  12.288  0.00  0.00    +0.000 S 
ATOM     26  C   UNL     1      45.339   6.647  12.139  0.00  0.00    +0.000 A 
ATOM     27  N   UNL     1      44.342   7.132  11.350  0.00  0.00    +0.000 NA
ATOM     28  C   UNL     1      43.266   6.419  11.354  0.00  0.00    +0.000 A 
ATOM     29  N   UNL     1      43.099   5.260  12.066  0.00  0.00    +0.000 N 
ATOM     30  C   UNL     1      44.096   4.706  12.831  0.00  0.00    +0.000 A 
ATOM     31  O   UNL     1      43.945   3.620  13.379  0.00  0.00    +0.000 OA
ATOM     32  C   UNL     1      45.316   5.488  12.894  0.00  0.00    +0.000 A 
ATOM     33  H   UNL     1      42.239   4.734  12.009  0.00  0.00    +0.000 HD
ENDBRANCH  20  23
ENDBRANCH  18  19
ENDBRANCH   4  18
TORSDOF 6
ENDMDL
MODEL 3
REMARK VINA RESULT:    -7.362      1.606      2.133
REMARK INTER + INTRA:         -10.883
REMARK INTER:                 -10.196
REMARK INTRA:                  -0.687
REMARK UNBOUND:                -0.939
REMARK  Name = 
REMARK  6 active torsions:
REMARK  status: ('A' for Active; 'I' for Inactive)
REMARK    1  A    between atoms: C_2  and  C_25
REMARK    2  A    between atoms: N_3  and  C_4
REMARK    3  A    between atoms: C_4  and  C_5
REMARK    4  A    between atoms: C_8  and  C_9
REMARK    5  A    between atoms: C_9  and  N_10
REMARK    6  A    between atoms: C_11  and  C_13
REMARK                            x       y       z     vdW  Elec       q    Type
REMARK                         _______ _______ _______ _____ _____    ______ ____
ROOT
ATOM      1  C   UNL     1      44.537   4.586  11.811  0.00  0.00    +0.000 A 
ATOM      2  C   UNL     1      45.649   4.524  12.653  0.00  0.00    +0.000 A 
ATOM      3  C   UNL     1      46.221   5.700  13.129  0.00  0.00    +0.000 A 
ATOM      4  C   UNL     1      45.685   6.920  12.727  0.00  0.00    +0.000 A 
ATOM      5  N   UNL     1      44.597   7.005  11.919  0.00  0.00    +0.000 NA
ATOM      6  C   UNL     1      44.051   5.846  11.486  0.00  0.00    +0.000 A 
ENDROOT
BRANCH   1   7
ATOM      7  C   UNL     1      43.905   3.348  11.255  0.00  0.00    +0.000 C 
BRANCH   7  10
ATOM      8  O   UNL     1      44.246   4.179   8.600  0.00  0.00    +0.000 OA
ATOM      9  C   UNL     1      44.863   3.200   8.999  0.00  0.00    +0.000 C 
ATOM     10  N   UNL     1      44.750   2.702  10.281  0.00  0.00    +0.000 N 
ATOM     11  H   UNL     1      45.297   1.879  10.520  0.00  0.00    +0.000 HD
BRANCH   9  12
ATOM     12  C   UNL     1      45.808   2.469   8.111  0.00  0.00    +0.000 A 
ATOM     13  C   UNL     1      46.431   3.142   7.070  0.00  0.00    +0.000 A 
ATOM     14  N   UNL     1      47.321   2.534   6.243  0.00  0.00    +0.000 NA
ATOM     15  C   UNL     1      47.556   1.228   6.508  0.00  0.00    +0.000 A 
ATOM     16  C   UNL     1      46.928   0.554   7.547  0.00  0.00    +0.000 A 
ATOM     17  N   UNL     1      46.039   1.149   8.377  0.00  0.00    +0.000 NA
ENDBRANCH   9  12
ENDBRANCH   7  10
ENDBRANCH   1   7
BRANCH   4  18
ATOM     18  C   UNL     1      46.307   8.214  13.190  0.00  0.00    +0.000 C 
BRANCH  18  19
ATOM     19  N   UNL     1      47.164   8.035  14.337  0.00  0.00    +0.000 N 
ATOM     20  C   UNL     1      48.528   7.964  14.241  0.00  0.00    +0.000 C 
ATOM     21  O   UNL     1      49.110   8.044  13.162  0.00  0.00    +0.000 OA
ATOM     22  H   UNL     1      46.698   7.741  15.191  0.00  0.00    +0.000 HD
BRANCH  20  23
ATOM     23  C   UNL     1      49.266   7.862  15.506  0.00  0.00    +0.000 A 
ATOM     24  C   UNL     1      50.049   8.927  15.934  0.00  0.00    +0.000 A 
ATOM     25  S   UNL     1      50.807   8.661  17.438  0.00  0.00    +0.000 S 
ATOM     26  C   UNL     1      50.153   7.094  17.552  0.00  0.00    +0.000 A 
ATOM     27  N   UNL     1      50.440   6.292  18.612  0.00  0.00    +0.000 NA
ATOM     28  C   UNL     1      49.902   5.119  18.554  0.00  0.00    +0.000 A 
ATOM     29  N   UNL     1      49.094   4.681  17.539  0.00  0.00    +0.000 N 
ATOM     30  C   UNL     1      48.732   5.475  16.478  0.00  0.00    +0.000 A 
ATOM     31  O   UNL     1      47.932   5.084  15.636  0.00  0.00    +0.000 OA
ATOM     32  C   UNL     1      49.342   6.791  16.472  0.00  0.00    +0.000 A 
ATOM     33  H   UNL     1      48.682   3.759  17.563  0.00  0.00    +0.000 HD
ENDBRANCH  20  23
ENDBRANCH  18  19
ENDBRANCH   4  18
TORSDOF 6
ENDMDL
MODEL 4
REMARK VINA RESULT:    -7.270      2.125      3.770
REMARK INTER + INTRA:         -10.759
REMARK INTER:                  -9.892
REMARK INTRA:                  -0.868
REMARK UNBOUND:                -0.939
REMARK  Name = 
REMARK  6 active torsions:
REMARK  status: ('A' for Active; 'I' for Inactive)
REMARK    1  A    between atoms: C_2  and  C_25
REMARK    2  A    between atoms: N_3  and  C_4
REMARK    3  A    between atoms: C_4  and  C_5
REMARK    4  A    between atoms: C_8  and  C_9
REMARK    5  A    between atoms: C_9  and  N_10
REMARK    6  A    between atoms: C_11  and  C_13
REMARK                            x       y       z     vdW  Elec       q    Type
REMARK                         _______ _______ _______ _____ _____    ______ ____
ROOT
ATOM      1  C   UNL     1      44.903   4.377  11.534  0.00  0.00    +0.000 A 
ATOM      2  C   UNL     1      45.519   3.255  12.090  0.00  0.00    +0.000 A 
ATOM      3  C   UNL     1      46.177   3.362  13.312  0.00  0.00    +0.000 A 
ATOM      4  C   UNL     1      46.230   4.602  13.941  0.00  0.00    +0.000 A 
ATOM      5  N   UNL     1      45.629   5.705  13.426  0.00  0.00    +0.000 NA
ATOM      6  C   UNL     1      44.982   5.567  12.246  0.00  0.00    +0.000 A 
ENDROOT
BRANCH   1   7
ATOM      7  C   UNL     1      44.207   4.315  10.210  0.00  0.00    +0.000 C 
BRANCH   7  10
ATOM      8  O   UNL     1      44.657   1.777   9.108  0.00  0.00    +0.000 OA
ATOM      9  C   UNL     1      45.260   2.739   8.649  0.00  0.00    +0.000 C 
ATOM     10  N   UNL     1      45.121   4.023   9.133  0.00  0.00    +0.000 N 
ATOM     11  H   UNL     1      45.669   4.758   8.693  0.00  0.00    +0.000 HD
BRANCH   9  12
ATOM     12  C   UNL     1      46.198   2.586   7.503  0.00  0.00    +0.000 A 
ATOM     13  C   UNL     1      47.040   1.484   7.448  0.00  0.00    +0.000 A 
ATOM     14  N   UNL     1      47.898   1.279   6.416  0.00  0.00    +0.000 NA
ATOM     15  C   UNL     1      47.873   2.224   5.447  0.00  0.00    +0.000 A 
ATOM     16  C   UNL     1      47.034   3.328   5.506  0.00  0.00    +0.000 A 
ATOM     17  N   UNL     1      46.174   3.544   6.530  0.00  0.00    +0.000 NA
ENDBRANCH   9  12
ENDBRANCH   7  10
ENDBRANCH   1   7
BRANCH   4  18
ATOM     18  C   UNL     1      46.971   4.762  15.245  0.00  0.00    +0.000 C 
BRANCH  18  19
ATOM     19  N   UNL     1      47.851   5.907  15.243  0.00  0.00    +0.000 N 
ATOM     20  C   UNL     1      49.010   5.953  15.970  0.00  0.00    +0.000 C 
ATOM     21  O   UNL     1      49.373   5.017  16.679  0.00  0.00    +0.000 OA
ATOM     22  H   UNL     1      47.459   6.760  14.855  0.00  0.00    +0.000 HD
BRANCH  20  23
ATOM     23  C   UNL     1      49.838   7.153  15.800  0.00  0.00    +0.000 A 
ATOM     24  C   UNL     1      50.385   7.775  16.915  0.00  0.00    +0.000 A 
ATOM     25  S   UNL     1      51.351   9.130  16.541  0.00  0.00    +0.000 S 
ATOM     26  C   UNL     1      51.036   8.963  14.877  0.00  0.00    +0.000 A 
ATOM     27  N   UNL     1      51.550   9.842  13.976  0.00  0.00    +0.000 NA
ATOM     28  C   UNL     1      51.206   9.614  12.752  0.00  0.00    +0.000 A 
ATOM     29  N   UNL     1      50.403   8.581  12.347  0.00  0.00    +0.000 N 
ATOM     30  C   UNL     1      49.907   7.638  13.214  0.00  0.00    +0.000 A 
ATOM     31  O   UNL     1      49.271   6.673  12.806  0.00  0.00    +0.000 OA
ATOM     32  C   UNL     1      50.231   7.869  14.609  0.00  0.00    +0.000 A 
ATOM     33  H   UNL     1      50.190   8.441  11.370  0.00  0.00    +0.000 HD
ENDBRANCH  20  23
ENDBRANCH  18  19
ENDBRANCH   4  18
TORSDOF 6
ENDMDL
MODEL 5
REMARK VINA RESULT:    -7.217      2.368      2.644
REMARK INTER + INTRA:         -10.688
REMARK INTER:                  -9.730
REMARK INTRA:                  -0.958
REMARK UNBOUND:                -0.939
REMARK  Name = 
REMARK  6 active torsions:
REMARK  status: ('A' for Active; 'I' for Inactive)
REMARK    1  A    between atoms: C_2  and  C_25
REMARK    2  A    between atoms: N_3  and  C_4
REMARK    3  A    between atoms: C_4  and  C_5
REMARK    4  A    between atoms: C_8  and  C_9
REMARK    5  A    between atoms: C_9  and  N_10
REMARK    6  A    between atoms: C_11  and  C_13
REMARK                            x       y       z     vdW  Elec       q    Type
REMARK                         _______ _______ _______ _____ _____    ______ ____
ROOT
ATOM      1  C   UNL     1      45.643   4.794  12.310  0.00  0.00    +0.000 A 
ATOM      2  C   UNL     1      45.830   6.024  11.676  0.00  0.00    +0.000 A 
ATOM      3  C   UNL     1      46.671   6.974  12.247  0.00  0.00    +0.000 A 
ATOM      4  C   UNL     1      47.289   6.685  13.460  0.00  0.00    +0.000 A 
ATOM      5  N   UNL     1      47.132   5.492  14.089  0.00  0.00    +0.000 NA
ATOM      6  C   UNL     1      46.322   4.581  13.503  0.00  0.00    +0.000 A 
ENDROOT
BRANCH   1   7
ATOM      7  C   UNL     1      44.727   3.752  11.747  0.00  0.00    +0.000 C 
BRANCH   7  10
ATOM      8  O   UNL     1      44.208   4.236   9.035  0.00  0.00    +0.000 OA
ATOM      9  C   UNL     1      45.018   3.370   9.340  0.00  0.00    +0.000 C 
ATOM     10  N   UNL     1      45.329   3.045  10.644  0.00  0.00    +0.000 N 
ATOM     11  H   UNL     1      46.009   2.306  10.799  0.00  0.00    +0.000 HD
BRANCH   9  12
ATOM     12  C   UNL     1      45.749   2.597   8.297  0.00  0.00    +0.000 A 
ATOM     13  C   UNL     1      46.133   3.225   7.121  0.00  0.00    +0.000 A 
ATOM     14  N   UNL     1      46.823   2.578   6.146  0.00  0.00    +0.000 NA
ATOM     15  C   UNL     1      47.108   1.281   6.405  0.00  0.00    +0.000 A 
ATOM     16  C   UNL     1      46.719   0.652   7.580  0.00  0.00    +0.000 A 
ATOM     17  N   UNL     1      46.031   1.287   8.559  0.00  0.00    +0.000 NA
ENDBRANCH   9  12
ENDBRANCH   7  10
ENDBRANCH   1   7
BRANCH   4  18
ATOM     18  C   UNL     1      48.174   7.709  14.127  0.00  0.00    +0.000 C 
BRANCH  18  19
ATOM     19  N   UNL     1      47.958   7.780  15.552  0.00  0.00    +0.000 N 
ATOM     20  C   UNL     1      48.761   8.508  16.388  0.00  0.00    +0.000 C 
ATOM     21  O   UNL     1      49.725   9.147  15.975  0.00  0.00    +0.000 OA
ATOM     22  H   UNL     1      47.320   7.088  15.934  0.00  0.00    +0.000 HD
BRANCH  20  23
ATOM     23  C   UNL     1      48.364   8.548  17.802  0.00  0.00    +0.000 A 
ATOM     24  C   UNL     1      48.266   9.769  18.455  0.00  0.00    +0.000 A 
ATOM     25  S   UNL     1      47.758   9.640  20.078  0.00  0.00    +0.000 S 
ATOM     26  C   UNL     1      47.694   7.943  19.980  0.00  0.00    +0.000 A 
ATOM     27  N   UNL     1      47.350   7.192  21.062  0.00  0.00    +0.000 NA
ATOM     28  C   UNL     1      47.373   5.918  20.855  0.00  0.00    +0.000 A 
ATOM     29  N   UNL     1      47.698   5.326  19.662  0.00  0.00    +0.000 N 
ATOM     30  C   UNL     1      47.998   6.045  18.531  0.00  0.00    +0.000 A 
ATOM     31  O   UNL     1      48.191   5.487  17.457  0.00  0.00    +0.000 OA
ATOM     32  C   UNL     1      48.026   7.484  18.718  0.00  0.00    +0.000 A 
ATOM     33  H   UNL     1      47.673   4.323  19.556  0.00  0.00    +0.000 HD
ENDBRANCH  20  23
ENDBRANCH  18  19
ENDBRANCH   4  18
TORSDOF 6
ENDMDL
MODEL 6
REMARK VINA RESULT:    -6.944      3.952      8.664
REMARK INTER + INTRA:         -10.320
REMARK INTER:                  -9.255
REMARK INTRA:                  -1.065
REMARK UNBOUND:                -0.939
REMARK  Name = 
REMARK  6 active torsions:
REMARK  status: ('A' for Active; 'I' for Inactive)
REMARK    1  A    between atoms: C_2  and  C_25
REMARK    2  A    between atoms: N_3  and  C_4
REMARK    3  A    between atoms: C_4  and  C_5
REMARK    4  A    between atoms: C_8  and  C_9
REMARK    5  A    between atoms: C_9  and  N_10
REMARK    6  A    between atoms: C_11  and  C_13
REMARK                            x       y       z     vdW  Elec       q    Type
REMARK                         _______ _______ _______ _____ _____    ______ ____
ROOT
ATOM      1  C   UNL     1      49.507   4.556  17.554  0.00  0.00    +0.000 A 
ATOM      2  C   UNL     1      50.256   5.708  17.302  0.00  0.00    +0.000 A 
ATOM      3  C   UNL     1      49.857   6.586  16.299  0.00  0.00    +0.000 A 
ATOM      4  C   UNL     1      48.727   6.278  15.546  0.00  0.00    +0.000 A 
ATOM      5  N   UNL     1      47.977   5.172  15.780  0.00  0.00    +0.000 NA
ATOM      6  C   UNL     1      48.379   4.345  16.772  0.00  0.00    +0.000 A 
ENDROOT
BRANCH   1   7
ATOM      7  C   UNL     1      49.915   3.571  18.605  0.00  0.00    +0.000 C 
BRANCH   7  10
ATOM      8  O   UNL     1      50.771   1.373  17.090  0.00  0.00    +0.000 OA
ATOM      9  C   UNL     1      51.606   2.060  17.664  0.00  0.00    +0.000 C 
ATOM     10  N   UNL     1      51.285   3.150  18.447  0.00  0.00    +0.000 N 
ATOM     11  H   UNL     1      52.047   3.655  18.891  0.00  0.00    +0.000 HD
BRANCH   9  12
ATOM     12  C   UNL     1      53.061   1.765  17.545  0.00  0.00    +0.000 A 
ATOM     13  C   UNL     1      53.479   0.468  17.287  0.00  0.00    +0.000 A 
ATOM     14  N   UNL     1      54.789   0.143  17.144  0.00  0.00    +0.000 NA
ATOM     15  C   UNL     1      55.656   1.175  17.269  0.00  0.00    +0.000 A 
ATOM     16  C   UNL     1      55.237   2.472  17.532  0.00  0.00    +0.000 A 
ATOM     17  N   UNL     1      53.933   2.808  17.677  0.00  0.00    +0.000 NA
ENDBRANCH   9  12
ENDBRANCH   7  10
ENDBRANCH   1   7
BRANCH   4  18
ATOM     18  C   UNL     1      48.290   7.187  14.424  0.00  0.00    +0.000 C 
BRANCH  18  19
ATOM     19  N   UNL     1      47.034   6.779  13.841  0.00  0.00    +0.000 N 
ATOM     20  C   UNL     1      46.806   6.786  12.491  0.00  0.00    +0.000 C 
ATOM     21  O   UNL     1      47.660   7.148  11.686  0.00  0.00    +0.000 OA
ATOM     22  H   UNL     1      46.256   6.700  14.488  0.00  0.00    +0.000 HD
BRANCH  20  23
ATOM     23  C   UNL     1      45.506   6.266  12.047  0.00  0.00    +0.000 A 
ATOM     24  C   UNL     1      44.573   7.131  11.489  0.00  0.00    +0.000 A 
ATOM     25  S   UNL     1      43.135   6.361  10.993  0.00  0.00    +0.000 S 
ATOM     26  C   UNL     1      43.688   4.850  11.548  0.00  0.00    +0.000 A 
ATOM     27  N   UNL     1      42.907   3.741  11.450  0.00  0.00    +0.000 NA
ATOM     28  C   UNL     1      43.439   2.670  11.938  0.00  0.00    +0.000 A 
ATOM     29  N   UNL     1      44.685   2.606  12.504  0.00  0.00    +0.000 N 
ATOM     30  C   UNL     1      45.529   3.687  12.574  0.00  0.00    +0.000 A 
ATOM     31  O   UNL     1      46.672   3.573  13.000  0.00  0.00    +0.000 OA
ATOM     32  C   UNL     1      44.964   4.928  12.075  0.00  0.00    +0.000 A 
ATOM     33  H   UNL     1      45.055   1.731  12.847  0.00  0.00    +0.000 HD
ENDBRANCH  20  23
ENDBRANCH  18  19
ENDBRANCH   4  18
TORSDOF 6
ENDMDL
MODEL 7
REMARK VINA RESULT:    -6.833      4.932      9.481
REMARK INTER + INTRA:         -10.169
REMARK INTER:                  -9.102
REMARK INTRA:                  -1.067
REMARK UNBOUND:                -0.939
REMARK  Name = 
REMARK  6 active torsions:
REMARK  status: ('A' for Active; 'I' for Inactive)
REMARK    1  A    between atoms: C_2  and  C_25
REMARK    2  A    between atoms: N_3  and  C_4
REMARK    3  A    between atoms: C_4  and  C_5
REMARK    4  A    between atoms: C_8  and  C_9
REMARK    5  A    between atoms: C_9  and  N_10
REMARK    6  A    between atoms: C_11  and  C_13
REMARK                            x       y       z     vdW  Elec       q    Type
REMARK                         _______ _______ _______ _____ _____    ______ ____
ROOT
ATOM      1  C   UNL     1      51.437   3.065  17.758  0.00  0.00    +0.000 A 
ATOM      2  C   UNL     1      50.779   4.224  18.174  0.00  0.00    +0.000 A 
ATOM      3  C   UNL     1      49.425   4.388  17.897  0.00  0.00    +0.000 A 
ATOM      4  C   UNL     1      48.761   3.397  17.180  0.00  0.00    +0.000 A 
ATOM      5  N   UNL     1      49.376   2.257  16.775  0.00  0.00    +0.000 NA
ATOM      6  C   UNL     1      50.688   2.117  17.073  0.00  0.00    +0.000 A 
ENDROOT
BRANCH   1   7
ATOM      7  C   UNL     1      52.898   2.859  18.012  0.00  0.00    +0.000 C 
BRANCH   7  10
ATOM      8  O   UNL     1      54.392   1.035  19.528  0.00  0.00    +0.000 OA
ATOM      9  C   UNL     1      54.066   0.732  18.387  0.00  0.00    +0.000 C 
ATOM     10  N   UNL     1      53.347   1.566  17.556  0.00  0.00    +0.000 N 
ATOM     11  H   UNL     1      53.128   1.231  16.622  0.00  0.00    +0.000 HD
BRANCH   9  12
ATOM     12  C   UNL     1      54.422  -0.593  17.809  0.00  0.00    +0.000 A 
ATOM     13  C   UNL     1      54.739  -0.692  16.462  0.00  0.00    +0.000 A 
ATOM     14  N   UNL     1      55.095  -1.868  15.886  0.00  0.00    +0.000 NA
ATOM     15  C   UNL     1      55.120  -2.935  16.718  0.00  0.00    +0.000 A 
ATOM     16  C   UNL     1      54.799  -2.836  18.065  0.00  0.00    +0.000 A 
ATOM     17  N   UNL     1      54.442  -1.668  18.651  0.00  0.00    +0.000 NA
ENDBRANCH   9  12
ENDBRANCH   7  10
ENDBRANCH   1   7
BRANCH   4  18
ATOM     18  C   UNL     1      47.304   3.561  16.825  0.00  0.00    +0.000 C 
BRANCH  18  19
ATOM     19  N   UNL     1      47.090   4.582  15.827  0.00  0.00    +0.000 N 
ATOM     20  C   UNL     1      47.003   4.305  14.489  0.00  0.00    +0.000 C 
ATOM     21  O   UNL     1      47.108   3.162  14.052  0.00  0.00    +0.000 OA
ATOM     22  H   UNL     1      47.231   5.538  16.140  0.00  0.00    +0.000 HD
BRANCH  20  23
ATOM     23  C   UNL     1      46.703   5.439  13.607  0.00  0.00    +0.000 A 
ATOM     24  C   UNL     1      45.534   5.438  12.857  0.00  0.00    +0.000 A 
ATOM     25  S   UNL     1      45.319   6.844  11.916  0.00  0.00    +0.000 S 
ATOM     26  C   UNL     1      46.805   7.487  12.442  0.00  0.00    +0.000 A 
ATOM     27  N   UNL     1      47.250   8.687  11.980  0.00  0.00    +0.000 NA
ATOM     28  C   UNL     1      48.404   9.039  12.438  0.00  0.00    +0.000 A 
ATOM     29  N   UNL     1      49.150   8.306  13.323  0.00  0.00    +0.000 N 
ATOM     30  C   UNL     1      48.716   7.117  13.858  0.00  0.00    +0.000 A 
ATOM     31  O   UNL     1      49.364   6.534  14.719  0.00  0.00    +0.000 OA
ATOM     32  C   UNL     1      47.439   6.654  13.346  0.00  0.00    +0.000 A 
ATOM     33  H   UNL     1      50.036   8.647  13.664  0.00  0.00    +0.000 HD
ENDBRANCH  20  23
ENDBRANCH  18  19
ENDBRANCH   4  18
TORSDOF 6
ENDMDL
MODEL 8
REMARK VINA RESULT:    -6.815      2.478      3.643
REMARK INTER + INTRA:         -10.145
REMARK INTER:                  -9.472
REMARK INTRA:                  -0.673
REMARK UNBOUND:                -0.939
REMARK  Name = 
REMARK  6 active torsions:
REMARK  status: ('A' for Active; 'I' for Inactive)
REMARK    1  A    between atoms: C_2  and  C_25
REMARK    2  A    between atoms: N_3  and  C_4
REMARK    3  A    between atoms: C_4  and  C_5
REMARK    4  A    between atoms: C_8  and  C_9
REMARK    5  A    between atoms: C_9  and  N_10
REMARK    6  A    between atoms: C_11  and  C_13
REMARK                            x       y       z     vdW  Elec       q    Type
REMARK                         _______ _______ _______ _____ _____    ______ ____
ROOT
ATOM      1  C   UNL     1      44.981   4.499  11.437  0.00  0.00    +0.000 A 
ATOM      2  C   UNL     1      45.289   3.334  12.142  0.00  0.00    +0.000 A 
ATOM      3  C   UNL     1      45.969   3.419  13.353  0.00  0.00    +0.000 A 
ATOM      4  C   UNL     1      46.355   4.672  13.822  0.00  0.00    +0.000 A 
ATOM      5  N   UNL     1      46.056   5.819  13.160  0.00  0.00    +0.000 NA
ATOM      6  C   UNL     1      45.379   5.707  11.994  0.00  0.00    +0.000 A 
ENDROOT
BRANCH   1   7
ATOM      7  C   UNL     1      44.274   4.453  10.118  0.00  0.00    +0.000 C 
BRANCH   7  10
ATOM      8  O   UNL     1      44.776   1.872   9.146  0.00  0.00    +0.000 OA
ATOM      9  C   UNL     1      45.338   2.824   8.620  0.00  0.00    +0.000 C 
ATOM     10  N   UNL     1      45.171   4.129   9.036  0.00  0.00    +0.000 N 
ATOM     11  H   UNL     1      45.685   4.853   8.542  0.00  0.00    +0.000 HD
BRANCH   9  12
ATOM     12  C   UNL     1      46.253   2.635   7.461  0.00  0.00    +0.000 A 
ATOM     13  C   UNL     1      47.073   1.517   7.410  0.00  0.00    +0.000 A 
ATOM     14  N   UNL     1      47.909   1.279   6.367  0.00  0.00    +0.000 NA
ATOM     15  C   UNL     1      47.884   2.208   5.383  0.00  0.00    +0.000 A 
ATOM     16  C   UNL     1      47.067   3.329   5.437  0.00  0.00    +0.000 A 
ATOM     17  N   UNL     1      46.229   3.577   6.472  0.00  0.00    +0.000 NA
ENDBRANCH   9  12
ENDBRANCH   7  10
ENDBRANCH   1   7
BRANCH   4  18
ATOM     18  C   UNL     1      47.130   4.797  15.109  0.00  0.00    +0.000 C 
BRANCH  18  19
ATOM     19  N   UNL     1      47.864   6.037  15.193  0.00  0.00    +0.000 N 
ATOM     20  C   UNL     1      48.988   6.184  15.961  0.00  0.00    +0.000 C 
ATOM     21  O   UNL     1      49.442   5.264  16.636  0.00  0.00    +0.000 OA
ATOM     22  H   UNL     1      47.383   6.857  14.834  0.00  0.00    +0.000 HD
BRANCH  20  23
ATOM     23  C   UNL     1      49.668   7.483  15.879  0.00  0.00    +0.000 A 
ATOM     24  C   UNL     1      50.329   7.841  14.711  0.00  0.00    +0.000 A 
ATOM     25  S   UNL     1      51.032   9.393  14.768  0.00  0.00    +0.000 S 
ATOM     26  C   UNL     1      50.518   9.626  16.373  0.00  0.00    +0.000 A 
ATOM     27  N   UNL     1      50.824  10.768  17.047  0.00  0.00    +0.000 NA
ATOM     28  C   UNL     1      50.398  10.798  18.265  0.00  0.00    +0.000 A 
ATOM     29  N   UNL     1      49.684   9.796  18.867  0.00  0.00    +0.000 N 
ATOM     30  C   UNL     1      49.305   8.651  18.210  0.00  0.00    +0.000 A 
ATOM     31  O   UNL     1      48.587   7.818  18.749  0.00  0.00    +0.000 OA
ATOM     32  C   UNL     1      49.793   8.547  16.847  0.00  0.00    +0.000 A 
ATOM     33  H   UNL     1      49.357   9.890  19.818  0.00  0.00    +0.000 HD
ENDBRANCH  20  23
ENDBRANCH  18  19
ENDBRANCH   4  18
TORSDOF 6
ENDMDL
MODEL 9
REMARK VINA RESULT:    -6.460      2.279      2.969
REMARK INTER + INTRA:          -9.665
REMARK INTER:                  -8.930
REMARK INTRA:                  -0.735
REMARK UNBOUND:                -0.939
REMARK  Name = 
REMARK  6 active torsions:
REMARK  status: ('A' for Active; 'I' for Inactive)
REMARK    1  A    between atoms: C_2  and  C_25
REMARK    2  A    between atoms: N_3  and  C_4
REMARK    3  A    between atoms: C_4  and  C_5
REMARK    4  A    between atoms: C_8  and  C_9
REMARK    5  A    between atoms: C_9  and  N_10
REMARK    6  A    between atoms: C_11  and  C_13
REMARK                            x       y       z     vdW  Elec       q    Type
REMARK                         _______ _______ _______ _____ _____    ______ ____
ROOT
ATOM      1  C   UNL     1      45.863   6.205  11.884  0.00  0.00    +0.000 A 
ATOM      2  C   UNL     1      46.298   7.530  11.944  0.00  0.00    +0.000 A 
ATOM      3  C   UNL     1      47.181   7.923  12.945  0.00  0.00    +0.000 A 
ATOM      4  C   UNL     1      47.590   6.985  13.888  0.00  0.00    +0.000 A 
ATOM      5  N   UNL     1      47.191   5.688  13.843  0.00  0.00    +0.000 NA
ATOM      6  C   UNL     1      46.345   5.330  12.850  0.00  0.00    +0.000 A 
ENDROOT
BRANCH   1   7
ATOM      7  C   UNL     1      44.893   5.744  10.841  0.00  0.00    +0.000 C 
BRANCH   7  10
ATOM      8  O   UNL     1      43.931   3.311   9.834  0.00  0.00    +0.000 OA
ATOM      9  C   UNL     1      44.970   3.772   9.381  0.00  0.00    +0.000 C 
ATOM     10  N   UNL     1      45.534   4.951   9.821  0.00  0.00    +0.000 N 
ATOM     11  H   UNL     1      46.405   5.251   9.389  0.00  0.00    +0.000 HD
BRANCH   9  12
ATOM     12  C   UNL     1      45.709   3.079   8.289  0.00  0.00    +0.000 A 
ATOM     13  C   UNL     1      46.063   1.746   8.439  0.00  0.00    +0.000 A 
ATOM     14  N   UNL     1      46.715   1.056   7.468  0.00  0.00    +0.000 NA
ATOM     15  C   UNL     1      46.991   1.759   6.346  0.00  0.00    +0.000 A 
ATOM     16  C   UNL     1      46.640   3.095   6.198  0.00  0.00    +0.000 A 
ATOM     17  N   UNL     1      45.991   3.794   7.160  0.00  0.00    +0.000 NA
ENDBRANCH   9  12
ENDBRANCH   7  10
ENDBRANCH   1   7
BRANCH   4  18
ATOM     18  C   UNL     1      48.514   7.386  15.011  0.00  0.00    +0.000 C 
BRANCH  18  19
ATOM     19  N   UNL     1      49.271   6.272  15.528  0.00  0.00    +0.000 N 
ATOM     20  C   UNL     1      49.316   5.959  16.860  0.00  0.00    +0.000 C 
ATOM     21  O   UNL     1      48.714   6.617  17.705  0.00  0.00    +0.000 OA
ATOM     22  H   UNL     1      49.948   5.866  14.888  0.00  0.00    +0.000 HD
BRANCH  20  23
ATOM     23  C   UNL     1      50.065   4.748  17.221  0.00  0.00    +0.000 A 
ATOM     24  C   UNL     1      49.437   3.510  17.169  0.00  0.00    +0.000 A 
ATOM     25  S   UNL     1      50.456   2.207  17.581  0.00  0.00    +0.000 S 
ATOM     26  C   UNL     1      51.762   3.253  17.887  0.00  0.00    +0.000 A 
ATOM     27  N   UNL     1      52.960   2.771  18.316  0.00  0.00    +0.000 NA
ATOM     28  C   UNL     1      53.851   3.678  18.538  0.00  0.00    +0.000 A 
ATOM     29  N   UNL     1      53.658   5.022  18.360  0.00  0.00    +0.000 N 
ATOM     30  C   UNL     1      52.485   5.549  17.877  0.00  0.00    +0.000 A 
ATOM     31  O   UNL     1      52.377   6.747  17.640  0.00  0.00    +0.000 OA
ATOM     32  C   UNL     1      51.433   4.576  17.648  0.00  0.00    +0.000 A 
ATOM     33  H   UNL     1      54.403   5.682  18.528  0.00  0.00    +0.000 HD
ENDBRANCH  20  23
ENDBRANCH  18  19
ENDBRANCH   4  18
TORSDOF 6
ENDMDL
