MODEL 1
REMARK VINA RESULT:    -7.958      0.000      0.000
REMARK INTER + INTRA:         -12.173
REMARK INTER:                 -10.982
REMARK INTRA:                  -1.191
REMARK UNBOUND:                -1.191
REMARK  Name = 
REMARK  9 active torsions:
REMARK  status: ('A' for Active; 'I' for Inactive)
REMARK    1  A    between atoms: C_1  and  C_2
REMARK    2  A    between atoms: C_2  and  C_3
REMARK    3  A    between atoms: C_2  and  C_4
REMARK    4  A    between atoms: C_2  and  C_22
REMARK    5  A    between atoms: C_5  and  C_6
REMARK    6  A    between atoms: C_10  and  C_11
REMARK    7  A    between atoms: C_15  and  C_16
REMARK    8  A    between atoms: C_25  and  S_26
REMARK    9  A    between atoms: S_26  and  N_27
REMARK                            x       y       z     vdW  Elec       q    Type
REMARK                         _______ _______ _______ _____ _____    ______ ____
ROOT
ATOM      1  C   UNL     1      48.407   5.518  16.088  0.00  0.00    +0.000 C 
ATOM      2  C   UNL     1      48.668   6.557  15.280  0.00  0.00    +0.000 C 
ENDROOT
BRANCH   2   3
ATOM      3  C   UNL     1      48.014   6.674  13.976  0.00  0.00    +0.000 A 
ATOM      4  C   UNL     1      48.387   7.676  13.081  0.00  0.00    +0.000 A 
ATOM      5  C   UNL     1      47.760   7.767  11.841  0.00  0.00    +0.000 A 
ATOM      6  C   UNL     1      46.766   6.848  11.488  0.00  0.00    +0.000 A 
ATOM      7  C   UNL     1      46.390   5.804  12.352  0.00  0.00    +0.000 A 
ATOM      8  C   UNL     1      47.028   5.748  13.606  0.00  0.00    +0.000 A 
BRANCH   7   9
ATOM      9  C   UNL     1      45.388   4.785  11.954  0.00  0.00    +0.000 A 
ATOM     10  C   UNL     1      44.286   4.483  12.766  0.00  0.00    +0.000 A 
ATOM     11  C   UNL     1      43.398   3.493  12.372  0.00  0.00    +0.000 A 
ATOM     12  N   UNL     1      43.517   2.790  11.230  0.00  0.00    +0.000 NA
ATOM     13  C   UNL     1      44.575   3.078  10.424  0.00  0.00    +0.000 A 
ATOM     14  C   UNL     1      45.517   4.055  10.764  0.00  0.00    +0.000 A 
BRANCH  13  15
ATOM     15  C   UNL     1      44.754   2.318   9.116  0.00  0.00    +0.000 C 
ATOM     16  F   UNL     1      44.259   2.954   8.018  0.00  0.00    +0.000 F 
ATOM     17  F   UNL     1      46.069   2.069   8.838  0.00  0.00    +0.000 F 
ATOM     18  F   UNL     1      44.152   1.092   9.138  0.00  0.00    +0.000 F 
ENDBRANCH  13  15
ENDBRANCH   7   9
ENDBRANCH   2   3
BRANCH   1  20
ATOM     19  C   UNL     1      49.511   6.629  17.994  0.00  0.00    +0.000 C 
ATOM     20  C   UNL     1      48.971   5.271  17.489  0.00  0.00    +0.000 C 
ATOM     21  C   UNL     1      47.790   4.880  18.414  0.00  0.00    +0.000 C 
BRANCH  20  22
ATOM     22  C   UNL     1      50.020   4.147  17.544  0.00  0.00    +0.000 A 
ATOM     23  C   UNL     1      49.664   2.812  17.260  0.00  0.00    +0.000 A 
ATOM     24  C   UNL     1      50.600   1.787  17.367  0.00  0.00    +0.000 A 
ATOM     25  C   UNL     1      51.879   2.140  17.757  0.00  0.00    +0.000 A 
ATOM     26  N   UNL     1      52.298   3.403  18.027  0.00  0.00    +0.000 NA
ATOM     27  C   UNL     1      51.355   4.367  17.908  0.00  0.00    +0.000 A 
BRANCH  25  28
ATOM     28  S   UNL     1      53.127   0.881  17.969  0.00  0.00    +0.000 S 
ATOM     29  O   UNL     1      53.639   0.545  16.661  0.00  0.00    +0.000 OA
ATOM     30  O   UNL     1      53.977   1.287  19.069  0.00  0.00    +0.000 OA
BRANCH  28  31
ATOM     31  N   UNL     1      52.234  -0.457  18.507  0.00  0.00    +0.000 NA
ATOM     32  H   UNL     1      51.664  -0.184  19.309  0.00  0.00    +0.000 HD
ATOM     33  H   UNL     1      52.875  -1.215  18.747  0.00  0.00    +0.000 HD
ENDBRANCH  28  31
ENDBRANCH  25  28
ENDBRANCH  20  22
ENDBRANCH   1  20
TORSDOF 7
ENDMDL
MODEL 2
REMARK VINA RESULT:    -7.683      5.533      7.135
REMARK INTER + INTRA:         -11.793
REMARK INTER:                 -10.619
REMARK INTRA:                  -1.174
REMARK UNBOUND:                -1.191
REMARK  Name = 
REMARK  9 active torsions:
REMARK  status: ('A' for Active; 'I' for Inactive)
REMARK    1  A    between atoms: C_1  and  C_2
REMARK    2  A    between atoms: C_2  and  C_3
REMARK    3  A    between atoms: C_2  and  C_4
REMARK    4  A    between atoms: C_2  and  C_22
REMARK    5  A    between atoms: C_5  and  C_6
REMARK    6  A    between atoms: C_10  and  C_11
REMARK    7  A    between atoms: C_15  and  C_16
REMARK    8  A    between atoms: C_25  and  S_26
REMARK    9  A    between atoms: S_26  and  N_27
REMARK                            x       y       z     vdW  Elec       q    Type
REMARK                         _______ _______ _______ _____ _____    ______ ____
ROOT
ATOM      1  C   UNL     1      50.967   8.117  11.013  0.00  0.00    +0.000 C 
ATOM      2  C   UNL     1      50.182   9.097  11.484  0.00  0.00    +0.000 C 
ENDROOT
BRANCH   2   3
ATOM      3  C   UNL     1      48.775   8.844  11.800  0.00  0.00    +0.000 A 
ATOM      4  C   UNL     1      47.851   9.889  11.817  0.00  0.00    +0.000 A 
ATOM      5  C   UNL     1      46.515   9.627  12.111  0.00  0.00    +0.000 A 
ATOM      6  C   UNL     1      46.097   8.319  12.376  0.00  0.00    +0.000 A 
ATOM      7  C   UNL     1      46.996   7.238  12.334  0.00  0.00    +0.000 A 
ATOM      8  C   UNL     1      48.343   7.535  12.052  0.00  0.00    +0.000 A 
BRANCH   7   9
ATOM      9  C   UNL     1      46.545   5.841  12.544  0.00  0.00    +0.000 A 
ATOM     10  C   UNL     1      47.123   5.022  13.524  0.00  0.00    +0.000 A 
ATOM     11  C   UNL     1      46.697   3.709  13.656  0.00  0.00    +0.000 A 
ATOM     12  N   UNL     1      45.735   3.153  12.897  0.00  0.00    +0.000 NA
ATOM     13  C   UNL     1      45.154   3.936  11.948  0.00  0.00    +0.000 A 
ATOM     14  C   UNL     1      45.543   5.265  11.750  0.00  0.00    +0.000 A 
BRANCH  13  15
ATOM     15  C   UNL     1      44.054   3.360  11.065  0.00  0.00    +0.000 C 
ATOM     16  F   UNL     1      44.488   2.487  10.115  0.00  0.00    +0.000 F 
ATOM     17  F   UNL     1      43.112   2.683  11.788  0.00  0.00    +0.000 F 
ATOM     18  F   UNL     1      43.364   4.329  10.393  0.00  0.00    +0.000 F 
ENDBRANCH  13  15
ENDBRANCH   7   9
ENDBRANCH   2   3
BRANCH   1  20
ATOM     19  C   UNL     1      52.734   9.674  10.280  0.00  0.00    +0.000 C 
ATOM     20  C   UNL     1      52.457   8.206  10.676  0.00  0.00    +0.000 C 
ATOM     21  C   UNL     1      53.255   7.929  11.977  0.00  0.00    +0.000 C 
BRANCH  20  22
ATOM     22  C   UNL     1      52.911   7.197   9.607  0.00  0.00    +0.000 A 
ATOM     23  C   UNL     1      52.437   7.287   8.282  0.00  0.00    +0.000 A 
ATOM     24  C   UNL     1      52.803   6.339   7.330  0.00  0.00    +0.000 A 
ATOM     25  C   UNL     1      53.644   5.323   7.743  0.00  0.00    +0.000 A 
ATOM     26  N   UNL     1      54.154   5.184   8.994  0.00  0.00    +0.000 NA
ATOM     27  C   UNL     1      53.773   6.129   9.886  0.00  0.00    +0.000 A 
BRANCH  25  28
ATOM     28  S   UNL     1      54.120   4.037   6.598  0.00  0.00    +0.000 S 
ATOM     29  O   UNL     1      53.978   4.566   5.262  0.00  0.00    +0.000 OA
ATOM     30  O   UNL     1      55.348   3.446   7.088  0.00  0.00    +0.000 OA
BRANCH  28  31
ATOM     31  N   UNL     1      52.901   2.874   6.800  0.00  0.00    +0.000 NA
ATOM     32  H   UNL     1      53.128   2.281   7.599  0.00  0.00    +0.000 HD
ATOM     33  H   UNL     1      52.813   2.327   5.943  0.00  0.00    +0.000 HD
ENDBRANCH  28  31
ENDBRANCH  25  28
ENDBRANCH  20  22
ENDBRANCH   1  20
TORSDOF 7
ENDMDL
MODEL 3
REMARK VINA RESULT:    -6.938      3.697      5.115
REMARK INTER + INTRA:         -10.765
REMARK INTER:                  -9.553
REMARK INTRA:                  -1.212
REMARK UNBOUND:                -1.191
REMARK  Name = 
REMARK  9 active torsions:
REMARK  status: ('A' for Active; 'I' for Inactive)
REMARK    1  A    between atoms: C_1  and  C_2
REMARK    2  A    between atoms: C_2  and  C_3
REMARK    3  A    between atoms: C_2  and  C_4
REMARK    4  A    between atoms: C_2  and  C_22
REMARK    5  A    between atoms: C_5  and  C_6
REMARK    6  A    between atoms: C_10  and  C_11
REMARK    7  A    between atoms: C_15  and  C_16
REMARK    8  A    between atoms: C_25  and  S_26
REMARK    9  A    between atoms: S_26  and  N_27
REMARK                            x       y       z     vdW  Elec       q    Type
REMARK                         _______ _______ _______ _____ _____    ______ ____
ROOT
ATOM      1  C   UNL     1      47.901   4.805  15.988  0.00  0.00    +0.000 C 
ATOM      2  C   UNL     1      47.002   4.409  15.075  0.00  0.00    +0.000 C 
ENDROOT
BRANCH   2   3
ATOM      3  C   UNL     1      46.858   5.125  13.806  0.00  0.00    +0.000 A 
ATOM      4  C   UNL     1      45.763   4.889  12.977  0.00  0.00    +0.000 A 
ATOM      5  C   UNL     1      45.638   5.586  11.777  0.00  0.00    +0.000 A 
ATOM      6  C   UNL     1      46.603   6.531  11.411  0.00  0.00    +0.000 A 
ATOM      7  C   UNL     1      47.701   6.819  12.241  0.00  0.00    +0.000 A 
ATOM      8  C   UNL     1      47.810   6.086  13.438  0.00  0.00    +0.000 A 
BRANCH   7   9
ATOM      9  C   UNL     1      48.687   7.870  11.891  0.00  0.00    +0.000 A 
ATOM     10  C   UNL     1      48.347   9.230  11.904  0.00  0.00    +0.000 A 
ATOM     11  C   UNL     1      49.291  10.174  11.529  0.00  0.00    +0.000 A 
ATOM     12  N   UNL     1      50.547   9.870  11.152  0.00  0.00    +0.000 NA
ATOM     13  C   UNL     1      50.899   8.556  11.144  0.00  0.00    +0.000 A 
ATOM     14  C   UNL     1      49.994   7.549  11.498  0.00  0.00    +0.000 A 
BRANCH  13  15
ATOM     15  C   UNL     1      52.310   8.156  10.733  0.00  0.00    +0.000 C 
ATOM     16  F   UNL     1      52.861   8.937   9.764  0.00  0.00    +0.000 F 
ATOM     17  F   UNL     1      53.185   8.194  11.783  0.00  0.00    +0.000 F 
ATOM     18  F   UNL     1      52.373   6.875  10.260  0.00  0.00    +0.000 F 
ENDBRANCH  13  15
ENDBRANCH   7   9
ENDBRANCH   2   3
BRANCH   1  20
ATOM     19  C   UNL     1      47.968   5.223  18.419  0.00  0.00    +0.000 C 
ATOM     20  C   UNL     1      48.202   4.145  17.336  0.00  0.00    +0.000 C 
ATOM     21  C   UNL     1      47.146   3.033  17.566  0.00  0.00    +0.000 C 
BRANCH  20  22
ATOM     22  C   UNL     1      49.600   3.507  17.413  0.00  0.00    +0.000 A 
ATOM     23  C   UNL     1      49.791   2.147  17.094  0.00  0.00    +0.000 A 
ATOM     24  C   UNL     1      51.045   1.555  17.220  0.00  0.00    +0.000 A 
ATOM     25  C   UNL     1      52.079   2.359  17.664  0.00  0.00    +0.000 A 
ATOM     26  N   UNL     1      51.974   3.678  17.970  0.00  0.00    +0.000 NA
ATOM     27  C   UNL     1      50.737   4.210  17.831  0.00  0.00    +0.000 A 
BRANCH  25  28
ATOM     28  S   UNL     1      53.708   1.667  17.904  0.00  0.00    +0.000 S 
ATOM     29  O   UNL     1      54.628   2.418  17.082  0.00  0.00    +0.000 OA
ATOM     30  O   UNL     1      53.897   1.473  19.327  0.00  0.00    +0.000 OA
BRANCH  28  31
ATOM     31  N   UNL     1      53.576   0.125  17.211  0.00  0.00    +0.000 NA
ATOM     32  H   UNL     1      53.344  -0.554  17.937  0.00  0.00    +0.000 HD
ATOM     33  H   UNL     1      54.453  -0.112  16.746  0.00  0.00    +0.000 HD
ENDBRANCH  28  31
ENDBRANCH  25  28
ENDBRANCH  20  22
ENDBRANCH   1  20
TORSDOF 7
ENDMDL
MODEL 4
REMARK VINA RESULT:    -6.367      1.761      2.373
REMARK INTER + INTRA:          -9.977
REMARK INTER:                  -8.700
REMARK INTRA:                  -1.277
REMARK UNBOUND:                -1.191
REMARK  Name = 
REMARK  9 active torsions:
REMARK  status: ('A' for Active; 'I' for Inactive)
REMARK    1  A    between atoms: C_1  and  C_2
REMARK    2  A    between atoms: C_2  and  C_3
REMARK    3  A    between atoms: C_2  and  C_4
REMARK    4  A    between atoms: C_2  and  C_22
REMARK    5  A    between atoms: C_5  and  C_6
REMARK    6  A    between atoms: C_10  and  C_11
REMARK    7  A    between atoms: C_15  and  C_16
REMARK    8  A    between atoms: C_25  and  S_26
REMARK    9  A    between atoms: S_26  and  N_27
REMARK                            x       y       z     vdW  Elec       q    Type
REMARK                         _______ _______ _______ _____ _____    ______ ____
ROOT
ATOM      1  C   UNL     1      48.948   6.396  16.452  0.00  0.00    +0.000 C 
ATOM      2  C   UNL     1      49.743   7.073  15.610  0.00  0.00    +0.000 C 
ENDROOT
BRANCH   2   3
ATOM      3  C   UNL     1      49.340   7.305  14.222  0.00  0.00    +0.000 A 
ATOM      4  C   UNL     1      50.231   7.863  13.306  0.00  0.00    +0.000 A 
ATOM      5  C   UNL     1      49.832   8.068  11.988  0.00  0.00    +0.000 A 
ATOM      6  C   UNL     1      48.545   7.704  11.578  0.00  0.00    +0.000 A 
ATOM      7  C   UNL     1      47.633   7.106  12.467  0.00  0.00    +0.000 A 
ATOM      8  C   UNL     1      48.058   6.928  13.798  0.00  0.00    +0.000 A 
BRANCH   7   9
ATOM      9  C   UNL     1      46.293   6.653  12.021  0.00  0.00    +0.000 A 
ATOM     10  C   UNL     1      45.268   7.565  11.731  0.00  0.00    +0.000 A 
ATOM     11  C   UNL     1      44.019   7.092  11.358  0.00  0.00    +0.000 A 
ATOM     12  N   UNL     1      43.716   5.786  11.240  0.00  0.00    +0.000 NA
ATOM     13  C   UNL     1      44.702   4.887  11.507  0.00  0.00    +0.000 A 
ATOM     14  C   UNL     1      45.981   5.292  11.901  0.00  0.00    +0.000 A 
BRANCH  13  15
ATOM     15  C   UNL     1      44.415   3.396  11.383  0.00  0.00    +0.000 C 
ATOM     16  F   UNL     1      45.125   2.760  10.411  0.00  0.00    +0.000 F 
ATOM     17  F   UNL     1      44.682   2.720  12.540  0.00  0.00    +0.000 F 
ATOM     18  F   UNL     1      43.100   3.138  11.112  0.00  0.00    +0.000 F 
ENDBRANCH  13  15
ENDBRANCH   7   9
ENDBRANCH   2   3
BRANCH   1  20
ATOM     19  C   UNL     1      49.289   7.476  18.643  0.00  0.00    +0.000 C 
ATOM     20  C   UNL     1      49.202   6.106  17.933  0.00  0.00    +0.000 C 
ATOM     21  C   UNL     1      47.953   5.381  18.496  0.00  0.00    +0.000 C 
BRANCH  20  22
ATOM     22  C   UNL     1      50.432   5.217  18.186  0.00  0.00    +0.000 A 
ATOM     23  C   UNL     1      50.579   3.982  17.521  0.00  0.00    +0.000 A 
ATOM     24  C   UNL     1      51.663   3.151  17.795  0.00  0.00    +0.000 A 
ATOM     25  C   UNL     1      52.575   3.594  18.735  0.00  0.00    +0.000 A 
ATOM     26  N   UNL     1      52.508   4.777  19.399  0.00  0.00    +0.000 NA
ATOM     27  C   UNL     1      51.439   5.552  19.100  0.00  0.00    +0.000 A 
BRANCH  25  28
ATOM     28  S   UNL     1      53.965   2.566  19.184  0.00  0.00    +0.000 S 
ATOM     29  O   UNL     1      54.419   2.989  20.489  0.00  0.00    +0.000 OA
ATOM     30  O   UNL     1      53.614   1.195  18.875  0.00  0.00    +0.000 OA
BRANCH  28  31
ATOM     31  N   UNL     1      55.159   3.031  18.073  0.00  0.00    +0.000 NA
ATOM     32  H   UNL     1      55.802   3.685  18.520  0.00  0.00    +0.000 HD
ATOM     33  H   UNL     1      54.714   3.448  17.254  0.00  0.00    +0.000 HD
ENDBRANCH  28  31
ENDBRANCH  25  28
ENDBRANCH  20  22
ENDBRANCH   1  20
TORSDOF 7
ENDMDL
MODEL 5
REMARK VINA RESULT:    -6.337      1.549      1.977
REMARK INTER + INTRA:          -9.936
REMARK INTER:                  -8.823
REMARK INTRA:                  -1.112
REMARK UNBOUND:                -1.191
REMARK  Name = 
REMARK  9 active torsions:
REMARK  status: ('A' for Active; 'I' for Inactive)
REMARK    1  A    between atoms: C_1  and  C_2
REMARK    2  A    between atoms: C_2  and  C_3
REMARK    3  A    between atoms: C_2  and  C_4
REMARK    4  A    between atoms: C_2  and  C_22
REMARK    5  A    between atoms: C_5  and  C_6
REMARK    6  A    between atoms: C_10  and  C_11
REMARK    7  A    between atoms: C_15  and  C_16
REMARK    8  A    between atoms: C_25  and  S_26
REMARK    9  A    between atoms: S_26  and  N_27
REMARK                            x       y       z     vdW  Elec       q    Type
REMARK                         _______ _______ _______ _____ _____    ______ ____
ROOT
ATOM      1  C   UNL     1      47.988   4.989  16.116  0.00  0.00    +0.000 C 
ATOM      2  C   UNL     1      47.130   4.649  15.143  0.00  0.00    +0.000 C 
ENDROOT
BRANCH   2   3
ATOM      3  C   UNL     1      47.062   5.421  13.901  0.00  0.00    +0.000 A 
ATOM      4  C   UNL     1      47.698   6.657  13.796  0.00  0.00    +0.000 A 
ATOM      5  C   UNL     1      47.630   7.373  12.604  0.00  0.00    +0.000 A 
ATOM      6  C   UNL     1      46.936   6.849  11.508  0.00  0.00    +0.000 A 
ATOM      7  C   UNL     1      46.313   5.589  11.568  0.00  0.00    +0.000 A 
ATOM      8  C   UNL     1      46.383   4.897  12.792  0.00  0.00    +0.000 A 
BRANCH   7   9
ATOM      9  C   UNL     1      45.637   4.998  10.388  0.00  0.00    +0.000 A 
ATOM     10  C   UNL     1      44.240   4.922  10.303  0.00  0.00    +0.000 A 
ATOM     11  C   UNL     1      43.654   4.322   9.198  0.00  0.00    +0.000 A 
ATOM     12  N   UNL     1      44.350   3.802   8.170  0.00  0.00    +0.000 NA
ATOM     13  C   UNL     1      45.707   3.877   8.230  0.00  0.00    +0.000 A 
ATOM     14  C   UNL     1      46.366   4.456   9.320  0.00  0.00    +0.000 A 
BRANCH  13  15
ATOM     15  C   UNL     1      46.544   3.310   7.090  0.00  0.00    +0.000 C 
ATOM     16  F   UNL     1      47.889   3.372   7.288  0.00  0.00    +0.000 F 
ATOM     17  F   UNL     1      46.264   1.994   6.847  0.00  0.00    +0.000 F 
ATOM     18  F   UNL     1      46.313   3.951   5.905  0.00  0.00    +0.000 F 
ENDBRANCH  13  15
ENDBRANCH   7   9
ENDBRANCH   2   3
BRANCH   1  20
ATOM     19  C   UNL     1      47.962   5.309  18.562  0.00  0.00    +0.000 C 
ATOM     20  C   UNL     1      48.210   4.267  17.447  0.00  0.00    +0.000 C 
ATOM     21  C   UNL     1      47.111   3.182  17.587  0.00  0.00    +0.000 C 
BRANCH  20  22
ATOM     22  C   UNL     1      49.582   3.581  17.557  0.00  0.00    +0.000 A 
ATOM     23  C   UNL     1      49.744   2.228  17.193  0.00  0.00    +0.000 A 
ATOM     24  C   UNL     1      50.973   1.591  17.348  0.00  0.00    +0.000 A 
ATOM     25  C   UNL     1      52.012   2.343  17.865  0.00  0.00    +0.000 A 
ATOM     26  N   UNL     1      51.935   3.652  18.218  0.00  0.00    +0.000 NA
ATOM     27  C   UNL     1      50.722   4.230  18.049  0.00  0.00    +0.000 A 
BRANCH  25  28
ATOM     28  S   UNL     1      53.606   1.590  18.145  0.00  0.00    +0.000 S 
ATOM     29  O   UNL     1      54.432   1.873  16.995  0.00  0.00    +0.000 OA
ATOM     30  O   UNL     1      54.007   1.902  19.501  0.00  0.00    +0.000 OA
BRANCH  28  31
ATOM     31  N   UNL     1      53.258  -0.070  18.105  0.00  0.00    +0.000 NA
ATOM     32  H   UNL     1      52.828  -0.305  17.210  0.00  0.00    +0.000 HD
ATOM     33  H   UNL     1      52.644  -0.304  18.886  0.00  0.00    +0.000 HD
ENDBRANCH  28  31
ENDBRANCH  25  28
ENDBRANCH  20  22
ENDBRANCH   1  20
TORSDOF 7
ENDMDL
MODEL 6
REMARK VINA RESULT:    -5.662     10.380     11.341
REMARK INTER + INTRA:          -9.005
REMARK INTER:                  -7.798
REMARK INTRA:                  -1.207
REMARK UNBOUND:                -1.191
REMARK  Name = 
REMARK  9 active torsions:
REMARK  status: ('A' for Active; 'I' for Inactive)
REMARK    1  A    between atoms: C_1  and  C_2
REMARK    2  A    between atoms: C_2  and  C_3
REMARK    3  A    between atoms: C_2  and  C_4
REMARK    4  A    between atoms: C_2  and  C_22
REMARK    5  A    between atoms: C_5  and  C_6
REMARK    6  A    between atoms: C_10  and  C_11
REMARK    7  A    between atoms: C_15  and  C_16
REMARK    8  A    between atoms: C_25  and  S_26
REMARK    9  A    between atoms: S_26  and  N_27
REMARK                            x       y       z     vdW  Elec       q    Type
REMARK                         _______ _______ _______ _____ _____    ______ ____
ROOT
ATOM      1  C   UNL     1      41.863  -4.310  18.732  0.00  0.00    +0.000 C 
ATOM      2  C   UNL     1      42.104  -3.887  17.482  0.00  0.00    +0.000 C 
ENDROOT
BRANCH   2   3
ATOM      3  C   UNL     1      41.122  -3.071  16.765  0.00  0.00    +0.000 A 
ATOM      4  C   UNL     1      40.859  -3.298  15.415  0.00  0.00    +0.000 A 
ATOM      5  C   UNL     1      39.916  -2.517  14.752  0.00  0.00    +0.000 A 
ATOM      6  C   UNL     1      39.224  -1.515  15.441  0.00  0.00    +0.000 A 
ATOM      7  C   UNL     1      39.440  -1.283  16.811  0.00  0.00    +0.000 A 
ATOM      8  C   UNL     1      40.412  -2.076  17.451  0.00  0.00    +0.000 A 
BRANCH   7   9
ATOM      9  C   UNL     1      38.658  -0.272  17.563  0.00  0.00    +0.000 A 
ATOM     10  C   UNL     1      37.947  -0.606  18.724  0.00  0.00    +0.000 A 
ATOM     11  C   UNL     1      37.196   0.365  19.370  0.00  0.00    +0.000 A 
ATOM     12  N   UNL     1      37.107   1.642  18.955  0.00  0.00    +0.000 NA
ATOM     13  C   UNL     1      37.799   1.988  17.836  0.00  0.00    +0.000 A 
ATOM     14  C   UNL     1      38.566   1.058  17.127  0.00  0.00    +0.000 A 
BRANCH  13  15
ATOM     15  C   UNL     1      37.739   3.423  17.326  0.00  0.00    +0.000 C 
ATOM     16  F   UNL     1      38.948   3.965  17.015  0.00  0.00    +0.000 F 
ATOM     17  F   UNL     1      36.978   3.539  16.197  0.00  0.00    +0.000 F 
ATOM     18  F   UNL     1      37.171   4.274  18.232  0.00  0.00    +0.000 F 
ENDBRANCH  13  15
ENDBRANCH   7   9
ENDBRANCH   2   3
BRANCH   1  20
ATOM     19  C   UNL     1      43.246  -4.193  20.772  0.00  0.00    +0.000 C 
ATOM     20  C   UNL     1      42.796  -5.129  19.627  0.00  0.00    +0.000 C 
ATOM     21  C   UNL     1      41.960  -6.265  20.271  0.00  0.00    +0.000 C 
BRANCH  20  22
ATOM     22  C   UNL     1      43.975  -5.767  18.871  0.00  0.00    +0.000 A 
ATOM     23  C   UNL     1      45.258  -5.185  18.911  0.00  0.00    +0.000 A 
ATOM     24  C   UNL     1      46.311  -5.730  18.180  0.00  0.00    +0.000 A 
ATOM     25  C   UNL     1      46.037  -6.858  17.428  0.00  0.00    +0.000 A 
ATOM     26  N   UNL     1      44.834  -7.484  17.357  0.00  0.00    +0.000 NA
ATOM     27  C   UNL     1      43.841  -6.919  18.085  0.00  0.00    +0.000 A 
BRANCH  25  28
ATOM     28  S   UNL     1      47.317  -7.591  16.420  0.00  0.00    +0.000 S 
ATOM     29  O   UNL     1      47.912  -6.536  15.633  0.00  0.00    +0.000 OA
ATOM     30  O   UNL     1      48.089  -8.476  17.266  0.00  0.00    +0.000 OA
BRANCH  28  31
ATOM     31  N   UNL     1      46.444  -8.573  15.347  0.00  0.00    +0.000 NA
ATOM     32  H   UNL     1      45.450  -8.350  15.416  0.00  0.00    +0.000 HD
ATOM     33  H   UNL     1      46.622  -9.554  15.567  0.00  0.00    +0.000 HD
ENDBRANCH  28  31
ENDBRANCH  25  28
ENDBRANCH  20  22
ENDBRANCH   1  20
TORSDOF 7
ENDMDL
MODEL 7
REMARK VINA RESULT:    -5.614     11.022     12.225
REMARK INTER + INTRA:          -8.938
REMARK INTER:                  -7.596
REMARK INTRA:                  -1.343
REMARK UNBOUND:                -1.191
REMARK  Name = 
REMARK  9 active torsions:
REMARK  status: ('A' for Active; 'I' for Inactive)
REMARK    1  A    between atoms: C_1  and  C_2
REMARK    2  A    between atoms: C_2  and  C_3
REMARK    3  A    between atoms: C_2  and  C_4
REMARK    4  A    between atoms: C_2  and  C_22
REMARK    5  A    between atoms: C_5  and  C_6
REMARK    6  A    between atoms: C_10  and  C_11
REMARK    7  A    between atoms: C_15  and  C_16
REMARK    8  A    between atoms: C_25  and  S_26
REMARK    9  A    between atoms: S_26  and  N_27
REMARK                            x       y       z     vdW  Elec       q    Type
REMARK                         _______ _______ _______ _____ _____    ______ ____
ROOT
ATOM      1  C   UNL     1      40.231  -2.951  18.987  0.00  0.00    +0.000 C 
ATOM      2  C   UNL     1      41.515  -3.093  18.624  0.00  0.00    +0.000 C 
ENDROOT
BRANCH   2   3
ATOM      3  C   UNL     1      41.912  -4.126  17.666  0.00  0.00    +0.000 A 
ATOM      4  C   UNL     1      42.780  -5.150  18.044  0.00  0.00    +0.000 A 
ATOM      5  C   UNL     1      43.140  -6.128  17.121  0.00  0.00    +0.000 A 
ATOM      6  C   UNL     1      42.623  -6.093  15.821  0.00  0.00    +0.000 A 
ATOM      7  C   UNL     1      41.719  -5.095  15.418  0.00  0.00    +0.000 A 
ATOM      8  C   UNL     1      41.387  -4.108  16.366  0.00  0.00    +0.000 A 
BRANCH   7   9
ATOM      9  C   UNL     1      41.113  -5.093  14.064  0.00  0.00    +0.000 A 
ATOM     10  C   UNL     1      40.742  -6.284  13.424  0.00  0.00    +0.000 A 
ATOM     11  C   UNL     1      40.218  -6.236  12.141  0.00  0.00    +0.000 A 
ATOM     12  N   UNL     1      40.025  -5.096  11.452  0.00  0.00    +0.000 NA
ATOM     13  C   UNL     1      40.369  -3.929  12.061  0.00  0.00    +0.000 A 
ATOM     14  C   UNL     1      40.915  -3.903  13.349  0.00  0.00    +0.000 A 
BRANCH  13  15
ATOM     15  C   UNL     1      40.166  -2.608  11.330  0.00  0.00    +0.000 C 
ATOM     16  F   UNL     1      39.810  -2.734  10.022  0.00  0.00    +0.000 F 
ATOM     17  F   UNL     1      39.193  -1.841  11.907  0.00  0.00    +0.000 F 
ATOM     18  F   UNL     1      41.289  -1.830  11.336  0.00  0.00    +0.000 F 
ENDBRANCH  13  15
ENDBRANCH   7   9
ENDBRANCH   2   3
BRANCH   1  20
ATOM     19  C   UNL     1      38.563  -2.616  20.773  0.00  0.00    +0.000 C 
ATOM     20  C   UNL     1      39.649  -1.902  19.938  0.00  0.00    +0.000 C 
ATOM     21  C   UNL     1      40.772  -1.478  20.920  0.00  0.00    +0.000 C 
BRANCH  20  22
ATOM     22  C   UNL     1      39.131  -0.641  19.225  0.00  0.00    +0.000 A 
ATOM     23  C   UNL     1      38.894  -0.643  17.835  0.00  0.00    +0.000 A 
ATOM     24  C   UNL     1      38.480   0.514  17.181  0.00  0.00    +0.000 A 
ATOM     25  C   UNL     1      38.312   1.649  17.954  0.00  0.00    +0.000 A 
ATOM     26  N   UNL     1      38.502   1.720  19.297  0.00  0.00    +0.000 NA
ATOM     27  C   UNL     1      38.903   0.570  19.890  0.00  0.00    +0.000 A 
BRANCH  25  28
ATOM     28  S   UNL     1      37.835   3.189  17.188  0.00  0.00    +0.000 S 
ATOM     29  O   UNL     1      37.406   2.894  15.840  0.00  0.00    +0.000 OA
ATOM     30  O   UNL     1      37.015   3.915  18.136  0.00  0.00    +0.000 OA
BRANCH  28  31
ATOM     31  N   UNL     1      39.304   4.028  17.065  0.00  0.00    +0.000 NA
ATOM     32  H   UNL     1      39.936   3.516  16.448  0.00  0.00    +0.000 HD
ATOM     33  H   UNL     1      39.706   4.142  17.997  0.00  0.00    +0.000 HD
ENDBRANCH  28  31
ENDBRANCH  25  28
ENDBRANCH  20  22
ENDBRANCH   1  20
TORSDOF 7
ENDMDL
MODEL 8
REMARK VINA RESULT:    -5.538      6.352      8.573
REMARK INTER + INTRA:          -8.833
REMARK INTER:                  -7.601
REMARK INTRA:                  -1.231
REMARK UNBOUND:                -1.191
REMARK  Name = 
REMARK  9 active torsions:
REMARK  status: ('A' for Active; 'I' for Inactive)
REMARK    1  A    between atoms: C_1  and  C_2
REMARK    2  A    between atoms: C_2  and  C_3
REMARK    3  A    between atoms: C_2  and  C_4
REMARK    4  A    between atoms: C_2  and  C_22
REMARK    5  A    between atoms: C_5  and  C_6
REMARK    6  A    between atoms: C_10  and  C_11
REMARK    7  A    between atoms: C_15  and  C_16
REMARK    8  A    between atoms: C_25  and  S_26
REMARK    9  A    between atoms: S_26  and  N_27
REMARK                            x       y       z     vdW  Elec       q    Type
REMARK                         _______ _______ _______ _____ _____    ______ ____
ROOT
ATOM      1  C   UNL     1      51.437   7.825  11.568  0.00  0.00    +0.000 C 
ATOM      2  C   UNL     1      50.188   7.797  11.081  0.00  0.00    +0.000 C 
ENDROOT
BRANCH   2   3
ATOM      3  C   UNL     1      49.060   7.411  11.931  0.00  0.00    +0.000 A 
ATOM      4  C   UNL     1      47.774   7.311  11.403  0.00  0.00    +0.000 A 
ATOM      5  C   UNL     1      46.715   6.934  12.225  0.00  0.00    +0.000 A 
ATOM      6  C   UNL     1      46.942   6.643  13.575  0.00  0.00    +0.000 A 
ATOM      7  C   UNL     1      48.233   6.700  14.131  0.00  0.00    +0.000 A 
ATOM      8  C   UNL     1      49.281   7.102  13.280  0.00  0.00    +0.000 A 
BRANCH   7   9
ATOM      9  C   UNL     1      48.490   6.324  15.542  0.00  0.00    +0.000 A 
ATOM     10  C   UNL     1      49.010   7.243  16.464  0.00  0.00    +0.000 A 
ATOM     11  C   UNL     1      49.274   6.834  17.763  0.00  0.00    +0.000 A 
ATOM     12  N   UNL     1      49.050   5.587  18.216  0.00  0.00    +0.000 NA
ATOM     13  C   UNL     1      48.535   4.684  17.338  0.00  0.00    +0.000 A 
ATOM     14  C   UNL     1      48.257   5.023  16.010  0.00  0.00    +0.000 A 
BRANCH  13  15
ATOM     15  C   UNL     1      48.255   3.259  17.800  0.00  0.00    +0.000 C 
ATOM     16  F   UNL     1      49.118   2.325  17.312  0.00  0.00    +0.000 F 
ATOM     17  F   UNL     1      48.306   3.137  19.160  0.00  0.00    +0.000 F 
ATOM     18  F   UNL     1      47.006   2.832  17.447  0.00  0.00    +0.000 F 
ENDBRANCH  13  15
ENDBRANCH   7   9
ENDBRANCH   2   3
BRANCH   1  20
ATOM     19  C   UNL     1      52.493   9.702  10.365  0.00  0.00    +0.000 C 
ATOM     20  C   UNL     1      52.710   8.243  10.829  0.00  0.00    +0.000 C 
ATOM     21  C   UNL     1      53.872   8.261  11.855  0.00  0.00    +0.000 C 
BRANCH  20  22
ATOM     22  C   UNL     1      53.096   7.296   9.679  0.00  0.00    +0.000 A 
ATOM     23  C   UNL     1      52.673   7.553   8.359  0.00  0.00    +0.000 A 
ATOM     24  C   UNL     1      52.974   6.665   7.329  0.00  0.00    +0.000 A 
ATOM     25  C   UNL     1      53.701   5.537   7.662  0.00  0.00    +0.000 A 
ATOM     26  N   UNL     1      54.158   5.235   8.905  0.00  0.00    +0.000 NA
ATOM     27  C   UNL     1      53.843   6.127   9.874  0.00  0.00    +0.000 A 
BRANCH  25  28
ATOM     28  S   UNL     1      54.085   4.320   6.413  0.00  0.00    +0.000 S 
ATOM     29  O   UNL     1      53.285   3.148   6.683  0.00  0.00    +0.000 OA
ATOM     30  O   UNL     1      54.090   4.995   5.131  0.00  0.00    +0.000 OA
BRANCH  28  31
ATOM     31  N   UNL     1      55.694   3.909   6.759  0.00  0.00    +0.000 NA
ATOM     32  H   UNL     1      55.800   2.895   6.718  0.00  0.00    +0.000 HD
ATOM     33  H   UNL     1      55.944   4.273   7.679  0.00  0.00    +0.000 HD
ENDBRANCH  28  31
ENDBRANCH  25  28
ENDBRANCH  20  22
ENDBRANCH   1  20
TORSDOF 7
ENDMDL
MODEL 9
REMARK VINA RESULT:    -5.511     11.264     12.270
REMARK INTER + INTRA:          -8.795
REMARK INTER:                  -7.602
REMARK INTRA:                  -1.193
REMARK UNBOUND:                -1.191
REMARK  Name = 
REMARK  9 active torsions:
REMARK  status: ('A' for Active; 'I' for Inactive)
REMARK    1  A    between atoms: C_1  and  C_2
REMARK    2  A    between atoms: C_2  and  C_3
REMARK    3  A    between atoms: C_2  and  C_4
REMARK    4  A    between atoms: C_2  and  C_22
REMARK    5  A    between atoms: C_5  and  C_6
REMARK    6  A    between atoms: C_10  and  C_11
REMARK    7  A    between atoms: C_15  and  C_16
REMARK    8  A    between atoms: C_25  and  S_26
REMARK    9  A    between atoms: S_26  and  N_27
REMARK                            x       y       z     vdW  Elec       q    Type
REMARK                         _______ _______ _______ _____ _____    ______ ____
ROOT
ATOM      1  C   UNL     1      39.865  -2.789  18.271  0.00  0.00    +0.000 C 
ATOM      2  C   UNL     1      41.037  -2.725  17.622  0.00  0.00    +0.000 C 
ENDROOT
BRANCH   2   3
ATOM      3  C   UNL     1      41.338  -3.648  16.526  0.00  0.00    +0.000 A 
ATOM      4  C   UNL     1      42.016  -4.842  16.768  0.00  0.00    +0.000 A 
ATOM      5  C   UNL     1      42.286  -5.711  15.714  0.00  0.00    +0.000 A 
ATOM      6  C   UNL     1      41.867  -5.395  14.417  0.00  0.00    +0.000 A 
ATOM      7  C   UNL     1      41.151  -4.215  14.144  0.00  0.00    +0.000 A 
ATOM      8  C   UNL     1      40.909  -3.347  15.226  0.00  0.00    +0.000 A 
BRANCH   7   9
ATOM      9  C   UNL     1      40.643  -3.909  12.785  0.00  0.00    +0.000 A 
ATOM     10  C   UNL     1      40.780  -2.634  12.220  0.00  0.00    +0.000 A 
ATOM     11  C   UNL     1      40.252  -2.383  10.962  0.00  0.00    +0.000 A 
ATOM     12  N   UNL     1      39.609  -3.306  10.221  0.00  0.00    +0.000 NA
ATOM     13  C   UNL     1      39.476  -4.553  10.749  0.00  0.00    +0.000 A 
ATOM     14  C   UNL     1      39.973  -4.872  12.017  0.00  0.00    +0.000 A 
BRANCH  13  15
ATOM     15  C   UNL     1      38.763  -5.637   9.951  0.00  0.00    +0.000 C 
ATOM     16  F   UNL     1      39.591  -6.526   9.337  0.00  0.00    +0.000 F 
ATOM     17  F   UNL     1      37.926  -6.386  10.729  0.00  0.00    +0.000 F 
ATOM     18  F   UNL     1      37.971  -5.122   8.963  0.00  0.00    +0.000 F 
ENDBRANCH  13  15
ENDBRANCH   7   9
ENDBRANCH   2   3
BRANCH   1  20
ATOM     19  C   UNL     1      38.275  -2.652  20.153  0.00  0.00    +0.000 C 
ATOM     20  C   UNL     1      39.383  -1.878  19.402  0.00  0.00    +0.000 C 
ATOM     21  C   UNL     1      40.559  -1.692  20.396  0.00  0.00    +0.000 C 
BRANCH  20  22
ATOM     22  C   UNL     1      38.930  -0.487  18.925  0.00  0.00    +0.000 A 
ATOM     23  C   UNL     1      38.537  -0.275  17.588  0.00  0.00    +0.000 A 
ATOM     24  C   UNL     1      38.183   0.996  17.143  0.00  0.00    +0.000 A 
ATOM     25  C   UNL     1      38.232   2.024  18.067  0.00  0.00    +0.000 A 
ATOM     26  N   UNL     1      38.581   1.890  19.373  0.00  0.00    +0.000 NA
ATOM     27  C   UNL     1      38.916   0.637  19.761  0.00  0.00    +0.000 A 
BRANCH  25  28
ATOM     28  S   UNL     1      37.844   3.694  17.567  0.00  0.00    +0.000 S 
ATOM     29  O   UNL     1      37.226   3.628  16.264  0.00  0.00    +0.000 OA
ATOM     30  O   UNL     1      37.234   4.360  18.699  0.00  0.00    +0.000 OA
BRANCH  28  31
ATOM     31  N   UNL     1      39.374   4.394  17.351  0.00  0.00    +0.000 NA
ATOM     32  H   UNL     1      39.270   5.303  16.899  0.00  0.00    +0.000 HD
ATOM     33  H   UNL     1      39.957   3.766  16.795  0.00  0.00    +0.000 HD
ENDBRANCH  28  31
ENDBRANCH  25  28
ENDBRANCH  20  22
ENDBRANCH   1  20
TORSDOF 7
ENDMDL
