MODEL 1
REMARK VINA RESULT:    -8.665      0.000      0.000
REMARK INTER + INTRA:         -11.916
REMARK INTER:                 -11.198
REMARK INTRA:                  -0.718
REMARK UNBOUND:                -0.718
REMARK  Name = 
REMARK  5 active torsions:
REMARK  status: ('A' for Active; 'I' for Inactive)
REMARK    1  A    between atoms: C_2  and  C_4
REMARK    2  A    between atoms: C_7  and  N_8
REMARK    3  A    between atoms: N_8  and  C_9
REMARK    4  A    between atoms: C_9  and  C_10
REMARK    5  A    between atoms: C_14  and  C_15
REMARK                            x       y       z     vdW  Elec       q    Type
REMARK                         _______ _______ _______ _____ _____    ______ ____
ROOT
ATOM      1  N   UNL     1      43.812   4.775   9.801  0.00  0.00    +0.000 N 
ATOM      2  H   UNL     1      42.947   4.795   9.271  0.00  0.00    +0.000 HD
ENDROOT
BRANCH   1   6
ATOM      3  C   UNL     1      46.531   2.503   7.733  0.00  0.00    +0.000 A 
ATOM      4  C   UNL     1      46.545   3.883   7.628  0.00  0.00    +0.000 A 
ATOM      5  N   UNL     1      45.689   4.676   8.327  0.00  0.00    +0.000 NA
ATOM      6  C   UNL     1      44.809   4.054   9.140  0.00  0.00    +0.000 A 
ATOM      7  C   UNL     1      44.821   2.654   9.236  0.00  0.00    +0.000 A 
ATOM      8  N   UNL     1      45.670   1.840   8.554  0.00  0.00    +0.000 NA
BRANCH   3  10
ATOM      9  N   UNL     1      48.545   2.352   6.403  0.00  0.00    +0.000 N 
ATOM     10  C   UNL     1      47.461   1.684   6.907  0.00  0.00    +0.000 C 
ATOM     11  O   UNL     1      47.282   0.492   6.700  0.00  0.00    +0.000 OA
ATOM     12  H   UNL     1      49.235   1.850   5.863  0.00  0.00    +0.000 HD
ATOM     13  H   UNL     1      48.679   3.333   6.618  0.00  0.00    +0.000 HD
ENDBRANCH   3  10
ENDBRANCH   1   6
BRANCH   1  14
ATOM     14  C   UNL     1      43.587   4.445  11.201  0.00  0.00    +0.000 C 
BRANCH  14  15
ATOM     15  C   UNL     1      44.827   4.809  11.989  0.00  0.00    +0.000 A 
ATOM     16  C   UNL     1      45.442   3.897  12.850  0.00  0.00    +0.000 A 
ATOM     17  C   UNL     1      46.609   4.255  13.523  0.00  0.00    +0.000 A 
ATOM     18  C   UNL     1      47.178   5.518  13.328  0.00  0.00    +0.000 A 
ATOM     19  C   UNL     1      46.607   6.453  12.446  0.00  0.00    +0.000 A 
ATOM     20  C   UNL     1      45.414   6.077  11.805  0.00  0.00    +0.000 A 
BRANCH  19  21
ATOM     21  C   UNL     1      47.271   7.743  12.141  0.00  0.00    +0.000 A 
ATOM     22  C   UNL     1      46.568   8.958  12.249  0.00  0.00    +0.000 A 
ATOM     23  C   UNL     1      47.195  10.191  12.037  0.00  0.00    +0.000 A 
ATOM     24  C   UNL     1      48.547  10.237  11.718  0.00  0.00    +0.000 A 
ATOM     25  C   UNL     1      49.266   9.053  11.593  0.00  0.00    +0.000 A 
ATOM     26  C   UNL     1      48.632   7.819  11.795  0.00  0.00    +0.000 A 
ENDBRANCH  19  21
ENDBRANCH  14  15
ENDBRANCH   1  14
TORSDOF 5
ENDMDL
MODEL 2
REMARK VINA RESULT:    -8.289      1.618      3.454
REMARK INTER + INTRA:         -11.430
REMARK INTER:                 -10.684
REMARK INTRA:                  -0.745
REMARK UNBOUND:                -0.718
REMARK  Name = 
REMARK  5 active torsions:
REMARK  status: ('A' for Active; 'I' for Inactive)
REMARK    1  A    between atoms: C_2  and  C_4
REMARK    2  A    between atoms: C_7  and  N_8
REMARK    3  A    between atoms: N_8  and  C_9
REMARK    4  A    between atoms: C_9  and  C_10
REMARK    5  A    between atoms: C_14  and  C_15
REMARK                            x       y       z     vdW  Elec       q    Type
REMARK                         _______ _______ _______ _____ _____    ______ ____
ROOT
ATOM      1  N   UNL     1      43.834   4.738   9.862  0.00  0.00    +0.000 N 
ATOM      2  H   UNL     1      42.906   4.626   9.468  0.00  0.00    +0.000 HD
ENDROOT
BRANCH   1   6
ATOM      3  C   UNL     1      46.407   2.346   7.742  0.00  0.00    +0.000 A 
ATOM      4  C   UNL     1      46.423   3.719   7.571  0.00  0.00    +0.000 A 
ATOM      5  N   UNL     1      45.616   4.553   8.281  0.00  0.00    +0.000 NA
ATOM      6  C   UNL     1      44.785   3.977   9.176  0.00  0.00    +0.000 A 
ATOM      7  C   UNL     1      44.795   2.583   9.339  0.00  0.00    +0.000 A 
ATOM      8  N   UNL     1      45.595   1.731   8.646  0.00  0.00    +0.000 NA
BRANCH   3  10
ATOM      9  N   UNL     1      48.342   2.112   6.310  0.00  0.00    +0.000 N 
ATOM     10  C   UNL     1      47.280   1.480   6.901  0.00  0.00    +0.000 C 
ATOM     11  O   UNL     1      47.075   0.284   6.756  0.00  0.00    +0.000 OA
ATOM     12  H   UNL     1      48.994   1.577   5.754  0.00  0.00    +0.000 HD
ATOM     13  H   UNL     1      48.499   3.099   6.475  0.00  0.00    +0.000 HD
ENDBRANCH   3  10
ENDBRANCH   1   6
BRANCH   1  14
ATOM     14  C   UNL     1      43.830   4.623  11.313  0.00  0.00    +0.000 C 
BRANCH  14  15
ATOM     15  C   UNL     1      45.015   5.387  11.863  0.00  0.00    +0.000 A 
ATOM     16  C   UNL     1      45.413   6.612  11.321  0.00  0.00    +0.000 A 
ATOM     17  C   UNL     1      46.481   7.307  11.885  0.00  0.00    +0.000 A 
ATOM     18  C   UNL     1      47.147   6.794  13.003  0.00  0.00    +0.000 A 
ATOM     19  C   UNL     1      46.757   5.581  13.598  0.00  0.00    +0.000 A 
ATOM     20  C   UNL     1      45.698   4.885  12.989  0.00  0.00    +0.000 A 
BRANCH  19  21
ATOM     21  C   UNL     1      47.377   5.093  14.853  0.00  0.00    +0.000 A 
ATOM     22  C   UNL     1      47.185   3.767  15.284  0.00  0.00    +0.000 A 
ATOM     23  C   UNL     1      47.819   3.265  16.426  0.00  0.00    +0.000 A 
ATOM     24  C   UNL     1      48.670   4.082  17.162  0.00  0.00    +0.000 A 
ATOM     25  C   UNL     1      48.871   5.401  16.769  0.00  0.00    +0.000 A 
ATOM     26  C   UNL     1      48.225   5.902  15.631  0.00  0.00    +0.000 A 
ENDBRANCH  19  21
ENDBRANCH  14  15
ENDBRANCH   1  14
TORSDOF 5
ENDMDL
MODEL 3
REMARK VINA RESULT:    -8.009      3.334      6.480
REMARK INTER + INTRA:         -11.068
REMARK INTER:                 -10.262
REMARK INTRA:                  -0.806
REMARK UNBOUND:                -0.718
REMARK  Name = 
REMARK  5 active torsions:
REMARK  status: ('A' for Active; 'I' for Inactive)
REMARK    1  A    between atoms: C_2  and  C_4
REMARK    2  A    between atoms: C_7  and  N_8
REMARK    3  A    between atoms: N_8  and  C_9
REMARK    4  A    between atoms: C_9  and  C_10
REMARK    5  A    between atoms: C_14  and  C_15
REMARK                            x       y       z     vdW  Elec       q    Type
REMARK                         _______ _______ _______ _____ _____    ______ ____
ROOT
ATOM      1  N   UNL     1      44.029   6.725  12.505  0.00  0.00    +0.000 N 
ATOM      2  H   UNL     1      43.460   7.433  12.955  0.00  0.00    +0.000 HD
ENDROOT
BRANCH   1   6
ATOM      3  C   UNL     1      48.085   7.326  12.659  0.00  0.00    +0.000 A 
ATOM      4  C   UNL     1      47.242   8.334  12.224  0.00  0.00    +0.000 A 
ATOM      5  N   UNL     1      45.890   8.192  12.194  0.00  0.00    +0.000 NA
ATOM      6  C   UNL     1      45.393   7.008  12.614  0.00  0.00    +0.000 A 
ATOM      7  C   UNL     1      46.268   6.006  13.061  0.00  0.00    +0.000 A 
ATOM      8  N   UNL     1      47.621   6.126  13.105  0.00  0.00    +0.000 NA
BRANCH   3  10
ATOM      9  N   UNL     1      50.200   7.411  13.829  0.00  0.00    +0.000 N 
ATOM     10  C   UNL     1      49.561   7.523  12.623  0.00  0.00    +0.000 C 
ATOM     11  O   UNL     1      50.169   7.755  11.587  0.00  0.00    +0.000 OA
ATOM     12  H   UNL     1      51.205   7.499  13.872  0.00  0.00    +0.000 HD
ATOM     13  H   UNL     1      49.669   7.189  14.663  0.00  0.00    +0.000 HD
ENDBRANCH   3  10
ENDBRANCH   1   6
BRANCH   1  14
ATOM     14  C   UNL     1      43.537   6.389  11.177  0.00  0.00    +0.000 C 
BRANCH  14  15
ATOM     15  C   UNL     1      43.772   4.915  10.931  0.00  0.00    +0.000 A 
ATOM     16  C   UNL     1      43.107   3.933  11.671  0.00  0.00    +0.000 A 
ATOM     17  C   UNL     1      43.316   2.586  11.383  0.00  0.00    +0.000 A 
ATOM     18  C   UNL     1      44.176   2.210  10.345  0.00  0.00    +0.000 A 
ATOM     19  C   UNL     1      44.839   3.167   9.557  0.00  0.00    +0.000 A 
ATOM     20  C   UNL     1      44.635   4.517   9.890  0.00  0.00    +0.000 A 
BRANCH  19  21
ATOM     21  C   UNL     1      45.653   2.779   8.380  0.00  0.00    +0.000 A 
ATOM     22  C   UNL     1      45.946   3.712   7.367  0.00  0.00    +0.000 A 
ATOM     23  C   UNL     1      46.773   3.389   6.286  0.00  0.00    +0.000 A 
ATOM     24  C   UNL     1      47.332   2.119   6.196  0.00  0.00    +0.000 A 
ATOM     25  C   UNL     1      47.052   1.171   7.174  0.00  0.00    +0.000 A 
ATOM     26  C   UNL     1      46.214   1.496   8.250  0.00  0.00    +0.000 A 
ENDBRANCH  19  21
ENDBRANCH  14  15
ENDBRANCH   1  14
TORSDOF 5
ENDMDL
MODEL 4
REMARK VINA RESULT:    -7.929      4.008      7.143
REMARK INTER + INTRA:         -10.965
REMARK INTER:                 -10.545
REMARK INTRA:                  -0.420
REMARK UNBOUND:                -0.718
REMARK  Name = 
REMARK  5 active torsions:
REMARK  status: ('A' for Active; 'I' for Inactive)
REMARK    1  A    between atoms: C_2  and  C_4
REMARK    2  A    between atoms: C_7  and  N_8
REMARK    3  A    between atoms: N_8  and  C_9
REMARK    4  A    between atoms: C_9  and  C_10
REMARK    5  A    between atoms: C_14  and  C_15
REMARK                            x       y       z     vdW  Elec       q    Type
REMARK                         _______ _______ _______ _____ _____    ______ ____
ROOT
ATOM      1  N   UNL     1      47.469   6.498  12.544  0.00  0.00    +0.000 N 
ATOM      2  H   UNL     1      47.806   5.888  11.807  0.00  0.00    +0.000 HD
ENDROOT
BRANCH   1   6
ATOM      3  C   UNL     1      47.468   4.354  16.042  0.00  0.00    +0.000 A 
ATOM      4  C   UNL     1      48.266   5.476  15.907  0.00  0.00    +0.000 A 
ATOM      5  N   UNL     1      48.268   6.239  14.781  0.00  0.00    +0.000 NA
ATOM      6  C   UNL     1      47.446   5.852  13.783  0.00  0.00    +0.000 A 
ATOM      7  C   UNL     1      46.639   4.716  13.948  0.00  0.00    +0.000 A 
ATOM      8  N   UNL     1      46.614   3.941  15.064  0.00  0.00    +0.000 NA
BRANCH   3  10
ATOM      9  N   UNL     1      48.666   3.715  18.043  0.00  0.00    +0.000 N 
ATOM     10  C   UNL     1      47.544   3.530  17.281  0.00  0.00    +0.000 C 
ATOM     11  O   UNL     1      46.660   2.750  17.607  0.00  0.00    +0.000 OA
ATOM     12  H   UNL     1      48.766   3.214  18.914  0.00  0.00    +0.000 HD
ATOM     13  H   UNL     1      49.365   4.391  17.758  0.00  0.00    +0.000 HD
ENDBRANCH   3  10
ENDBRANCH   1   6
BRANCH   1  14
ATOM     14  C   UNL     1      46.260   7.210  12.156  0.00  0.00    +0.000 C 
BRANCH  14  15
ATOM     15  C   UNL     1      45.327   6.239  11.467  0.00  0.00    +0.000 A 
ATOM     16  C   UNL     1      43.945   6.280  11.668  0.00  0.00    +0.000 A 
ATOM     17  C   UNL     1      43.115   5.399  10.979  0.00  0.00    +0.000 A 
ATOM     18  C   UNL     1      43.657   4.482  10.071  0.00  0.00    +0.000 A 
ATOM     19  C   UNL     1      45.038   4.429   9.816  0.00  0.00    +0.000 A 
ATOM     20  C   UNL     1      45.855   5.308  10.549  0.00  0.00    +0.000 A 
BRANCH  19  21
ATOM     21  C   UNL     1      45.605   3.547   8.767  0.00  0.00    +0.000 A 
ATOM     22  C   UNL     1      46.176   4.089   7.601  0.00  0.00    +0.000 A 
ATOM     23  C   UNL     1      46.782   3.280   6.634  0.00  0.00    +0.000 A 
ATOM     24  C   UNL     1      46.835   1.903   6.816  0.00  0.00    +0.000 A 
ATOM     25  C   UNL     1      46.269   1.335   7.953  0.00  0.00    +0.000 A 
ATOM     26  C   UNL     1      45.653   2.149   8.914  0.00  0.00    +0.000 A 
ENDBRANCH  19  21
ENDBRANCH  14  15
ENDBRANCH   1  14
TORSDOF 5
ENDMDL
MODEL 5
REMARK VINA RESULT:    -7.693      1.204      2.206
REMARK INTER + INTRA:         -10.660
REMARK INTER:                  -9.856
REMARK INTRA:                  -0.804
REMARK UNBOUND:                -0.718
REMARK  Name = 
REMARK  5 active torsions:
REMARK  status: ('A' for Active; 'I' for Inactive)
REMARK    1  A    between atoms: C_2  and  C_4
REMARK    2  A    between atoms: C_7  and  N_8
REMARK    3  A    between atoms: N_8  and  C_9
REMARK    4  A    between atoms: C_9  and  C_10
REMARK    5  A    between atoms: C_14  and  C_15
REMARK                            x       y       z     vdW  Elec       q    Type
REMARK                         _______ _______ _______ _____ _____    ______ ____
ROOT
ATOM      1  N   UNL     1      43.776   4.551  10.008  0.00  0.00    +0.000 N 
ATOM      2  H   UNL     1      42.874   4.101   9.895  0.00  0.00    +0.000 HD
ENDROOT
BRANCH   1   6
ATOM      3  C   UNL     1      46.496   2.493   7.730  0.00  0.00    +0.000 A 
ATOM      4  C   UNL     1      46.364   3.863   7.596  0.00  0.00    +0.000 A 
ATOM      5  N   UNL     1      45.504   4.591   8.359  0.00  0.00    +0.000 NA
ATOM      6  C   UNL     1      44.772   3.911   9.267  0.00  0.00    +0.000 A 
ATOM      7  C   UNL     1      44.932   2.522   9.390  0.00  0.00    +0.000 A 
ATOM      8  N   UNL     1      45.788   1.774   8.645  0.00  0.00    +0.000 NA
BRANCH   3  10
ATOM      9  N   UNL     1      48.529   2.432   6.420  0.00  0.00    +0.000 N 
ATOM     10  C   UNL     1      47.420   1.743   6.833  0.00  0.00    +0.000 C 
ATOM     11  O   UNL     1      47.214   0.586   6.496  0.00  0.00    +0.000 OA
ATOM     12  H   UNL     1      49.215   1.973   5.838  0.00  0.00    +0.000 HD
ATOM     13  H   UNL     1      48.683   3.381   6.742  0.00  0.00    +0.000 HD
ENDBRANCH   3  10
ENDBRANCH   1   6
BRANCH   1  14
ATOM     14  C   UNL     1      44.078   4.829  11.405  0.00  0.00    +0.000 C 
BRANCH  14  15
ATOM     15  C   UNL     1      44.705   6.203  11.501  0.00  0.00    +0.000 A 
ATOM     16  C   UNL     1      43.951   7.367  11.332  0.00  0.00    +0.000 A 
ATOM     17  C   UNL     1      44.555   8.614  11.474  0.00  0.00    +0.000 A 
ATOM     18  C   UNL     1      45.912   8.708  11.802  0.00  0.00    +0.000 A 
ATOM     19  C   UNL     1      46.698   7.561  12.013  0.00  0.00    +0.000 A 
ATOM     20  C   UNL     1      46.070   6.317  11.832  0.00  0.00    +0.000 A 
BRANCH  19  21
ATOM     21  C   UNL     1      48.102   7.654  12.481  0.00  0.00    +0.000 A 
ATOM     22  C   UNL     1      49.107   8.184  11.650  0.00  0.00    +0.000 A 
ATOM     23  C   UNL     1      50.421   8.348  12.098  0.00  0.00    +0.000 A 
ATOM     24  C   UNL     1      50.762   7.990  13.397  0.00  0.00    +0.000 A 
ATOM     25  C   UNL     1      49.795   7.451  14.240  0.00  0.00    +0.000 A 
ATOM     26  C   UNL     1      48.481   7.278  13.783  0.00  0.00    +0.000 A 
ENDBRANCH  19  21
ENDBRANCH  14  15
ENDBRANCH   1  14
TORSDOF 5
ENDMDL
MODEL 6
REMARK VINA RESULT:    -7.588      5.181      8.144
REMARK INTER + INTRA:         -10.525
REMARK INTER:                  -9.927
REMARK INTRA:                  -0.598
REMARK UNBOUND:                -0.718
REMARK  Name = 
REMARK  5 active torsions:
REMARK  status: ('A' for Active; 'I' for Inactive)
REMARK    1  A    between atoms: C_2  and  C_4
REMARK    2  A    between atoms: C_7  and  N_8
REMARK    3  A    between atoms: N_8  and  C_9
REMARK    4  A    between atoms: C_9  and  C_10
REMARK    5  A    between atoms: C_14  and  C_15
REMARK                            x       y       z     vdW  Elec       q    Type
REMARK                         _______ _______ _______ _____ _____    ______ ____
ROOT
ATOM      1  N   UNL     1      46.616   4.126  14.418  0.00  0.00    +0.000 N 
ATOM      2  H   UNL     1      45.983   3.336  14.352  0.00  0.00    +0.000 HD
ENDROOT
BRANCH   1   6
ATOM      3  C   UNL     1      48.368   4.552  18.103  0.00  0.00    +0.000 A 
ATOM      4  C   UNL     1      47.542   3.473  17.839  0.00  0.00    +0.000 A 
ATOM      5  N   UNL     1      46.973   3.271  16.620  0.00  0.00    +0.000 NA
ATOM      6  C   UNL     1      47.251   4.180  15.661  0.00  0.00    +0.000 A 
ATOM      7  C   UNL     1      48.099   5.260  15.951  0.00  0.00    +0.000 A 
ATOM      8  N   UNL     1      48.684   5.480  17.158  0.00  0.00    +0.000 NA
BRANCH   3  10
ATOM      9  N   UNL     1      48.595   3.780  20.384  0.00  0.00    +0.000 N 
ATOM     10  C   UNL     1      48.924   4.746  19.471  0.00  0.00    +0.000 C 
ATOM     11  O   UNL     1      49.638   5.696  19.762  0.00  0.00    +0.000 OA
ATOM     12  H   UNL     1      48.966   3.831  21.321  0.00  0.00    +0.000 HD
ATOM     13  H   UNL     1      48.025   2.991  20.101  0.00  0.00    +0.000 HD
ENDBRANCH   3  10
ENDBRANCH   1   6
BRANCH   1  14
ATOM     14  C   UNL     1      46.004   5.358  13.942  0.00  0.00    +0.000 C 
BRANCH  14  15
ATOM     15  C   UNL     1      45.055   5.024  12.812  0.00  0.00    +0.000 A 
ATOM     16  C   UNL     1      43.713   5.409  12.843  0.00  0.00    +0.000 A 
ATOM     17  C   UNL     1      42.882   5.122  11.762  0.00  0.00    +0.000 A 
ATOM     18  C   UNL     1      43.389   4.463  10.637  0.00  0.00    +0.000 A 
ATOM     19  C   UNL     1      44.741   4.086  10.553  0.00  0.00    +0.000 A 
ATOM     20  C   UNL     1      45.548   4.360  11.670  0.00  0.00    +0.000 A 
BRANCH  19  21
ATOM     21  C   UNL     1      45.312   3.501   9.316  0.00  0.00    +0.000 A 
ATOM     22  C   UNL     1      45.803   4.326   8.287  0.00  0.00    +0.000 A 
ATOM     23  C   UNL     1      46.412   3.795   7.146  0.00  0.00    +0.000 A 
ATOM     24  C   UNL     1      46.551   2.419   7.009  0.00  0.00    +0.000 A 
ATOM     25  C   UNL     1      46.065   1.575   8.004  0.00  0.00    +0.000 A 
ATOM     26  C   UNL     1      45.445   2.111   9.140  0.00  0.00    +0.000 A 
ENDBRANCH  19  21
ENDBRANCH  14  15
ENDBRANCH   1  14
TORSDOF 5
ENDMDL
MODEL 7
REMARK VINA RESULT:    -7.297      1.514      2.117
REMARK INTER + INTRA:         -10.148
REMARK INTER:                  -9.399
REMARK INTRA:                  -0.750
REMARK UNBOUND:                -0.718
REMARK  Name = 
REMARK  5 active torsions:
REMARK  status: ('A' for Active; 'I' for Inactive)
REMARK    1  A    between atoms: C_2  and  C_4
REMARK    2  A    between atoms: C_7  and  N_8
REMARK    3  A    between atoms: N_8  and  C_9
REMARK    4  A    between atoms: C_9  and  C_10
REMARK    5  A    between atoms: C_14  and  C_15
REMARK                            x       y       z     vdW  Elec       q    Type
REMARK                         _______ _______ _______ _____ _____    ______ ____
ROOT
ATOM      1  N   UNL     1      43.538   3.873  10.711  0.00  0.00    +0.000 N 
ATOM      2  H   UNL     1      42.651   3.419  10.521  0.00  0.00    +0.000 HD
ENDROOT
BRANCH   1   6
ATOM      3  C   UNL     1      46.151   2.810   7.732  0.00  0.00    +0.000 A 
ATOM      4  C   UNL     1      45.906   4.143   8.007  0.00  0.00    +0.000 A 
ATOM      5  N   UNL     1      45.079   4.541   9.012  0.00  0.00    +0.000 NA
ATOM      6  C   UNL     1      44.496   3.566   9.741  0.00  0.00    +0.000 A 
ATOM      7  C   UNL     1      44.768   2.221   9.448  0.00  0.00    +0.000 A 
ATOM      8  N   UNL     1      45.595   1.799   8.456  0.00  0.00    +0.000 NA
BRANCH   3  10
ATOM      9  N   UNL     1      48.121   1.674   6.910  0.00  0.00    +0.000 N 
ATOM     10  C   UNL     1      47.029   2.435   6.588  0.00  0.00    +0.000 C 
ATOM     11  O   UNL     1      46.788   2.769   5.437  0.00  0.00    +0.000 OA
ATOM     12  H   UNL     1      48.740   1.355   6.178  0.00  0.00    +0.000 HD
ATOM     13  H   UNL     1      48.275   1.390   7.870  0.00  0.00    +0.000 HD
ENDBRANCH   3  10
ENDBRANCH   1   6
BRANCH   1  14
ATOM     14  C   UNL     1      43.944   3.723  12.100  0.00  0.00    +0.000 C 
BRANCH  14  15
ATOM     15  C   UNL     1      44.917   4.829  12.443  0.00  0.00    +0.000 A 
ATOM     16  C   UNL     1      46.167   4.559  13.005  0.00  0.00    +0.000 A 
ATOM     17  C   UNL     1      47.053   5.602  13.264  0.00  0.00    +0.000 A 
ATOM     18  C   UNL     1      46.706   6.920  12.947  0.00  0.00    +0.000 A 
ATOM     19  C   UNL     1      45.471   7.231  12.351  0.00  0.00    +0.000 A 
ATOM     20  C   UNL     1      44.583   6.163  12.131  0.00  0.00    +0.000 A 
BRANCH  19  21
ATOM     21  C   UNL     1      45.146   8.606  11.901  0.00  0.00    +0.000 A 
ATOM     22  C   UNL     1      45.936   9.701  12.301  0.00  0.00    +0.000 A 
ATOM     23  C   UNL     1      45.692  10.995  11.829  0.00  0.00    +0.000 A 
ATOM     24  C   UNL     1      44.651  11.223  10.937  0.00  0.00    +0.000 A 
ATOM     25  C   UNL     1      43.845  10.164  10.531  0.00  0.00    +0.000 A 
ATOM     26  C   UNL     1      44.086   8.871  11.015  0.00  0.00    +0.000 A 
ENDBRANCH  19  21
ENDBRANCH  14  15
ENDBRANCH   1  14
TORSDOF 5
ENDMDL
MODEL 8
REMARK VINA RESULT:    -7.085      4.253      7.580
REMARK INTER + INTRA:          -9.874
REMARK INTER:                  -9.151
REMARK INTRA:                  -0.724
REMARK UNBOUND:                -0.718
REMARK  Name = 
REMARK  5 active torsions:
REMARK  status: ('A' for Active; 'I' for Inactive)
REMARK    1  A    between atoms: C_2  and  C_4
REMARK    2  A    between atoms: C_7  and  N_8
REMARK    3  A    between atoms: N_8  and  C_9
REMARK    4  A    between atoms: C_9  and  C_10
REMARK    5  A    between atoms: C_14  and  C_15
REMARK                            x       y       z     vdW  Elec       q    Type
REMARK                         _______ _______ _______ _____ _____    ______ ____
ROOT
ATOM      1  N   UNL     1      46.393   3.222  13.320  0.00  0.00    +0.000 N 
ATOM      2  H   UNL     1      46.607   2.237  13.435  0.00  0.00    +0.000 HD
ENDROOT
BRANCH   1   6
ATOM      3  C   UNL     1      48.355   5.770  15.869  0.00  0.00    +0.000 A 
ATOM      4  C   UNL     1      47.970   4.511  16.294  0.00  0.00    +0.000 A 
ATOM      5  N   UNL     1      47.354   3.620  15.472  0.00  0.00    +0.000 NA
ATOM      6  C   UNL     1      47.129   4.019  14.202  0.00  0.00    +0.000 A 
ATOM      7  C   UNL     1      47.538   5.297  13.792  0.00  0.00    +0.000 A 
ATOM      8  N   UNL     1      48.160   6.203  14.592  0.00  0.00    +0.000 NA
BRANCH   3  10
ATOM      9  N   UNL     1      49.167   6.241  18.098  0.00  0.00    +0.000 N 
ATOM     10  C   UNL     1      48.983   6.720  16.829  0.00  0.00    +0.000 C 
ATOM     11  O   UNL     1      49.326   7.849  16.506  0.00  0.00    +0.000 OA
ATOM     12  H   UNL     1      49.619   6.820  18.790  0.00  0.00    +0.000 HD
ATOM     13  H   UNL     1      48.898   5.290  18.323  0.00  0.00    +0.000 HD
ENDBRANCH   3  10
ENDBRANCH   1   6
BRANCH   1  14
ATOM     14  C   UNL     1      44.960   3.468  13.259  0.00  0.00    +0.000 C 
BRANCH  14  15
ATOM     15  C   UNL     1      44.592   3.840  11.840  0.00  0.00    +0.000 A 
ATOM     16  C   UNL     1      43.707   4.885  11.560  0.00  0.00    +0.000 A 
ATOM     17  C   UNL     1      43.430   5.227  10.239  0.00  0.00    +0.000 A 
ATOM     18  C   UNL     1      44.046   4.540   9.187  0.00  0.00    +0.000 A 
ATOM     19  C   UNL     1      44.967   3.504   9.425  0.00  0.00    +0.000 A 
ATOM     20  C   UNL     1      45.203   3.159  10.767  0.00  0.00    +0.000 A 
BRANCH  19  21
ATOM     21  C   UNL     1      45.715   2.856   8.321  0.00  0.00    +0.000 A 
ATOM     22  C   UNL     1      46.117   3.595   7.192  0.00  0.00    +0.000 A 
ATOM     23  C   UNL     1      46.888   3.022   6.175  0.00  0.00    +0.000 A 
ATOM     24  C   UNL     1      47.280   1.692   6.266  0.00  0.00    +0.000 A 
ATOM     25  C   UNL     1      46.889   0.932   7.364  0.00  0.00    +0.000 A 
ATOM     26  C   UNL     1      46.108   1.506   8.376  0.00  0.00    +0.000 A 
ENDBRANCH  19  21
ENDBRANCH  14  15
ENDBRANCH   1  14
TORSDOF 5
ENDMDL
MODEL 9
REMARK VINA RESULT:    -6.618      5.475      8.295
REMARK INTER + INTRA:          -9.271
REMARK INTER:                  -8.592
REMARK INTRA:                  -0.679
REMARK UNBOUND:                -0.718
REMARK  Name = 
REMARK  5 active torsions:
REMARK  status: ('A' for Active; 'I' for Inactive)
REMARK    1  A    between atoms: C_2  and  C_4
REMARK    2  A    between atoms: C_7  and  N_8
REMARK    3  A    between atoms: N_8  and  C_9
REMARK    4  A    between atoms: C_9  and  C_10
REMARK    5  A    between atoms: C_14  and  C_15
REMARK                            x       y       z     vdW  Elec       q    Type
REMARK                         _______ _______ _______ _____ _____    ______ ____
ROOT
ATOM      1  N   UNL     1      48.399   7.680  15.010  0.00  0.00    +0.000 N 
ATOM      2  H   UNL     1      48.894   8.560  15.108  0.00  0.00    +0.000 HD
ENDROOT
BRANCH   1   6
ATOM      3  C   UNL     1      48.870   5.280  18.304  0.00  0.00    +0.000 A 
ATOM      4  C   UNL     1      48.793   4.727  17.038  0.00  0.00    +0.000 A 
ATOM      5  N   UNL     1      48.677   5.486  15.916  0.00  0.00    +0.000 NA
ATOM      6  C   UNL     1      48.640   6.825  16.088  0.00  0.00    +0.000 A 
ATOM      7  C   UNL     1      48.730   7.362  17.382  0.00  0.00    +0.000 A 
ATOM      8  N   UNL     1      48.853   6.625  18.517  0.00  0.00    +0.000 NA
BRANCH   3  10
ATOM      9  N   UNL     1      48.379   3.158  19.355  0.00  0.00    +0.000 N 
ATOM     10  C   UNL     1      48.948   4.395  19.500  0.00  0.00    +0.000 C 
ATOM     11  O   UNL     1      49.493   4.740  20.539  0.00  0.00    +0.000 OA
ATOM     12  H   UNL     1      48.426   2.494  20.115  0.00  0.00    +0.000 HD
ATOM     13  H   UNL     1      47.961   2.894  18.471  0.00  0.00    +0.000 HD
ENDBRANCH   3  10
ENDBRANCH   1   6
BRANCH   1  14
ATOM     14  C   UNL     1      48.554   7.111  13.679  0.00  0.00    +0.000 C 
BRANCH  14  15
ATOM     15  C   UNL     1      47.230   7.207  12.954  0.00  0.00    +0.000 A 
ATOM     16  C   UNL     1      46.465   8.376  12.974  0.00  0.00    +0.000 A 
ATOM     17  C   UNL     1      45.273   8.440  12.256  0.00  0.00    +0.000 A 
ATOM     18  C   UNL     1      44.845   7.344  11.499  0.00  0.00    +0.000 A 
ATOM     19  C   UNL     1      45.601   6.160  11.426  0.00  0.00    +0.000 A 
ATOM     20  C   UNL     1      46.782   6.112  12.186  0.00  0.00    +0.000 A 
BRANCH  19  21
ATOM     21  C   UNL     1      45.216   5.043  10.530  0.00  0.00    +0.000 A 
ATOM     22  C   UNL     1      45.617   5.031   9.181  0.00  0.00    +0.000 A 
ATOM     23  C   UNL     1      45.328   3.952   8.338  0.00  0.00    +0.000 A 
ATOM     24  C   UNL     1      44.634   2.853   8.830  0.00  0.00    +0.000 A 
ATOM     25  C   UNL     1      44.215   2.840  10.157  0.00  0.00    +0.000 A 
ATOM     26  C   UNL     1      44.496   3.927  10.995  0.00  0.00    +0.000 A 
ENDBRANCH  19  21
ENDBRANCH  14  15
ENDBRANCH   1  14
TORSDOF 5
ENDMDL
