MODEL 1
REMARK VINA RESULT:    -8.177      0.000      0.000
REMARK INTER + INTRA:         -11.618
REMARK INTER:                 -11.045
REMARK INTRA:                  -0.573
REMARK UNBOUND:                -0.573
REMARK  Name = 
REMARK  8 active torsions:
REMARK  status: ('A' for Active; 'I' for Inactive)
REMARK    1  A    between atoms: C_1  and  C_2
REMARK    2  A    between atoms: C_2  and  C_3
REMARK    3  A    between atoms: C_2  and  C_4
REMARK    4  A    between atoms: C_2  and  C_15
REMARK    5  A    between atoms: C_4  and  O_5
REMARK    6  A    between atoms: O_5  and  C_6
REMARK    7  A    between atoms: C_9  and  C_10
REMARK    8  A    between atoms: C_20  and  C_21
REMARK                            x       y       z     vdW  Elec       q    Type
REMARK                         _______ _______ _______ _____ _____    ______ ____
ROOT
ATOM      1  C   UNL     1      42.997   5.446  11.300  0.00  0.00    +0.000 C 
ATOM      2  C   UNL     1      44.031   4.705  12.180  0.00  0.00    +0.000 C 
ATOM      3  C   UNL     1      43.447   4.392  13.580  0.00  0.00    +0.000 C 
ENDROOT
BRANCH   2   4
ATOM      4  C   UNL     1      45.340   5.541  12.280  0.00  0.00    +0.000 A 
ATOM      5  C   UNL     1      45.488   6.676  11.443  0.00  0.00    +0.000 A 
ATOM      6  C   UNL     1      46.549   7.580  11.557  0.00  0.00    +0.000 A 
ATOM      7  C   UNL     1      47.519   7.387  12.519  0.00  0.00    +0.000 A 
ATOM      8  C   UNL     1      47.457   6.252  13.317  0.00  0.00    +0.000 A 
ATOM      9  C   UNL     1      46.414   5.301  13.184  0.00  0.00    +0.000 A 
BRANCH   9  10
ATOM     10  C   UNL     1      46.597   4.075  14.031  0.00  0.00    +0.000 C 
ATOM     11  N   UNL     1      46.521   4.270  15.387  0.00  0.00    +0.000 N 
ATOM     12  O   UNL     1      46.803   2.952  13.602  0.00  0.00    +0.000 OA
ATOM     13  H   UNL     1      46.445   5.180  15.819  0.00  0.00    +0.000 HD
ATOM     14  H   UNL     1      46.703   3.469  15.979  0.00  0.00    +0.000 HD
ENDBRANCH   9  10
ENDBRANCH   2   4
BRANCH   2  15
ATOM     15  C   UNL     1      44.193   3.274  11.529  0.00  0.00    +0.000 C 
BRANCH  15  16
ATOM     16  O   UNL     1      43.619   3.165  10.212  0.00  0.00    +0.000 OA
BRANCH  16  17
ATOM     17  C   UNL     1      44.597   2.960   9.259  0.00  0.00    +0.000 A 
ATOM     18  C   UNL     1      44.935   4.005   8.402  0.00  0.00    +0.000 A 
ATOM     19  N   UNL     1      45.888   3.888   7.437  0.00  0.00    +0.000 NA
ATOM     20  C   UNL     1      46.473   2.660   7.359  0.00  0.00    +0.000 A 
ATOM     21  C   UNL     1      46.123   1.616   8.203  0.00  0.00    +0.000 A 
ATOM     22  N   UNL     1      45.182   1.744   9.171  0.00  0.00    +0.000 NA
BRANCH  20  23
ATOM     23  C   UNL     1      47.528   2.434   6.333  0.00  0.00    +0.000 C 
ATOM     24  N   UNL     1      47.487   3.251   5.236  0.00  0.00    +0.000 N 
ATOM     25  O   UNL     1      48.389   1.572   6.459  0.00  0.00    +0.000 OA
ATOM     26  H   UNL     1      46.759   3.949   5.147  0.00  0.00    +0.000 HD
ATOM     27  H   UNL     1      48.172   3.130   4.505  0.00  0.00    +0.000 HD
ENDBRANCH  20  23
ENDBRANCH  16  17
ENDBRANCH  15  16
ENDBRANCH   2  15
TORSDOF 6
ENDMDL
MODEL 2
REMARK VINA RESULT:    -7.135      3.094      7.079
REMARK INTER + INTRA:         -10.211
REMARK INTER:                  -9.706
REMARK INTRA:                  -0.505
REMARK UNBOUND:                -0.573
REMARK  Name = 
REMARK  8 active torsions:
REMARK  status: ('A' for Active; 'I' for Inactive)
REMARK    1  A    between atoms: C_1  and  C_2
REMARK    2  A    between atoms: C_2  and  C_3
REMARK    3  A    between atoms: C_2  and  C_4
REMARK    4  A    between atoms: C_2  and  C_15
REMARK    5  A    between atoms: C_4  and  O_5
REMARK    6  A    between atoms: O_5  and  C_6
REMARK    7  A    between atoms: C_9  and  C_10
REMARK    8  A    between atoms: C_20  and  C_21
REMARK                            x       y       z     vdW  Elec       q    Type
REMARK                         _______ _______ _______ _____ _____    ______ ____
ROOT
ATOM      1  C   UNL     1      44.555   7.213  11.844  0.00  0.00    +0.000 C 
ATOM      2  C   UNL     1      45.652   6.129  11.722  0.00  0.00    +0.000 C 
ATOM      3  C   UNL     1      47.041   6.769  11.478  0.00  0.00    +0.000 C 
ENDROOT
BRANCH   2   4
ATOM      4  C   UNL     1      45.280   5.123  10.593  0.00  0.00    +0.000 A 
ATOM      5  C   UNL     1      45.873   5.285   9.315  0.00  0.00    +0.000 A 
ATOM      6  C   UNL     1      45.729   4.355   8.280  0.00  0.00    +0.000 A 
ATOM      7  C   UNL     1      44.979   3.215   8.477  0.00  0.00    +0.000 A 
ATOM      8  C   UNL     1      44.320   3.044   9.688  0.00  0.00    +0.000 A 
ATOM      9  C   UNL     1      44.417   3.999  10.731  0.00  0.00    +0.000 A 
BRANCH   9  10
ATOM     10  C   UNL     1      43.523   3.712  11.902  0.00  0.00    +0.000 C 
ATOM     11  N   UNL     1      43.752   2.526  12.553  0.00  0.00    +0.000 N 
ATOM     12  O   UNL     1      42.631   4.445  12.299  0.00  0.00    +0.000 OA
ATOM     13  H   UNL     1      44.408   1.828  12.230  0.00  0.00    +0.000 HD
ATOM     14  H   UNL     1      43.122   2.283  13.306  0.00  0.00    +0.000 HD
ENDBRANCH   9  10
ENDBRANCH   2   4
BRANCH   2  15
ATOM     15  C   UNL     1      45.791   5.501  13.165  0.00  0.00    +0.000 C 
BRANCH  15  16
ATOM     16  O   UNL     1      46.825   4.504  13.269  0.00  0.00    +0.000 OA
BRANCH  16  17
ATOM     17  C   UNL     1      47.330   4.444  14.553  0.00  0.00    +0.000 A 
ATOM     18  C   UNL     1      47.841   5.602  15.132  0.00  0.00    +0.000 A 
ATOM     19  N   UNL     1      48.355   5.631  16.393  0.00  0.00    +0.000 NA
ATOM     20  C   UNL     1      48.351   4.430  17.038  0.00  0.00    +0.000 A 
ATOM     21  C   UNL     1      47.856   3.274  16.452  0.00  0.00    +0.000 A 
ATOM     22  N   UNL     1      47.333   3.257  15.201  0.00  0.00    +0.000 NA
BRANCH  20  23
ATOM     23  C   UNL     1      48.895   4.360  18.422  0.00  0.00    +0.000 C 
ATOM     24  N   UNL     1      48.463   3.311  19.187  0.00  0.00    +0.000 N 
ATOM     25  O   UNL     1      49.687   5.188  18.857  0.00  0.00    +0.000 OA
ATOM     26  H   UNL     1      47.798   2.645  18.811  0.00  0.00    +0.000 HD
ATOM     27  H   UNL     1      48.791   3.225  20.137  0.00  0.00    +0.000 HD
ENDBRANCH  20  23
ENDBRANCH  16  17
ENDBRANCH  15  16
ENDBRANCH   2  15
TORSDOF 6
ENDMDL
MODEL 3
REMARK VINA RESULT:    -7.111      1.847      2.476
REMARK INTER + INTRA:         -10.179
REMARK INTER:                  -9.942
REMARK INTRA:                  -0.237
REMARK UNBOUND:                -0.573
REMARK  Name = 
REMARK  8 active torsions:
REMARK  status: ('A' for Active; 'I' for Inactive)
REMARK    1  A    between atoms: C_1  and  C_2
REMARK    2  A    between atoms: C_2  and  C_3
REMARK    3  A    between atoms: C_2  and  C_4
REMARK    4  A    between atoms: C_2  and  C_15
REMARK    5  A    between atoms: C_4  and  O_5
REMARK    6  A    between atoms: O_5  and  C_6
REMARK    7  A    between atoms: C_9  and  C_10
REMARK    8  A    between atoms: C_20  and  C_21
REMARK                            x       y       z     vdW  Elec       q    Type
REMARK                         _______ _______ _______ _____ _____    ______ ____
ROOT
ATOM      1  C   UNL     1      43.070   6.036  12.863  0.00  0.00    +0.000 C 
ATOM      2  C   UNL     1      44.262   5.252  12.266  0.00  0.00    +0.000 C 
ATOM      3  C   UNL     1      44.296   3.799  12.800  0.00  0.00    +0.000 C 
ENDROOT
BRANCH   2   4
ATOM      4  C   UNL     1      45.594   6.001  12.564  0.00  0.00    +0.000 A 
ATOM      5  C   UNL     1      46.683   5.266  13.100  0.00  0.00    +0.000 A 
ATOM      6  C   UNL     1      47.964   5.803  13.262  0.00  0.00    +0.000 A 
ATOM      7  C   UNL     1      48.216   7.109  12.895  0.00  0.00    +0.000 A 
ATOM      8  C   UNL     1      47.166   7.891  12.431  0.00  0.00    +0.000 A 
ATOM      9  C   UNL     1      45.851   7.377  12.305  0.00  0.00    +0.000 A 
BRANCH   9  10
ATOM     10  C   UNL     1      44.828   8.409  11.927  0.00  0.00    +0.000 C 
ATOM     11  N   UNL     1      44.618   9.406  12.846  0.00  0.00    +0.000 N 
ATOM     12  O   UNL     1      44.191   8.416  10.887  0.00  0.00    +0.000 OA
ATOM     13  H   UNL     1      45.039   9.418  13.765  0.00  0.00    +0.000 HD
ATOM     14  H   UNL     1      43.890  10.078  12.641  0.00  0.00    +0.000 HD
ENDBRANCH   9  10
ENDBRANCH   2   4
BRANCH   2  15
ATOM     15  C   UNL     1      43.923   5.066  10.734  0.00  0.00    +0.000 C 
BRANCH  15  16
ATOM     16  O   UNL     1      43.754   3.691  10.337  0.00  0.00    +0.000 OA
BRANCH  16  17
ATOM     17  C   UNL     1      44.690   3.330   9.389  0.00  0.00    +0.000 A 
ATOM     18  C   UNL     1      45.230   4.313   8.564  0.00  0.00    +0.000 A 
ATOM     19  N   UNL     1      46.159   4.043   7.605  0.00  0.00    +0.000 NA
ATOM     20  C   UNL     1      46.504   2.729   7.500  0.00  0.00    +0.000 A 
ATOM     21  C   UNL     1      45.952   1.749   8.312  0.00  0.00    +0.000 A 
ATOM     22  N   UNL     1      45.038   2.028   9.274  0.00  0.00    +0.000 NA
BRANCH  20  23
ATOM     23  C   UNL     1      47.513   2.334   6.478  0.00  0.00    +0.000 C 
ATOM     24  N   UNL     1      47.483   3.030   5.300  0.00  0.00    +0.000 N 
ATOM     25  O   UNL     1      48.329   1.442   6.675  0.00  0.00    +0.000 OA
ATOM     26  H   UNL     1      46.791   3.756   5.154  0.00  0.00    +0.000 HD
ATOM     27  H   UNL     1      48.137   2.793   4.570  0.00  0.00    +0.000 HD
ENDBRANCH  20  23
ENDBRANCH  16  17
ENDBRANCH  15  16
ENDBRANCH   2  15
TORSDOF 6
ENDMDL
MODEL 4
REMARK VINA RESULT:    -6.826      3.037      6.776
REMARK INTER + INTRA:          -9.793
REMARK INTER:                  -9.473
REMARK INTRA:                  -0.320
REMARK UNBOUND:                -0.573
REMARK  Name = 
REMARK  8 active torsions:
REMARK  status: ('A' for Active; 'I' for Inactive)
REMARK    1  A    between atoms: C_1  and  C_2
REMARK    2  A    between atoms: C_2  and  C_3
REMARK    3  A    between atoms: C_2  and  C_4
REMARK    4  A    between atoms: C_2  and  C_15
REMARK    5  A    between atoms: C_4  and  O_5
REMARK    6  A    between atoms: O_5  and  C_6
REMARK    7  A    between atoms: C_9  and  C_10
REMARK    8  A    between atoms: C_20  and  C_21
REMARK                            x       y       z     vdW  Elec       q    Type
REMARK                         _______ _______ _______ _____ _____    ______ ____
ROOT
ATOM      1  C   UNL     1      43.425   2.572  12.368  0.00  0.00    +0.000 C 
ATOM      2  C   UNL     1      43.909   3.991  11.990  0.00  0.00    +0.000 C 
ATOM      3  C   UNL     1      42.730   4.994  11.970  0.00  0.00    +0.000 C 
ENDROOT
BRANCH   2   4
ATOM      4  C   UNL     1      44.649   3.953  10.621  0.00  0.00    +0.000 A 
ATOM      5  C   UNL     1      44.569   2.773   9.837  0.00  0.00    +0.000 A 
ATOM      6  C   UNL     1      45.065   2.684   8.532  0.00  0.00    +0.000 A 
ATOM      7  C   UNL     1      45.670   3.778   7.949  0.00  0.00    +0.000 A 
ATOM      8  C   UNL     1      45.836   4.934   8.700  0.00  0.00    +0.000 A 
ATOM      9  C   UNL     1      45.381   5.026  10.039  0.00  0.00    +0.000 A 
BRANCH   9  10
ATOM     10  C   UNL     1      45.779   6.298  10.730  0.00  0.00    +0.000 C 
ATOM     11  N   UNL     1      44.804   7.261  10.817  0.00  0.00    +0.000 N 
ATOM     12  O   UNL     1      46.881   6.524  11.203  0.00  0.00    +0.000 OA
ATOM     13  H   UNL     1      43.900   7.184  10.371  0.00  0.00    +0.000 HD
ATOM     14  H   UNL     1      45.068   8.149  11.224  0.00  0.00    +0.000 HD
ENDBRANCH   9  10
ENDBRANCH   2   4
BRANCH   2  15
ATOM     15  C   UNL     1      44.781   4.482  13.213  0.00  0.00    +0.000 C 
BRANCH  15  16
ATOM     16  O   UNL     1      46.032   3.781  13.354  0.00  0.00    +0.000 OA
BRANCH  16  17
ATOM     17  C   UNL     1      46.800   4.335  14.360  0.00  0.00    +0.000 A 
ATOM     18  C   UNL     1      47.546   5.479  14.087  0.00  0.00    +0.000 A 
ATOM     19  N   UNL     1      48.328   6.089  15.021  0.00  0.00    +0.000 NA
ATOM     20  C   UNL     1      48.341   5.480  16.240  0.00  0.00    +0.000 A 
ATOM     21  C   UNL     1      47.609   4.331  16.504  0.00  0.00    +0.000 A 
ATOM     22  N   UNL     1      46.822   3.737  15.572  0.00  0.00    +0.000 NA
BRANCH  20  23
ATOM     23  C   UNL     1      49.167   6.073  17.327  0.00  0.00    +0.000 C 
ATOM     24  N   UNL     1      48.559   7.031  18.093  0.00  0.00    +0.000 N 
ATOM     25  O   UNL     1      50.324   5.725  17.533  0.00  0.00    +0.000 OA
ATOM     26  H   UNL     1      47.606   7.311  17.896  0.00  0.00    +0.000 HD
ATOM     27  H   UNL     1      49.080   7.473  18.834  0.00  0.00    +0.000 HD
ENDBRANCH  20  23
ENDBRANCH  16  17
ENDBRANCH  15  16
ENDBRANCH   2  15
TORSDOF 6
ENDMDL
MODEL 5
REMARK VINA RESULT:    -6.537      4.121      6.347
REMARK INTER + INTRA:          -9.403
REMARK INTER:                  -9.101
REMARK INTRA:                  -0.302
REMARK UNBOUND:                -0.573
REMARK  Name = 
REMARK  8 active torsions:
REMARK  status: ('A' for Active; 'I' for Inactive)
REMARK    1  A    between atoms: C_1  and  C_2
REMARK    2  A    between atoms: C_2  and  C_3
REMARK    3  A    between atoms: C_2  and  C_4
REMARK    4  A    between atoms: C_2  and  C_15
REMARK    5  A    between atoms: C_4  and  O_5
REMARK    6  A    between atoms: O_5  and  C_6
REMARK    7  A    between atoms: C_9  and  C_10
REMARK    8  A    between atoms: C_20  and  C_21
REMARK                            x       y       z     vdW  Elec       q    Type
REMARK                         _______ _______ _______ _____ _____    ______ ____
ROOT
ATOM      1  C   UNL     1      47.198   5.200  18.128  0.00  0.00    +0.000 C 
ATOM      2  C   UNL     1      48.009   4.025  17.534  0.00  0.00    +0.000 C 
ATOM      3  C   UNL     1      47.622   2.686  18.209  0.00  0.00    +0.000 C 
ENDROOT
BRANCH   2   4
ATOM      4  C   UNL     1      49.533   4.312  17.665  0.00  0.00    +0.000 A 
ATOM      5  C   UNL     1      49.952   5.624  18.005  0.00  0.00    +0.000 A 
ATOM      6  C   UNL     1      51.279   5.954  18.296  0.00  0.00    +0.000 A 
ATOM      7  C   UNL     1      52.256   4.981  18.257  0.00  0.00    +0.000 A 
ATOM      8  C   UNL     1      51.909   3.695  17.860  0.00  0.00    +0.000 A 
ATOM      9  C   UNL     1      50.576   3.354  17.517  0.00  0.00    +0.000 A 
BRANCH   9  10
ATOM     10  C   UNL     1      50.425   1.962  16.977  0.00  0.00    +0.000 C 
ATOM     11  N   UNL     1      50.927   0.957  17.766  0.00  0.00    +0.000 N 
ATOM     12  O   UNL     1      49.902   1.676  15.912  0.00  0.00    +0.000 OA
ATOM     13  H   UNL     1      51.453   1.121  18.614  0.00  0.00    +0.000 HD
ATOM     14  H   UNL     1      50.891   0.017  17.394  0.00  0.00    +0.000 HD
ENDBRANCH   9  10
ENDBRANCH   2   4
BRANCH   2  15
ATOM     15  C   UNL     1      47.481   3.850  16.055  0.00  0.00    +0.000 C 
BRANCH  15  16
ATOM     16  O   UNL     1      47.851   4.928  15.173  0.00  0.00    +0.000 OA
BRANCH  16  17
ATOM     17  C   UNL     1      47.048   4.949  14.050  0.00  0.00    +0.000 A 
ATOM     18  C   UNL     1      47.232   5.956  13.106  0.00  0.00    +0.000 A 
ATOM     19  N   UNL     1      46.485   6.048  11.972  0.00  0.00    +0.000 NA
ATOM     20  C   UNL     1      45.525   5.090  11.841  0.00  0.00    +0.000 A 
ATOM     21  C   UNL     1      45.333   4.097  12.791  0.00  0.00    +0.000 A 
ATOM     22  N   UNL     1      46.091   4.003  13.912  0.00  0.00    +0.000 NA
BRANCH  20  23
ATOM     23  C   UNL     1      44.656   5.108  10.633  0.00  0.00    +0.000 C 
ATOM     24  N   UNL     1      45.274   5.410   9.449  0.00  0.00    +0.000 N 
ATOM     25  O   UNL     1      43.457   4.863  10.685  0.00  0.00    +0.000 OA
ATOM     26  H   UNL     1      46.265   5.621   9.431  0.00  0.00    +0.000 HD
ATOM     27  H   UNL     1      44.727   5.448   8.603  0.00  0.00    +0.000 HD
ENDBRANCH  20  23
ENDBRANCH  16  17
ENDBRANCH  15  16
ENDBRANCH   2  15
TORSDOF 6
ENDMDL
MODEL 6
REMARK VINA RESULT:    -6.268      4.314      6.684
REMARK INTER + INTRA:          -9.040
REMARK INTER:                  -8.714
REMARK INTRA:                  -0.326
REMARK UNBOUND:                -0.573
REMARK  Name = 
REMARK  8 active torsions:
REMARK  status: ('A' for Active; 'I' for Inactive)
REMARK    1  A    between atoms: C_1  and  C_2
REMARK    2  A    between atoms: C_2  and  C_3
REMARK    3  A    between atoms: C_2  and  C_4
REMARK    4  A    between atoms: C_2  and  C_15
REMARK    5  A    between atoms: C_4  and  O_5
REMARK    6  A    between atoms: O_5  and  C_6
REMARK    7  A    between atoms: C_9  and  C_10
REMARK    8  A    between atoms: C_20  and  C_21
REMARK                            x       y       z     vdW  Elec       q    Type
REMARK                         _______ _______ _______ _____ _____    ______ ____
ROOT
ATOM      1  C   UNL     1      48.673   6.053  16.212  0.00  0.00    +0.000 C 
ATOM      2  C   UNL     1      48.226   4.766  16.943  0.00  0.00    +0.000 C 
ATOM      3  C   UNL     1      47.368   5.101  18.188  0.00  0.00    +0.000 C 
ENDROOT
BRANCH   2   4
ATOM      4  C   UNL     1      49.472   3.911  17.322  0.00  0.00    +0.000 A 
ATOM      5  C   UNL     1      49.498   2.543  16.945  0.00  0.00    +0.000 A 
ATOM      6  C   UNL     1      50.623   1.727  17.098  0.00  0.00    +0.000 A 
ATOM      7  C   UNL     1      51.781   2.245  17.641  0.00  0.00    +0.000 A 
ATOM      8  C   UNL     1      51.784   3.559  18.090  0.00  0.00    +0.000 A 
ATOM      9  C   UNL     1      50.638   4.387  17.985  0.00  0.00    +0.000 A 
BRANCH   9  10
ATOM     10  C   UNL     1      50.789   5.722  18.654  0.00  0.00    +0.000 C 
ATOM     11  N   UNL     1      51.566   6.638  17.990  0.00  0.00    +0.000 N 
ATOM     12  O   UNL     1      50.281   6.034  19.718  0.00  0.00    +0.000 OA
ATOM     13  H   UNL     1      52.093   6.424  17.154  0.00  0.00    +0.000 HD
ATOM     14  H   UNL     1      51.733   7.523  18.451  0.00  0.00    +0.000 HD
ENDBRANCH   9  10
ENDBRANCH   2   4
BRANCH   2  15
ATOM     15  C   UNL     1      47.197   4.062  15.973  0.00  0.00    +0.000 C 
BRANCH  15  16
ATOM     16  O   UNL     1      47.616   4.042  14.594  0.00  0.00    +0.000 OA
BRANCH  16  17
ATOM     17  C   UNL     1      46.555   4.303  13.749  0.00  0.00    +0.000 A 
ATOM     18  C   UNL     1      46.086   5.609  13.638  0.00  0.00    +0.000 A 
ATOM     19  N   UNL     1      45.046   5.952  12.828  0.00  0.00    +0.000 NA
ATOM     20  C   UNL     1      44.486   4.913  12.148  0.00  0.00    +0.000 A 
ATOM     21  C   UNL     1      44.945   3.610  12.273  0.00  0.00    +0.000 A 
ATOM     22  N   UNL     1      45.990   3.278  13.073  0.00  0.00    +0.000 NA
BRANCH  20  23
ATOM     23  C   UNL     1      43.342   5.188  11.236  0.00  0.00    +0.000 C 
ATOM     24  N   UNL     1      42.291   5.880  11.777  0.00  0.00    +0.000 N 
ATOM     25  O   UNL     1      43.335   4.826  10.066  0.00  0.00    +0.000 OA
ATOM     26  H   UNL     1      42.313   6.159  12.751  0.00  0.00    +0.000 HD
ATOM     27  H   UNL     1      41.486   6.080  11.205  0.00  0.00    +0.000 HD
ENDBRANCH  20  23
ENDBRANCH  16  17
ENDBRANCH  15  16
ENDBRANCH   2  15
TORSDOF 6
ENDMDL
MODEL 7
REMARK VINA RESULT:    -6.217      3.925      6.354
REMARK INTER + INTRA:          -8.972
REMARK INTER:                  -8.557
REMARK INTRA:                  -0.415
REMARK UNBOUND:                -0.573
REMARK  Name = 
REMARK  8 active torsions:
REMARK  status: ('A' for Active; 'I' for Inactive)
REMARK    1  A    between atoms: C_1  and  C_2
REMARK    2  A    between atoms: C_2  and  C_3
REMARK    3  A    between atoms: C_2  and  C_4
REMARK    4  A    between atoms: C_2  and  C_15
REMARK    5  A    between atoms: C_4  and  O_5
REMARK    6  A    between atoms: O_5  and  C_6
REMARK    7  A    between atoms: C_9  and  C_10
REMARK    8  A    between atoms: C_20  and  C_21
REMARK                            x       y       z     vdW  Elec       q    Type
REMARK                         _______ _______ _______ _____ _____    ______ ____
ROOT
ATOM      1  C   UNL     1      49.057   7.288  16.362  0.00  0.00    +0.000 C 
ATOM      2  C   UNL     1      48.755   5.883  16.932  0.00  0.00    +0.000 C 
ATOM      3  C   UNL     1      47.927   5.977  18.236  0.00  0.00    +0.000 C 
ENDROOT
BRANCH   2   4
ATOM      4  C   UNL     1      50.085   5.103  17.154  0.00  0.00    +0.000 A 
ATOM      5  C   UNL     1      51.306   5.825  17.147  0.00  0.00    +0.000 A 
ATOM      6  C   UNL     1      52.536   5.253  17.485  0.00  0.00    +0.000 A 
ATOM      7  C   UNL     1      52.603   3.923  17.846  0.00  0.00    +0.000 A 
ATOM      8  C   UNL     1      51.445   3.156  17.800  0.00  0.00    +0.000 A 
ATOM      9  C   UNL     1      50.198   3.708  17.415  0.00  0.00    +0.000 A 
BRANCH   9  10
ATOM     10  C   UNL     1      49.098   2.695  17.287  0.00  0.00    +0.000 C 
ATOM     11  N   UNL     1      49.214   1.816  16.239  0.00  0.00    +0.000 N 
ATOM     12  O   UNL     1      48.137   2.607  18.032  0.00  0.00    +0.000 OA
ATOM     13  H   UNL     1      49.930   1.884  15.528  0.00  0.00    +0.000 HD
ATOM     14  H   UNL     1      48.453   1.165  16.097  0.00  0.00    +0.000 HD
ENDBRANCH   9  10
ENDBRANCH   2   4
BRANCH   2  15
ATOM     15  C   UNL     1      47.748   5.219  15.911  0.00  0.00    +0.000 C 
BRANCH  15  16
ATOM     16  O   UNL     1      48.016   5.543  14.533  0.00  0.00    +0.000 OA
BRANCH  16  17
ATOM     17  C   UNL     1      47.066   4.987  13.699  0.00  0.00    +0.000 A 
ATOM     18  C   UNL     1      46.832   3.616  13.762  0.00  0.00    +0.000 A 
ATOM     19  N   UNL     1      45.914   2.988  12.976  0.00  0.00    +0.000 NA
ATOM     20  C   UNL     1      45.255   3.804  12.106  0.00  0.00    +0.000 A 
ATOM     21  C   UNL     1      45.502   5.168  12.034  0.00  0.00    +0.000 A 
ATOM     22  N   UNL     1      46.409   5.788  12.830  0.00  0.00    +0.000 NA
BRANCH  20  23
ATOM     23  C   UNL     1      44.231   3.209  11.204  0.00  0.00    +0.000 C 
ATOM     24  N   UNL     1      44.706   2.443  10.174  0.00  0.00    +0.000 N 
ATOM     25  O   UNL     1      43.030   3.387  11.370  0.00  0.00    +0.000 OA
ATOM     26  H   UNL     1      45.703   2.320  10.048  0.00  0.00    +0.000 HD
ATOM     27  H   UNL     1      44.054   2.028   9.526  0.00  0.00    +0.000 HD
ENDBRANCH  20  23
ENDBRANCH  16  17
ENDBRANCH  15  16
ENDBRANCH   2  15
TORSDOF 6
ENDMDL
MODEL 8
REMARK VINA RESULT:    -5.884      4.030      6.621
REMARK INTER + INTRA:          -8.522
REMARK INTER:                  -7.919
REMARK INTRA:                  -0.603
REMARK UNBOUND:                -0.573
REMARK  Name = 
REMARK  8 active torsions:
REMARK  status: ('A' for Active; 'I' for Inactive)
REMARK    1  A    between atoms: C_1  and  C_2
REMARK    2  A    between atoms: C_2  and  C_3
REMARK    3  A    between atoms: C_2  and  C_4
REMARK    4  A    between atoms: C_2  and  C_15
REMARK    5  A    between atoms: C_4  and  O_5
REMARK    6  A    between atoms: O_5  and  C_6
REMARK    7  A    between atoms: C_9  and  C_10
REMARK    8  A    between atoms: C_20  and  C_21
REMARK                            x       y       z     vdW  Elec       q    Type
REMARK                         _______ _______ _______ _____ _____    ______ ____
ROOT
ATOM      1  C   UNL     1      49.889   7.061  16.276  0.00  0.00    +0.000 C 
ATOM      2  C   UNL     1      49.024   5.962  16.935  0.00  0.00    +0.000 C 
ATOM      3  C   UNL     1      48.432   6.451  18.280  0.00  0.00    +0.000 C 
ENDROOT
BRANCH   2   4
ATOM      4  C   UNL     1      49.864   4.664  17.120  0.00  0.00    +0.000 A 
ATOM      5  C   UNL     1      51.260   4.784  17.341  0.00  0.00    +0.000 A 
ATOM      6  C   UNL     1      52.080   3.699  17.668  0.00  0.00    +0.000 A 
ATOM      7  C   UNL     1      51.538   2.436  17.789  0.00  0.00    +0.000 A 
ATOM      8  C   UNL     1      50.188   2.255  17.513  0.00  0.00    +0.000 A 
ATOM      9  C   UNL     1      49.352   3.336  17.135  0.00  0.00    +0.000 A 
BRANCH   9  10
ATOM     10  C   UNL     1      47.965   2.921  16.739  0.00  0.00    +0.000 C 
ATOM     11  N   UNL     1      47.808   2.531  15.432  0.00  0.00    +0.000 N 
ATOM     12  O   UNL     1      46.998   2.910  17.483  0.00  0.00    +0.000 OA
ATOM     13  H   UNL     1      48.537   2.600  14.736  0.00  0.00    +0.000 HD
ATOM     14  H   UNL     1      46.869   2.307  15.127  0.00  0.00    +0.000 HD
ENDBRANCH   9  10
ENDBRANCH   2   4
BRANCH   2  15
ATOM     15  C   UNL     1      47.750   5.813  16.012  0.00  0.00    +0.000 C 
BRANCH  15  16
ATOM     16  O   UNL     1      48.060   5.576  14.625  0.00  0.00    +0.000 OA
BRANCH  16  17
ATOM     17  C   UNL     1      46.914   5.566  13.855  0.00  0.00    +0.000 A 
ATOM     18  C   UNL     1      46.659   6.641  13.008  0.00  0.00    +0.000 A 
ATOM     19  N   UNL     1      45.555   6.710  12.215  0.00  0.00    +0.000 NA
ATOM     20  C   UNL     1      44.704   5.651  12.330  0.00  0.00    +0.000 A 
ATOM     21  C   UNL     1      44.952   4.588  13.187  0.00  0.00    +0.000 A 
ATOM     22  N   UNL     1      46.062   4.522  13.964  0.00  0.00    +0.000 NA
BRANCH  20  23
ATOM     23  C   UNL     1      43.466   5.635  11.502  0.00  0.00    +0.000 C 
ATOM     24  N   UNL     1      42.939   6.857  11.182  0.00  0.00    +0.000 N 
ATOM     25  O   UNL     1      42.947   4.593  11.121  0.00  0.00    +0.000 OA
ATOM     26  H   UNL     1      43.378   7.706  11.518  0.00  0.00    +0.000 HD
ATOM     27  H   UNL     1      42.093   6.901  10.634  0.00  0.00    +0.000 HD
ENDBRANCH  20  23
ENDBRANCH  16  17
ENDBRANCH  15  16
ENDBRANCH   2  15
TORSDOF 6
ENDMDL
MODEL 9
REMARK VINA RESULT:    -5.813      3.468      7.050
REMARK INTER + INTRA:          -8.425
REMARK INTER:                  -8.125
REMARK INTRA:                  -0.299
REMARK UNBOUND:                -0.573
REMARK  Name = 
REMARK  8 active torsions:
REMARK  status: ('A' for Active; 'I' for Inactive)
REMARK    1  A    between atoms: C_1  and  C_2
REMARK    2  A    between atoms: C_2  and  C_3
REMARK    3  A    between atoms: C_2  and  C_4
REMARK    4  A    between atoms: C_2  and  C_15
REMARK    5  A    between atoms: C_4  and  O_5
REMARK    6  A    between atoms: O_5  and  C_6
REMARK    7  A    between atoms: C_9  and  C_10
REMARK    8  A    between atoms: C_20  and  C_21
REMARK                            x       y       z     vdW  Elec       q    Type
REMARK                         _______ _______ _______ _____ _____    ______ ____
ROOT
ATOM      1  C   UNL     1      45.852   4.947  12.816  0.00  0.00    +0.000 C 
ATOM      2  C   UNL     1      45.658   5.836  11.565  0.00  0.00    +0.000 C 
ATOM      3  C   UNL     1      44.544   6.885  11.796  0.00  0.00    +0.000 C 
ENDROOT
BRANCH   2   4
ATOM      4  C   UNL     1      45.359   4.947  10.323  0.00  0.00    +0.000 A 
ATOM      5  C   UNL     1      46.078   5.188   9.124  0.00  0.00    +0.000 A 
ATOM      6  C   UNL     1      45.999   4.357   8.002  0.00  0.00    +0.000 A 
ATOM      7  C   UNL     1      45.189   3.241   8.027  0.00  0.00    +0.000 A 
ATOM      8  C   UNL     1      44.410   3.000   9.152  0.00  0.00    +0.000 A 
ATOM      9  C   UNL     1      44.443   3.857  10.280  0.00  0.00    +0.000 A 
BRANCH   9  10
ATOM     10  C   UNL     1      43.430   3.515  11.333  0.00  0.00    +0.000 C 
ATOM     11  N   UNL     1      43.548   2.268  11.893  0.00  0.00    +0.000 N 
ATOM     12  O   UNL     1      42.534   4.253  11.710  0.00  0.00    +0.000 OA
ATOM     13  H   UNL     1      44.203   1.569  11.571  0.00  0.00    +0.000 HD
ATOM     14  H   UNL     1      42.839   1.993  12.561  0.00  0.00    +0.000 HD
ENDBRANCH   9  10
ENDBRANCH   2   4
BRANCH   2  15
ATOM     15  C   UNL     1      46.967   6.715  11.464  0.00  0.00    +0.000 C 
BRANCH  15  16
ATOM     16  O   UNL     1      47.001   7.819  12.390  0.00  0.00    +0.000 OA
BRANCH  16  17
ATOM     17  C   UNL     1      48.217   7.883  13.042  0.00  0.00    +0.000 A 
ATOM     18  C   UNL     1      48.504   6.943  14.028  0.00  0.00    +0.000 A 
ATOM     19  N   UNL     1      49.679   6.933  14.717  0.00  0.00    +0.000 NA
ATOM     20  C   UNL     1      50.545   7.930  14.382  0.00  0.00    +0.000 A 
ATOM     21  C   UNL     1      50.249   8.875  13.409  0.00  0.00    +0.000 A 
ATOM     22  N   UNL     1      49.083   8.870  12.718  0.00  0.00    +0.000 NA
BRANCH  20  23
ATOM     23  C   UNL     1      51.857   8.004  15.082  0.00  0.00    +0.000 C 
ATOM     24  N   UNL     1      52.930   7.486  14.408  0.00  0.00    +0.000 N 
ATOM     25  O   UNL     1      51.978   8.502  16.194  0.00  0.00    +0.000 OA
ATOM     26  H   UNL     1      52.804   7.067  13.494  0.00  0.00    +0.000 HD
ATOM     27  H   UNL     1      53.839   7.499  14.844  0.00  0.00    +0.000 HD
ENDBRANCH  20  23
ENDBRANCH  16  17
ENDBRANCH  15  16
ENDBRANCH   2  15
TORSDOF 6
ENDMDL
