MODEL 1
REMARK VINA RESULT:    -8.504      0.000      0.000
REMARK INTER + INTRA:         -12.522
REMARK INTER:                 -11.487
REMARK INTRA:                  -1.035
REMARK UNBOUND:                -1.035
REMARK  Name = 
REMARK  10 active torsions:
REMARK  status: ('A' for Active; 'I' for Inactive)
REMARK    1  A    between atoms: C_1  and  C_2
REMARK    2  A    between atoms: C_2  and  C_3
REMARK    3  A    between atoms: C_5  and  O_6
REMARK    4  A    between atoms: O_6  and  C_7
REMARK    5  A    between atoms: C_12  and  C_13
REMARK    6  A    between atoms: C_13  and  C_14
REMARK    7  A    between atoms: C_13  and  C_15
REMARK    8  A    between atoms: C_13  and  C_16
REMARK    9  A    between atoms: C_16  and  N_17
REMARK   10  A    between atoms: C_21  and  C_22
REMARK                            x       y       z     vdW  Elec       q    Type
REMARK                         _______ _______ _______ _____ _____    ______ ____
ROOT
ATOM      1  C   UNL     1      47.085   5.043  13.626  0.00  0.00    +0.000 A 
ATOM      2  C   UNL     1      47.908   5.990  13.037  0.00  0.00    +0.000 A 
ATOM      3  C   UNL     1      47.425   6.733  11.976  0.00  0.00    +0.000 A 
ATOM      4  F   UNL     1      48.219   7.626  11.380  0.00  0.00    +0.000 F 
ATOM      5  C   UNL     1      46.121   6.561  11.513  0.00  0.00    +0.000 A 
ATOM      6  C   UNL     1      45.260   5.627  12.110  0.00  0.00    +0.000 A 
ATOM      7  C   UNL     1      45.776   4.864  13.173  0.00  0.00    +0.000 A 
ENDROOT
BRANCH   6   8
ATOM      8  C   UNL     1      43.819   5.466  11.590  0.00  0.00    +0.000 C 
ATOM      9  C   UNL     1      43.020   4.550  12.547  0.00  0.00    +0.000 C 
ATOM     10  C   UNL     1      43.146   6.862  11.571  0.00  0.00    +0.000 C 
BRANCH   8  11
ATOM     11  C   UNL     1      43.707   4.890  10.143  0.00  0.00    +0.000 C 
BRANCH  11  12
ATOM     12  N   UNL     1      44.007   3.449  10.079  0.00  0.00    +0.000 N 
ATOM     13  C   UNL     1      44.954   3.107   9.108  0.00  0.00    +0.000 A 
ATOM     14  C   UNL     1      45.350   1.777   8.992  0.00  0.00    +0.000 A 
ATOM     15  C   UNL     1      46.284   1.424   8.016  0.00  0.00    +0.000 A 
ATOM     16  C   UNL     1      46.801   2.414   7.185  0.00  0.00    +0.000 A 
ATOM     17  C   UNL     1      46.370   3.714   7.379  0.00  0.00    +0.000 A 
ATOM     18  N   UNL     1      45.472   4.072   8.321  0.00  0.00    +0.000 NA
ATOM     19  H   UNL     1      43.184   2.870   9.961  0.00  0.00    +0.000 HD
BRANCH  16  20
ATOM     20  C   UNL     1      47.739   2.120   6.155  0.00  0.00    +0.000 C 
ATOM     21  N   UNL     1      48.514   1.888   5.321  0.00  0.00    +0.000 NA
ENDBRANCH  16  20
ENDBRANCH  11  12
ENDBRANCH   8  11
ENDBRANCH   6   8
BRANCH   1  22
ATOM     22  O   UNL     1      47.480   4.231  14.661  0.00  0.00    +0.000 OA
BRANCH  22  27
ATOM     23  C   UNL     1      47.301   5.483  18.966  0.00  0.00    +0.000 C 
ATOM     24  C   UNL     1      48.114   4.633  17.991  0.00  0.00    +0.000 C 
ATOM     25  C   UNL     1      49.294   3.951  18.673  0.00  0.00    +0.000 C 
ATOM     26  C   UNL     1      48.501   5.382  16.693  0.00  0.00    +0.000 C 
ATOM     27  C   UNL     1      47.272   4.743  15.995  0.00  0.00    +0.000 C 
ATOM     28  C   UNL     1      47.262   3.678  17.112  0.00  0.00    +0.000 C 
ENDBRANCH  22  27
ENDBRANCH   1  22
TORSDOF 6
ENDMDL
MODEL 2
REMARK VINA RESULT:    -7.733      2.376      4.220
REMARK INTER + INTRA:         -11.480
REMARK INTER:                 -10.487
REMARK INTRA:                  -0.993
REMARK UNBOUND:                -1.035
REMARK  Name = 
REMARK  10 active torsions:
REMARK  status: ('A' for Active; 'I' for Inactive)
REMARK    1  A    between atoms: C_1  and  C_2
REMARK    2  A    between atoms: C_2  and  C_3
REMARK    3  A    between atoms: C_5  and  O_6
REMARK    4  A    between atoms: O_6  and  C_7
REMARK    5  A    between atoms: C_12  and  C_13
REMARK    6  A    between atoms: C_13  and  C_14
REMARK    7  A    between atoms: C_13  and  C_15
REMARK    8  A    between atoms: C_13  and  C_16
REMARK    9  A    between atoms: C_16  and  N_17
REMARK   10  A    between atoms: C_21  and  C_22
REMARK                            x       y       z     vdW  Elec       q    Type
REMARK                         _______ _______ _______ _____ _____    ______ ____
ROOT
ATOM      1  C   UNL     1      47.140   6.592  12.123  0.00  0.00    +0.000 A 
ATOM      2  C   UNL     1      47.658   6.081  13.303  0.00  0.00    +0.000 A 
ATOM      3  C   UNL     1      46.923   5.150  14.012  0.00  0.00    +0.000 A 
ATOM      4  F   UNL     1      47.397   4.675  15.166  0.00  0.00    +0.000 F 
ATOM      5  C   UNL     1      45.689   4.702  13.544  0.00  0.00    +0.000 A 
ATOM      6  C   UNL     1      45.154   5.184  12.338  0.00  0.00    +0.000 A 
ATOM      7  C   UNL     1      45.907   6.148  11.642  0.00  0.00    +0.000 A 
ENDROOT
BRANCH   6   8
ATOM      8  C   UNL     1      43.795   4.662  11.834  0.00  0.00    +0.000 C 
ATOM      9  C   UNL     1      43.381   3.416  12.653  0.00  0.00    +0.000 C 
ATOM     10  C   UNL     1      42.733   5.770  12.054  0.00  0.00    +0.000 C 
BRANCH   8  11
ATOM     11  C   UNL     1      43.759   4.295  10.318  0.00  0.00    +0.000 C 
BRANCH  11  12
ATOM     12  N   UNL     1      44.107   2.886  10.064  0.00  0.00    +0.000 N 
ATOM     13  C   UNL     1      45.047   2.707   9.044  0.00  0.00    +0.000 A 
ATOM     14  C   UNL     1      45.487   1.418   8.752  0.00  0.00    +0.000 A 
ATOM     15  C   UNL     1      46.414   1.228   7.725  0.00  0.00    +0.000 A 
ATOM     16  C   UNL     1      46.880   2.334   7.022  0.00  0.00    +0.000 A 
ATOM     17  C   UNL     1      46.408   3.581   7.388  0.00  0.00    +0.000 A 
ATOM     18  N   UNL     1      45.516   3.782   8.380  0.00  0.00    +0.000 NA
ATOM     19  H   UNL     1      43.303   2.297   9.884  0.00  0.00    +0.000 HD
BRANCH  16  20
ATOM     20  C   UNL     1      47.808   2.209   5.949  0.00  0.00    +0.000 C 
ATOM     21  N   UNL     1      48.559   2.096   5.069  0.00  0.00    +0.000 NA
ENDBRANCH  16  20
ENDBRANCH  11  12
ENDBRANCH   8  11
ENDBRANCH   6   8
BRANCH   1  22
ATOM     22  O   UNL     1      47.775   7.544  11.363  0.00  0.00    +0.000 OA
BRANCH  22  27
ATOM     23  C   UNL     1      50.235  10.888  13.066  0.00  0.00    +0.000 C 
ATOM     24  C   UNL     1      49.749  10.303  11.741  0.00  0.00    +0.000 C 
ATOM     25  C   UNL     1      50.248  11.106  10.545  0.00  0.00    +0.000 C 
ATOM     26  C   UNL     1      48.227  10.029  11.709  0.00  0.00    +0.000 C 
ATOM     27  C   UNL     1      48.516   8.552  12.084  0.00  0.00    +0.000 C 
ATOM     28  C   UNL     1      49.965   8.772  11.601  0.00  0.00    +0.000 C 
ENDBRANCH  22  27
ENDBRANCH   1  22
TORSDOF 6
ENDMDL
MODEL 3
REMARK VINA RESULT:    -7.097      3.655      8.776
REMARK INTER + INTRA:         -10.621
REMARK INTER:                  -9.780
REMARK INTRA:                  -0.841
REMARK UNBOUND:                -1.035
REMARK  Name = 
REMARK  10 active torsions:
REMARK  status: ('A' for Active; 'I' for Inactive)
REMARK    1  A    between atoms: C_1  and  C_2
REMARK    2  A    between atoms: C_2  and  C_3
REMARK    3  A    between atoms: C_5  and  O_6
REMARK    4  A    between atoms: O_6  and  C_7
REMARK    5  A    between atoms: C_12  and  C_13
REMARK    6  A    between atoms: C_13  and  C_14
REMARK    7  A    between atoms: C_13  and  C_15
REMARK    8  A    between atoms: C_13  and  C_16
REMARK    9  A    between atoms: C_16  and  N_17
REMARK   10  A    between atoms: C_21  and  C_22
REMARK                            x       y       z     vdW  Elec       q    Type
REMARK                         _______ _______ _______ _____ _____    ______ ____
ROOT
ATOM      1  C   UNL     1      44.672   4.993  10.181  0.00  0.00    +0.000 A 
ATOM      2  C   UNL     1      43.607   4.713  11.022  0.00  0.00    +0.000 A 
ATOM      3  C   UNL     1      43.680   5.092  12.349  0.00  0.00    +0.000 A 
ATOM      4  F   UNL     1      42.674   4.799  13.176  0.00  0.00    +0.000 F 
ATOM      5  C   UNL     1      44.793   5.772  12.841  0.00  0.00    +0.000 A 
ATOM      6  C   UNL     1      45.874   6.091  12.003  0.00  0.00    +0.000 A 
ATOM      7  C   UNL     1      45.791   5.678  10.661  0.00  0.00    +0.000 A 
ENDROOT
BRANCH   6   8
ATOM      8  C   UNL     1      47.086   6.857  12.567  0.00  0.00    +0.000 C 
ATOM      9  C   UNL     1      47.999   7.314  11.404  0.00  0.00    +0.000 C 
ATOM     10  C   UNL     1      46.569   8.117  13.308  0.00  0.00    +0.000 C 
BRANCH   8  11
ATOM     11  C   UNL     1      47.948   6.052  13.589  0.00  0.00    +0.000 C 
BRANCH  11  12
ATOM     12  N   UNL     1      48.580   6.913  14.604  0.00  0.00    +0.000 N 
ATOM     13  C   UNL     1      48.618   6.350  15.884  0.00  0.00    +0.000 A 
ATOM     14  C   UNL     1      49.237   7.056  16.913  0.00  0.00    +0.000 A 
ATOM     15  C   UNL     1      49.267   6.508  18.197  0.00  0.00    +0.000 A 
ATOM     16  C   UNL     1      48.681   5.266  18.416  0.00  0.00    +0.000 A 
ATOM     17  C   UNL     1      48.104   4.621  17.336  0.00  0.00    +0.000 A 
ATOM     18  N   UNL     1      48.071   5.135  16.089  0.00  0.00    +0.000 NA
ATOM     19  H   UNL     1      48.173   7.839  14.659  0.00  0.00    +0.000 HD
BRANCH  16  20
ATOM     20  C   UNL     1      48.656   4.660  19.704  0.00  0.00    +0.000 C 
ATOM     21  N   UNL     1      48.649   4.165  20.755  0.00  0.00    +0.000 NA
ENDBRANCH  16  20
ENDBRANCH  11  12
ENDBRANCH   8  11
ENDBRANCH   6   8
BRANCH   1  22
ATOM     22  O   UNL     1      44.712   4.629   8.857  0.00  0.00    +0.000 OA
BRANCH  22  27
ATOM     23  C   UNL     1      47.615   1.650   7.173  0.00  0.00    +0.000 C 
ATOM     24  C   UNL     1      46.678   2.784   6.763  0.00  0.00    +0.000 C 
ATOM     25  C   UNL     1      46.705   3.033   5.259  0.00  0.00    +0.000 C 
ATOM     26  C   UNL     1      46.859   4.071   7.603  0.00  0.00    +0.000 C 
ATOM     27  C   UNL     1      45.677   3.617   8.498  0.00  0.00    +0.000 C 
ATOM     28  C   UNL     1      45.245   2.676   7.353  0.00  0.00    +0.000 C 
ENDBRANCH  22  27
ENDBRANCH   1  22
TORSDOF 6
ENDMDL
MODEL 4
REMARK VINA RESULT:    -6.395      4.180      7.940
REMARK INTER + INTRA:          -9.673
REMARK INTER:                  -8.801
REMARK INTRA:                  -0.872
REMARK UNBOUND:                -1.035
REMARK  Name = 
REMARK  10 active torsions:
REMARK  status: ('A' for Active; 'I' for Inactive)
REMARK    1  A    between atoms: C_1  and  C_2
REMARK    2  A    between atoms: C_2  and  C_3
REMARK    3  A    between atoms: C_5  and  O_6
REMARK    4  A    between atoms: O_6  and  C_7
REMARK    5  A    between atoms: C_12  and  C_13
REMARK    6  A    between atoms: C_13  and  C_14
REMARK    7  A    between atoms: C_13  and  C_15
REMARK    8  A    between atoms: C_13  and  C_16
REMARK    9  A    between atoms: C_16  and  N_17
REMARK   10  A    between atoms: C_21  and  C_22
REMARK                            x       y       z     vdW  Elec       q    Type
REMARK                         _______ _______ _______ _____ _____    ______ ____
ROOT
ATOM      1  C   UNL     1      44.685   4.712  10.228  0.00  0.00    +0.000 A 
ATOM      2  C   UNL     1      43.744   4.203  11.110  0.00  0.00    +0.000 A 
ATOM      3  C   UNL     1      43.808   4.563  12.442  0.00  0.00    +0.000 A 
ATOM      4  F   UNL     1      42.926   4.055  13.307  0.00  0.00    +0.000 F 
ATOM      5  C   UNL     1      44.784   5.447  12.902  0.00  0.00    +0.000 A 
ATOM      6  C   UNL     1      45.732   5.996  12.024  0.00  0.00    +0.000 A 
ATOM      7  C   UNL     1      45.665   5.600  10.676  0.00  0.00    +0.000 A 
ENDROOT
BRANCH   6   8
ATOM      8  C   UNL     1      46.791   6.982  12.553  0.00  0.00    +0.000 C 
ATOM      9  C   UNL     1      46.096   8.265  13.069  0.00  0.00    +0.000 C 
ATOM     10  C   UNL     1      47.533   6.315  13.739  0.00  0.00    +0.000 C 
BRANCH   8  11
ATOM     11  C   UNL     1      47.879   7.392  11.511  0.00  0.00    +0.000 C 
BRANCH  11  12
ATOM     12  N   UNL     1      48.575   8.638  11.874  0.00  0.00    +0.000 N 
ATOM     13  C   UNL     1      49.940   8.639  11.565  0.00  0.00    +0.000 A 
ATOM     14  C   UNL     1      50.687   9.786  11.820  0.00  0.00    +0.000 A 
ATOM     15  C   UNL     1      52.053   9.791  11.528  0.00  0.00    +0.000 A 
ATOM     16  C   UNL     1      52.632   8.650  10.984  0.00  0.00    +0.000 A 
ATOM     17  C   UNL     1      51.815   7.560  10.743  0.00  0.00    +0.000 A 
ATOM     18  N   UNL     1      50.493   7.540  11.015  0.00  0.00    +0.000 NA
ATOM     19  H   UNL     1      48.453   8.902  12.845  0.00  0.00    +0.000 HD
BRANCH  16  20
ATOM     20  C   UNL     1      54.022   8.579  10.684  0.00  0.00    +0.000 C 
ATOM     21  N   UNL     1      55.159   8.517  10.452  0.00  0.00    +0.000 NA
ENDBRANCH  16  20
ENDBRANCH  11  12
ENDBRANCH   8  11
ENDBRANCH   6   8
BRANCH   1  22
ATOM     22  O   UNL     1      44.729   4.389   8.894  0.00  0.00    +0.000 OA
BRANCH  22  27
ATOM     23  C   UNL     1      47.800   1.668   7.076  0.00  0.00    +0.000 C 
ATOM     24  C   UNL     1      46.742   2.707   6.709  0.00  0.00    +0.000 C 
ATOM     25  C   UNL     1      46.666   2.939   5.204  0.00  0.00    +0.000 C 
ATOM     26  C   UNL     1      46.849   4.015   7.529  0.00  0.00    +0.000 C 
ATOM     27  C   UNL     1      45.763   3.465   8.490  0.00  0.00    +0.000 C 
ATOM     28  C   UNL     1      45.359   2.475   7.377  0.00  0.00    +0.000 C 
ENDBRANCH  22  27
ENDBRANCH   1  22
TORSDOF 6
ENDMDL
MODEL 5
REMARK VINA RESULT:    -6.031      3.711      8.533
REMARK INTER + INTRA:          -9.181
REMARK INTER:                  -8.395
REMARK INTRA:                  -0.786
REMARK UNBOUND:                -1.035
REMARK  Name = 
REMARK  10 active torsions:
REMARK  status: ('A' for Active; 'I' for Inactive)
REMARK    1  A    between atoms: C_1  and  C_2
REMARK    2  A    between atoms: C_2  and  C_3
REMARK    3  A    between atoms: C_5  and  O_6
REMARK    4  A    between atoms: O_6  and  C_7
REMARK    5  A    between atoms: C_12  and  C_13
REMARK    6  A    between atoms: C_13  and  C_14
REMARK    7  A    between atoms: C_13  and  C_15
REMARK    8  A    between atoms: C_13  and  C_16
REMARK    9  A    between atoms: C_16  and  N_17
REMARK   10  A    between atoms: C_21  and  C_22
REMARK                            x       y       z     vdW  Elec       q    Type
REMARK                         _______ _______ _______ _____ _____    ______ ____
ROOT
ATOM      1  C   UNL     1      44.385   4.819  10.112  0.00  0.00    +0.000 A 
ATOM      2  C   UNL     1      43.160   5.148  10.669  0.00  0.00    +0.000 A 
ATOM      3  C   UNL     1      43.078   5.368  12.031  0.00  0.00    +0.000 A 
ATOM      4  F   UNL     1      41.897   5.655  12.584  0.00  0.00    +0.000 F 
ATOM      5  C   UNL     1      44.210   5.289  12.841  0.00  0.00    +0.000 A 
ATOM      6  C   UNL     1      45.468   4.982  12.297  0.00  0.00    +0.000 A 
ATOM      7  C   UNL     1      45.527   4.740  10.912  0.00  0.00    +0.000 A 
ENDROOT
BRANCH   6   8
ATOM      8  C   UNL     1      46.707   4.915  13.210  0.00  0.00    +0.000 C 
ATOM      9  C   UNL     1      47.428   3.561  13.009  0.00  0.00    +0.000 C 
ATOM     10  C   UNL     1      47.678   6.053  12.803  0.00  0.00    +0.000 C 
BRANCH   8  11
ATOM     11  C   UNL     1      46.407   5.098  14.731  0.00  0.00    +0.000 C 
BRANCH  11  12
ATOM     12  N   UNL     1      46.689   3.885  15.517  0.00  0.00    +0.000 N 
ATOM     13  C   UNL     1      47.816   3.988  16.340  0.00  0.00    +0.000 A 
ATOM     14  C   UNL     1      48.149   2.917  17.165  0.00  0.00    +0.000 A 
ATOM     15  C   UNL     1      49.280   3.006  17.979  0.00  0.00    +0.000 A 
ATOM     16  C   UNL     1      50.045   4.167  17.949  0.00  0.00    +0.000 A 
ATOM     17  C   UNL     1      49.635   5.192  17.116  0.00  0.00    +0.000 A 
ATOM     18  N   UNL     1      48.542   5.124  16.327  0.00  0.00    +0.000 NA
ATOM     19  H   UNL     1      46.764   3.045  14.954  0.00  0.00    +0.000 HD
BRANCH  16  20
ATOM     20  C   UNL     1      51.222   4.315  18.735  0.00  0.00    +0.000 C 
ATOM     21  N   UNL     1      52.181   4.450  19.378  0.00  0.00    +0.000 NA
ENDBRANCH  16  20
ENDBRANCH  11  12
ENDBRANCH   8  11
ENDBRANCH   6   8
BRANCH   1  22
ATOM     22  O   UNL     1      44.566   4.548   8.778  0.00  0.00    +0.000 OA
BRANCH  22  27
ATOM     23  C   UNL     1      47.641   1.691   7.191  0.00  0.00    +0.000 C 
ATOM     24  C   UNL     1      46.669   2.783   6.749  0.00  0.00    +0.000 C 
ATOM     25  C   UNL     1      46.729   3.028   5.245  0.00  0.00    +0.000 C 
ATOM     26  C   UNL     1      46.771   4.079   7.588  0.00  0.00    +0.000 C 
ATOM     27  C   UNL     1      45.583   3.577   8.451  0.00  0.00    +0.000 C 
ATOM     28  C   UNL     1      45.226   2.616   7.297  0.00  0.00    +0.000 C 
ENDBRANCH  22  27
ENDBRANCH   1  22
TORSDOF 6
ENDMDL
MODEL 6
REMARK VINA RESULT:    -6.010      2.880      4.709
REMARK INTER + INTRA:          -9.152
REMARK INTER:                  -8.171
REMARK INTRA:                  -0.981
REMARK UNBOUND:                -1.035
REMARK  Name = 
REMARK  10 active torsions:
REMARK  status: ('A' for Active; 'I' for Inactive)
REMARK    1  A    between atoms: C_1  and  C_2
REMARK    2  A    between atoms: C_2  and  C_3
REMARK    3  A    between atoms: C_5  and  O_6
REMARK    4  A    between atoms: O_6  and  C_7
REMARK    5  A    between atoms: C_12  and  C_13
REMARK    6  A    between atoms: C_13  and  C_14
REMARK    7  A    between atoms: C_13  and  C_15
REMARK    8  A    between atoms: C_13  and  C_16
REMARK    9  A    between atoms: C_16  and  N_17
REMARK   10  A    between atoms: C_21  and  C_22
REMARK                            x       y       z     vdW  Elec       q    Type
REMARK                         _______ _______ _______ _____ _____    ______ ____
ROOT
ATOM      1  C   UNL     1      49.984   7.570  15.589  0.00  0.00    +0.000 A 
ATOM      2  C   UNL     1      49.952   8.693  16.400  0.00  0.00    +0.000 A 
ATOM      3  C   UNL     1      49.364   9.850  15.923  0.00  0.00    +0.000 A 
ATOM      4  F   UNL     1      49.354  10.948  16.682  0.00  0.00    +0.000 F 
ATOM      5  C   UNL     1      48.784   9.891  14.655  0.00  0.00    +0.000 A 
ATOM      6  C   UNL     1      48.781   8.759  13.825  0.00  0.00    +0.000 A 
ATOM      7  C   UNL     1      49.404   7.598  14.319  0.00  0.00    +0.000 A 
ENDROOT
BRANCH   6   8
ATOM      8  C   UNL     1      48.120   8.824  12.434  0.00  0.00    +0.000 C 
ATOM      9  C   UNL     1      48.310  10.238  11.835  0.00  0.00    +0.000 C 
ATOM     10  C   UNL     1      48.825   7.800  11.508  0.00  0.00    +0.000 C 
BRANCH   8  11
ATOM     11  C   UNL     1      46.599   8.478  12.418  0.00  0.00    +0.000 C 
BRANCH  11  12
ATOM     12  N   UNL     1      46.277   7.284  13.218  0.00  0.00    +0.000 N 
ATOM     13  C   UNL     1      45.846   6.190  12.460  0.00  0.00    +0.000 A 
ATOM     14  C   UNL     1      45.562   4.991  13.109  0.00  0.00    +0.000 A 
ATOM     15  C   UNL     1      45.117   3.898  12.362  0.00  0.00    +0.000 A 
ATOM     16  C   UNL     1      44.975   4.033  10.985  0.00  0.00    +0.000 A 
ATOM     17  C   UNL     1      45.297   5.251  10.416  0.00  0.00    +0.000 A 
ATOM     18  N   UNL     1      45.733   6.316  11.123  0.00  0.00    +0.000 NA
ATOM     19  H   UNL     1      45.608   7.461  13.958  0.00  0.00    +0.000 HD
BRANCH  16  20
ATOM     20  C   UNL     1      44.505   2.966  10.167  0.00  0.00    +0.000 C 
ATOM     21  N   UNL     1      44.123   2.104   9.489  0.00  0.00    +0.000 NA
ENDBRANCH  16  20
ENDBRANCH  11  12
ENDBRANCH   8  11
ENDBRANCH   6   8
BRANCH   1  22
ATOM     22  O   UNL     1      50.574   6.385  15.955  0.00  0.00    +0.000 OA
BRANCH  22  27
ATOM     23  C   UNL     1      48.633   3.795  19.064  0.00  0.00    +0.000 C 
ATOM     24  C   UNL     1      49.047   3.809  17.593  0.00  0.00    +0.000 C 
ATOM     25  C   UNL     1      48.702   2.500  16.891  0.00  0.00    +0.000 C 
ATOM     26  C   UNL     1      50.508   4.263  17.366  0.00  0.00    +0.000 C 
ATOM     27  C   UNL     1      49.986   5.695  17.079  0.00  0.00    +0.000 C 
ATOM     28  C   UNL     1      48.598   5.075  16.814  0.00  0.00    +0.000 C 
ENDBRANCH  22  27
ENDBRANCH   1  22
TORSDOF 6
ENDMDL
