MODEL 1
REMARK VINA RESULT:    -9.049      0.000      0.000
REMARK INTER + INTRA:         -12.904
REMARK INTER:                 -11.694
REMARK INTRA:                  -1.210
REMARK UNBOUND:                -1.210
REMARK  Name = 
REMARK  7 active torsions:
REMARK  status: ('A' for Active; 'I' for Inactive)
REMARK    1  A    between atoms: C_1  and  C_2
REMARK    2  A    between atoms: C_2  and  C_3
REMARK    3  A    between atoms: C_2  and  C_4
REMARK    4  A    between atoms: C_2  and  C_19
REMARK    5  A    between atoms: C_5  and  C_6
REMARK    6  A    between atoms: C_10  and  C_11
REMARK    7  A    between atoms: C_22  and  C_23
REMARK                            x       y       z     vdW  Elec       q    Type
REMARK                         _______ _______ _______ _____ _____    ______ ____
ROOT
ATOM      1  C   UNL     1      45.342   4.804  11.994  0.00  0.00    +0.000 C 
ATOM      2  C   UNL     1      45.916   6.016  11.895  0.00  0.00    +0.000 C 
ENDROOT
BRANCH   2   3
ATOM      3  C   UNL     1      46.899   6.426  12.896  0.00  0.00    +0.000 A 
ATOM      4  C   UNL     1      47.525   7.668  12.817  0.00  0.00    +0.000 A 
ATOM      5  C   UNL     1      48.400   8.064  13.826  0.00  0.00    +0.000 A 
ATOM      6  C   UNL     1      48.640   7.223  14.919  0.00  0.00    +0.000 A 
ATOM      7  C   UNL     1      48.008   5.972  15.038  0.00  0.00    +0.000 A 
ATOM      8  C   UNL     1      47.146   5.590  13.996  0.00  0.00    +0.000 A 
BRANCH   7   9
ATOM      9  C   UNL     1      48.199   5.111  16.230  0.00  0.00    +0.000 A 
ATOM     10  C   UNL     1      49.280   5.298  17.114  0.00  0.00    +0.000 A 
ATOM     11  C   UNL     1      49.484   4.456  18.215  0.00  0.00    +0.000 A 
ATOM     12  C   UNL     1      48.599   3.412  18.463  0.00  0.00    +0.000 A 
ATOM     13  C   UNL     1      47.525   3.219  17.606  0.00  0.00    +0.000 A 
ATOM     14  F   UNL     1      46.671   2.213  17.837  0.00  0.00    +0.000 F 
ATOM     15  C   UNL     1      47.323   4.047  16.504  0.00  0.00    +0.000 A 
ENDBRANCH   7   9
ENDBRANCH   2   3
BRANCH   1  17
ATOM     16  C   UNL     1      43.707   2.997  11.763  0.00  0.00    +0.000 C 
ATOM     17  C   UNL     1      44.414   4.133  10.986  0.00  0.00    +0.000 C 
ATOM     18  C   UNL     1      43.315   5.146  10.578  0.00  0.00    +0.000 C 
BRANCH  17  19
ATOM     19  C   UNL     1      45.131   3.658   9.707  0.00  0.00    +0.000 A 
ATOM     20  C   UNL     1      45.689   4.553   8.777  0.00  0.00    +0.000 A 
ATOM     21  C   UNL     1      46.379   4.091   7.650  0.00  0.00    +0.000 A 
ATOM     22  C   UNL     1      46.532   2.722   7.427  0.00  0.00    +0.000 A 
ATOM     23  C   UNL     1      45.957   1.813   8.316  0.00  0.00    +0.000 A 
ATOM     24  C   UNL     1      45.264   2.280   9.441  0.00  0.00    +0.000 A 
BRANCH  22  25
ATOM     25  C   UNL     1      47.299   2.287   6.227  0.00  0.00    +0.000 C 
ATOM     26  N   UNL     1      47.104   2.990   5.070  0.00  0.00    +0.000 N 
ATOM     27  O   UNL     1      48.036   1.313   6.254  0.00  0.00    +0.000 OA
ATOM     28  H   UNL     1      46.333   3.627   4.944  0.00  0.00    +0.000 HD
ATOM     29  H   UNL     1      47.537   2.602   4.240  0.00  0.00    +0.000 HD
ENDBRANCH  22  25
ENDBRANCH  17  19
ENDBRANCH   1  17
TORSDOF 5
ENDMDL
MODEL 2
REMARK VINA RESULT:    -8.059      4.596      8.079
REMARK INTER + INTRA:         -11.624
REMARK INTER:                 -10.464
REMARK INTRA:                  -1.160
REMARK UNBOUND:                -1.210
REMARK  Name = 
REMARK  7 active torsions:
REMARK  status: ('A' for Active; 'I' for Inactive)
REMARK    1  A    between atoms: C_1  and  C_2
REMARK    2  A    between atoms: C_2  and  C_3
REMARK    3  A    between atoms: C_2  and  C_4
REMARK    4  A    between atoms: C_2  and  C_19
REMARK    5  A    between atoms: C_5  and  C_6
REMARK    6  A    between atoms: C_10  and  C_11
REMARK    7  A    between atoms: C_22  and  C_23
REMARK                            x       y       z     vdW  Elec       q    Type
REMARK                         _______ _______ _______ _____ _____    ______ ____
ROOT
ATOM      1  C   UNL     1      46.528   7.402  11.822  0.00  0.00    +0.000 C 
ATOM      2  C   UNL     1      45.232   7.219  11.517  0.00  0.00    +0.000 C 
ENDROOT
BRANCH   2   3
ATOM      3  C   UNL     1      44.764   5.883  11.151  0.00  0.00    +0.000 A 
ATOM      4  C   UNL     1      43.593   5.361  11.693  0.00  0.00    +0.000 A 
ATOM      5  C   UNL     1      43.131   4.117  11.269  0.00  0.00    +0.000 A 
ATOM      6  C   UNL     1      43.834   3.401  10.293  0.00  0.00    +0.000 A 
ATOM      7  C   UNL     1      45.010   3.910   9.712  0.00  0.00    +0.000 A 
ATOM      8  C   UNL     1      45.463   5.157  10.174  0.00  0.00    +0.000 A 
BRANCH   7   9
ATOM      9  C   UNL     1      45.717   3.192   8.624  0.00  0.00    +0.000 A 
ATOM     10  C   UNL     1      46.213   3.867   7.491  0.00  0.00    +0.000 A 
ATOM     11  C   UNL     1      46.842   3.181   6.443  0.00  0.00    +0.000 A 
ATOM     12  C   UNL     1      46.999   1.801   6.513  0.00  0.00    +0.000 A 
ATOM     13  C   UNL     1      46.523   1.123   7.626  0.00  0.00    +0.000 A 
ATOM     14  F   UNL     1      46.667  -0.207   7.699  0.00  0.00    +0.000 F 
ATOM     15  C   UNL     1      45.888   1.798   8.666  0.00  0.00    +0.000 A 
ENDBRANCH   7   9
ENDBRANCH   2   3
BRANCH   1  17
ATOM     16  C   UNL     1      46.189   9.814  12.058  0.00  0.00    +0.000 C 
ATOM     17  C   UNL     1      47.182   8.669  12.365  0.00  0.00    +0.000 C 
ATOM     18  C   UNL     1      47.270   8.556  13.907  0.00  0.00    +0.000 C 
BRANCH  17  19
ATOM     19  C   UNL     1      48.602   8.915  11.818  0.00  0.00    +0.000 A 
ATOM     20  C   UNL     1      49.065  10.194  11.466  0.00  0.00    +0.000 A 
ATOM     21  C   UNL     1      50.376  10.394  11.019  0.00  0.00    +0.000 A 
ATOM     22  C   UNL     1      51.259   9.319  10.915  0.00  0.00    +0.000 A 
ATOM     23  C   UNL     1      50.813   8.033  11.225  0.00  0.00    +0.000 A 
ATOM     24  C   UNL     1      49.499   7.837  11.668  0.00  0.00    +0.000 A 
BRANCH  22  25
ATOM     25  C   UNL     1      52.650   9.592  10.461  0.00  0.00    +0.000 C 
ATOM     26  N   UNL     1      52.820   9.974   9.159  0.00  0.00    +0.000 N 
ATOM     27  O   UNL     1      53.610   9.436  11.200  0.00  0.00    +0.000 OA
ATOM     28  H   UNL     1      52.097   9.872   8.463  0.00  0.00    +0.000 HD
ATOM     29  H   UNL     1      53.779  10.033   8.837  0.00  0.00    +0.000 HD
ENDBRANCH  22  25
ENDBRANCH  17  19
ENDBRANCH   1  17
TORSDOF 5
ENDMDL
MODEL 3
REMARK VINA RESULT:    -7.991      2.346      3.826
REMARK INTER + INTRA:         -11.536
REMARK INTER:                 -10.293
REMARK INTRA:                  -1.243
REMARK UNBOUND:                -1.210
REMARK  Name = 
REMARK  7 active torsions:
REMARK  status: ('A' for Active; 'I' for Inactive)
REMARK    1  A    between atoms: C_1  and  C_2
REMARK    2  A    between atoms: C_2  and  C_3
REMARK    3  A    between atoms: C_2  and  C_4
REMARK    4  A    between atoms: C_2  and  C_19
REMARK    5  A    between atoms: C_5  and  C_6
REMARK    6  A    between atoms: C_10  and  C_11
REMARK    7  A    between atoms: C_22  and  C_23
REMARK                            x       y       z     vdW  Elec       q    Type
REMARK                         _______ _______ _______ _____ _____    ______ ____
ROOT
ATOM      1  C   UNL     1      45.223   4.654  12.353  0.00  0.00    +0.000 C 
ATOM      2  C   UNL     1      46.211   4.003  12.991  0.00  0.00    +0.000 C 
ENDROOT
BRANCH   2   3
ATOM      3  C   UNL     1      46.922   4.670  14.080  0.00  0.00    +0.000 A 
ATOM      4  C   UNL     1      47.071   4.055  15.320  0.00  0.00    +0.000 A 
ATOM      5  C   UNL     1      47.819   4.682  16.315  0.00  0.00    +0.000 A 
ATOM      6  C   UNL     1      48.427   5.918  16.065  0.00  0.00    +0.000 A 
ATOM      7  C   UNL     1      48.312   6.555  14.816  0.00  0.00    +0.000 A 
ATOM      8  C   UNL     1      47.535   5.909  13.839  0.00  0.00    +0.000 A 
BRANCH   7   9
ATOM      9  C   UNL     1      49.016   7.826  14.520  0.00  0.00    +0.000 A 
ATOM     10  C   UNL     1      50.392   7.988  14.777  0.00  0.00    +0.000 A 
ATOM     11  C   UNL     1      51.046   9.203  14.538  0.00  0.00    +0.000 A 
ATOM     12  C   UNL     1      50.338  10.283  14.023  0.00  0.00    +0.000 A 
ATOM     13  C   UNL     1      48.984  10.138  13.758  0.00  0.00    +0.000 A 
ATOM     14  F   UNL     1      48.294  11.175  13.265  0.00  0.00    +0.000 F 
ATOM     15  C   UNL     1      48.325   8.934  14.003  0.00  0.00    +0.000 A 
ENDBRANCH   7   9
ENDBRANCH   2   3
BRANCH   1  17
ATOM     16  C   UNL     1      43.539   2.916  11.991  0.00  0.00    +0.000 C 
ATOM     17  C   UNL     1      44.271   4.092  11.302  0.00  0.00    +0.000 C 
ATOM     18  C   UNL     1      43.197   5.163  10.987  0.00  0.00    +0.000 C 
BRANCH  17  19
ATOM     19  C   UNL     1      44.966   3.703   9.983  0.00  0.00    +0.000 A 
ATOM     20  C   UNL     1      45.521   4.657   9.111  0.00  0.00    +0.000 A 
ATOM     21  C   UNL     1      46.191   4.270   7.945  0.00  0.00    +0.000 A 
ATOM     22  C   UNL     1      46.328   2.920   7.622  0.00  0.00    +0.000 A 
ATOM     23  C   UNL     1      45.755   1.955   8.453  0.00  0.00    +0.000 A 
ATOM     24  C   UNL     1      45.082   2.346   9.617  0.00  0.00    +0.000 A 
BRANCH  22  25
ATOM     25  C   UNL     1      47.074   2.565   6.385  0.00  0.00    +0.000 C 
ATOM     26  N   UNL     1      48.356   2.113   6.534  0.00  0.00    +0.000 N 
ATOM     27  O   UNL     1      46.586   2.715   5.274  0.00  0.00    +0.000 OA
ATOM     28  H   UNL     1      48.871   2.212   7.395  0.00  0.00    +0.000 HD
ATOM     29  H   UNL     1      48.886   1.997   5.678  0.00  0.00    +0.000 HD
ENDBRANCH  22  25
ENDBRANCH  17  19
ENDBRANCH   1  17
TORSDOF 5
ENDMDL
MODEL 4
REMARK VINA RESULT:    -7.983      4.673      8.866
REMARK INTER + INTRA:         -11.526
REMARK INTER:                 -10.265
REMARK INTRA:                  -1.261
REMARK UNBOUND:                -1.210
REMARK  Name = 
REMARK  7 active torsions:
REMARK  status: ('A' for Active; 'I' for Inactive)
REMARK    1  A    between atoms: C_1  and  C_2
REMARK    2  A    between atoms: C_2  and  C_3
REMARK    3  A    between atoms: C_2  and  C_4
REMARK    4  A    between atoms: C_2  and  C_19
REMARK    5  A    between atoms: C_5  and  C_6
REMARK    6  A    between atoms: C_10  and  C_11
REMARK    7  A    between atoms: C_22  and  C_23
REMARK                            x       y       z     vdW  Elec       q    Type
REMARK                         _______ _______ _______ _____ _____    ______ ____
ROOT
ATOM      1  C   UNL     1      47.420   7.191  11.707  0.00  0.00    +0.000 C 
ATOM      2  C   UNL     1      46.078   7.270  11.740  0.00  0.00    +0.000 C 
ENDROOT
BRANCH   2   3
ATOM      3  C   UNL     1      45.282   6.182  11.175  0.00  0.00    +0.000 A 
ATOM      4  C   UNL     1      43.931   6.049  11.485  0.00  0.00    +0.000 A 
ATOM      5  C   UNL     1      43.179   5.048  10.873  0.00  0.00    +0.000 A 
ATOM      6  C   UNL     1      43.775   4.188   9.944  0.00  0.00    +0.000 A 
ATOM      7  C   UNL     1      45.133   4.310   9.595  0.00  0.00    +0.000 A 
ATOM      8  C   UNL     1      45.872   5.315  10.242  0.00  0.00    +0.000 A 
BRANCH   7   9
ATOM      9  C   UNL     1      45.752   3.453   8.555  0.00  0.00    +0.000 A 
ATOM     10  C   UNL     1      46.242   3.990   7.348  0.00  0.00    +0.000 A 
ATOM     11  C   UNL     1      46.786   3.173   6.348  0.00  0.00    +0.000 A 
ATOM     12  C   UNL     1      46.864   1.798   6.540  0.00  0.00    +0.000 A 
ATOM     13  C   UNL     1      46.392   1.255   7.727  0.00  0.00    +0.000 A 
ATOM     14  F   UNL     1      46.460  -0.069   7.918  0.00  0.00    +0.000 F 
ATOM     15  C   UNL     1      45.841   2.061   8.721  0.00  0.00    +0.000 A 
ENDBRANCH   7   9
ENDBRANCH   2   3
BRANCH   1  17
ATOM     16  C   UNL     1      49.762   7.896  11.631  0.00  0.00    +0.000 C 
ATOM     17  C   UNL     1      48.421   8.137  12.364  0.00  0.00    +0.000 C 
ATOM     18  C   UNL     1      47.998   9.594  12.054  0.00  0.00    +0.000 C 
BRANCH  17  19
ATOM     19  C   UNL     1      48.511   7.975  13.894  0.00  0.00    +0.000 A 
ATOM     20  C   UNL     1      48.364   9.057  14.778  0.00  0.00    +0.000 A 
ATOM     21  C   UNL     1      48.400   8.871  16.164  0.00  0.00    +0.000 A 
ATOM     22  C   UNL     1      48.581   7.597  16.703  0.00  0.00    +0.000 A 
ATOM     23  C   UNL     1      48.765   6.510  15.846  0.00  0.00    +0.000 A 
ATOM     24  C   UNL     1      48.732   6.702  14.459  0.00  0.00    +0.000 A 
BRANCH  22  25
ATOM     25  C   UNL     1      48.584   7.453  18.184  0.00  0.00    +0.000 C 
ATOM     26  N   UNL     1      47.411   7.705  18.841  0.00  0.00    +0.000 N 
ATOM     27  O   UNL     1      49.600   7.169  18.801  0.00  0.00    +0.000 OA
ATOM     28  H   UNL     1      46.634   8.177  18.404  0.00  0.00    +0.000 HD
ATOM     29  H   UNL     1      47.467   7.725  19.853  0.00  0.00    +0.000 HD
ENDBRANCH  22  25
ENDBRANCH  17  19
ENDBRANCH   1  17
TORSDOF 5
ENDMDL
MODEL 5
REMARK VINA RESULT:    -7.475      4.540      8.479
REMARK INTER + INTRA:         -10.870
REMARK INTER:                  -9.597
REMARK INTRA:                  -1.273
REMARK UNBOUND:                -1.210
REMARK  Name = 
REMARK  7 active torsions:
REMARK  status: ('A' for Active; 'I' for Inactive)
REMARK    1  A    between atoms: C_1  and  C_2
REMARK    2  A    between atoms: C_2  and  C_3
REMARK    3  A    between atoms: C_2  and  C_4
REMARK    4  A    between atoms: C_2  and  C_19
REMARK    5  A    between atoms: C_5  and  C_6
REMARK    6  A    between atoms: C_10  and  C_11
REMARK    7  A    between atoms: C_22  and  C_23
REMARK                            x       y       z     vdW  Elec       q    Type
REMARK                         _______ _______ _______ _____ _____    ______ ____
ROOT
ATOM      1  C   UNL     1      48.311   5.493  16.086  0.00  0.00    +0.000 C 
ATOM      2  C   UNL     1      48.803   6.491  15.331  0.00  0.00    +0.000 C 
ENDROOT
BRANCH   2   3
ATOM      3  C   UNL     1      48.196   6.771  14.031  0.00  0.00    +0.000 A 
ATOM      4  C   UNL     1      48.670   7.805  13.228  0.00  0.00    +0.000 A 
ATOM      5  C   UNL     1      48.123   8.002  11.962  0.00  0.00    +0.000 A 
ATOM      6  C   UNL     1      47.109   7.157  11.495  0.00  0.00    +0.000 A 
ATOM      7  C   UNL     1      46.622   6.091  12.274  0.00  0.00    +0.000 A 
ATOM      8  C   UNL     1      47.179   5.930  13.554  0.00  0.00    +0.000 A 
BRANCH   7   9
ATOM      9  C   UNL     1      45.603   5.147  11.756  0.00  0.00    +0.000 A 
ATOM     10  C   UNL     1      44.987   4.192  12.589  0.00  0.00    +0.000 A 
ATOM     11  C   UNL     1      44.057   3.271  12.089  0.00  0.00    +0.000 A 
ATOM     12  C   UNL     1      43.713   3.294  10.742  0.00  0.00    +0.000 A 
ATOM     13  C   UNL     1      44.306   4.233   9.910  0.00  0.00    +0.000 A 
ATOM     14  F   UNL     1      43.982   4.260   8.610  0.00  0.00    +0.000 F 
ATOM     15  C   UNL     1      45.239   5.145  10.400  0.00  0.00    +0.000 A 
ENDBRANCH   7   9
ENDBRANCH   2   3
BRANCH   1  17
ATOM     16  C   UNL     1      49.057   6.479  18.198  0.00  0.00    +0.000 C 
ATOM     17  C   UNL     1      48.701   5.136  17.517  0.00  0.00    +0.000 C 
ATOM     18  C   UNL     1      47.450   4.585  18.245  0.00  0.00    +0.000 C 
BRANCH  17  19
ATOM     19  C   UNL     1      49.818   4.078  17.608  0.00  0.00    +0.000 A 
ATOM     20  C   UNL     1      49.592   2.716  17.343  0.00  0.00    +0.000 A 
ATOM     21  C   UNL     1      50.637   1.787  17.385  0.00  0.00    +0.000 A 
ATOM     22  C   UNL     1      51.936   2.196  17.687  0.00  0.00    +0.000 A 
ATOM     23  C   UNL     1      52.180   3.537  17.988  0.00  0.00    +0.000 A 
ATOM     24  C   UNL     1      51.131   4.463  17.949  0.00  0.00    +0.000 A 
BRANCH  22  25
ATOM     25  C   UNL     1      53.014   1.169  17.689  0.00  0.00    +0.000 C 
ATOM     26  N   UNL     1      52.690  -0.078  18.147  0.00  0.00    +0.000 N 
ATOM     27  O   UNL     1      54.156   1.435  17.344  0.00  0.00    +0.000 OA
ATOM     28  H   UNL     1      51.846  -0.265  18.666  0.00  0.00    +0.000 HD
ATOM     29  H   UNL     1      53.465  -0.723  18.258  0.00  0.00    +0.000 HD
ENDBRANCH  22  25
ENDBRANCH  17  19
ENDBRANCH   1  17
TORSDOF 5
ENDMDL
MODEL 6
REMARK VINA RESULT:    -7.079      3.150      4.949
REMARK INTER + INTRA:         -10.358
REMARK INTER:                  -9.148
REMARK INTRA:                  -1.209
REMARK UNBOUND:                -1.210
REMARK  Name = 
REMARK  7 active torsions:
REMARK  status: ('A' for Active; 'I' for Inactive)
REMARK    1  A    between atoms: C_1  and  C_2
REMARK    2  A    between atoms: C_2  and  C_3
REMARK    3  A    between atoms: C_2  and  C_4
REMARK    4  A    between atoms: C_2  and  C_19
REMARK    5  A    between atoms: C_5  and  C_6
REMARK    6  A    between atoms: C_10  and  C_11
REMARK    7  A    between atoms: C_22  and  C_23
REMARK                            x       y       z     vdW  Elec       q    Type
REMARK                         _______ _______ _______ _____ _____    ______ ____
ROOT
ATOM      1  C   UNL     1      48.143   6.746  14.529  0.00  0.00    +0.000 C 
ATOM      2  C   UNL     1      48.666   7.590  15.435  0.00  0.00    +0.000 C 
ENDROOT
BRANCH   2   3
ATOM      3  C   UNL     1      49.258   7.052  16.658  0.00  0.00    +0.000 A 
ATOM      4  C   UNL     1      49.077   7.691  17.882  0.00  0.00    +0.000 A 
ATOM      5  C   UNL     1      49.588   7.115  19.043  0.00  0.00    +0.000 A 
ATOM      6  C   UNL     1      50.270   5.895  18.981  0.00  0.00    +0.000 A 
ATOM      7  C   UNL     1      50.452   5.214  17.763  0.00  0.00    +0.000 A 
ATOM      8  C   UNL     1      49.943   5.828  16.606  0.00  0.00    +0.000 A 
BRANCH   7   9
ATOM      9  C   UNL     1      51.106   3.885  17.701  0.00  0.00    +0.000 A 
ATOM     10  C   UNL     1      50.396   2.727  17.326  0.00  0.00    +0.000 A 
ATOM     11  C   UNL     1      51.004   1.465  17.310  0.00  0.00    +0.000 A 
ATOM     12  C   UNL     1      52.344   1.335  17.660  0.00  0.00    +0.000 A 
ATOM     13  C   UNL     1      53.058   2.467  18.025  0.00  0.00    +0.000 A 
ATOM     14  F   UNL     1      54.348   2.350  18.367  0.00  0.00    +0.000 F 
ATOM     15  C   UNL     1      52.456   3.723  18.052  0.00  0.00    +0.000 A 
ENDBRANCH   7   9
ENDBRANCH   2   3
BRANCH   1  17
ATOM     16  C   UNL     1      46.978   8.492  13.270  0.00  0.00    +0.000 C 
ATOM     17  C   UNL     1      47.616   7.088  13.139  0.00  0.00    +0.000 C 
ATOM     18  C   UNL     1      48.822   7.233  12.177  0.00  0.00    +0.000 C 
BRANCH  17  19
ATOM     19  C   UNL     1      46.662   6.024  12.560  0.00  0.00    +0.000 A 
ATOM     20  C   UNL     1      46.098   6.133  11.278  0.00  0.00    +0.000 A 
ATOM     21  C   UNL     1      45.275   5.126  10.760  0.00  0.00    +0.000 A 
ATOM     22  C   UNL     1      44.999   3.983  11.510  0.00  0.00    +0.000 A 
ATOM     23  C   UNL     1      45.518   3.867  12.800  0.00  0.00    +0.000 A 
ATOM     24  C   UNL     1      46.338   4.879  13.316  0.00  0.00    +0.000 A 
BRANCH  22  25
ATOM     25  C   UNL     1      44.141   2.931  10.899  0.00  0.00    +0.000 C 
ATOM     26  N   UNL     1      44.615   2.308   9.778  0.00  0.00    +0.000 N 
ATOM     27  O   UNL     1      43.035   2.664  11.346  0.00  0.00    +0.000 OA
ATOM     28  H   UNL     1      45.391   2.667   9.243  0.00  0.00    +0.000 HD
ATOM     29  H   UNL     1      43.964   1.689   9.308  0.00  0.00    +0.000 HD
ENDBRANCH  22  25
ENDBRANCH  17  19
ENDBRANCH   1  17
TORSDOF 5
ENDMDL
MODEL 7
REMARK VINA RESULT:    -7.000      1.952      2.481
REMARK INTER + INTRA:         -10.256
REMARK INTER:                  -9.109
REMARK INTRA:                  -1.146
REMARK UNBOUND:                -1.210
REMARK  Name = 
REMARK  7 active torsions:
REMARK  status: ('A' for Active; 'I' for Inactive)
REMARK    1  A    between atoms: C_1  and  C_2
REMARK    2  A    between atoms: C_2  and  C_3
REMARK    3  A    between atoms: C_2  and  C_4
REMARK    4  A    between atoms: C_2  and  C_19
REMARK    5  A    between atoms: C_5  and  C_6
REMARK    6  A    between atoms: C_10  and  C_11
REMARK    7  A    between atoms: C_22  and  C_23
REMARK                            x       y       z     vdW  Elec       q    Type
REMARK                         _______ _______ _______ _____ _____    ______ ____
ROOT
ATOM      1  C   UNL     1      45.220   5.859  12.324  0.00  0.00    +0.000 C 
ATOM      2  C   UNL     1      46.504   5.593  12.620  0.00  0.00    +0.000 C 
ENDROOT
BRANCH   2   3
ATOM      3  C   UNL     1      47.245   6.513  13.481  0.00  0.00    +0.000 A 
ATOM      4  C   UNL     1      47.075   7.891  13.371  0.00  0.00    +0.000 A 
ATOM      5  C   UNL     1      47.737   8.740  14.256  0.00  0.00    +0.000 A 
ATOM      6  C   UNL     1      48.559   8.211  15.257  0.00  0.00    +0.000 A 
ATOM      7  C   UNL     1      48.736   6.823  15.406  0.00  0.00    +0.000 A 
ATOM      8  C   UNL     1      48.073   5.992  14.488  0.00  0.00    +0.000 A 
BRANCH   7   9
ATOM      9  C   UNL     1      49.544   6.253  16.511  0.00  0.00    +0.000 A 
ATOM     10  C   UNL     1      48.951   5.542  17.573  0.00  0.00    +0.000 A 
ATOM     11  C   UNL     1      49.711   5.043  18.639  0.00  0.00    +0.000 A 
ATOM     12  C   UNL     1      51.088   5.234  18.659  0.00  0.00    +0.000 A 
ATOM     13  C   UNL     1      51.689   5.926  17.617  0.00  0.00    +0.000 A 
ATOM     14  F   UNL     1      53.015   6.117  17.630  0.00  0.00    +0.000 F 
ATOM     15  C   UNL     1      50.937   6.433  16.559  0.00  0.00    +0.000 A 
ENDBRANCH   7   9
ENDBRANCH   2   3
BRANCH   1  17
ATOM     16  C   UNL     1      43.657   4.002  12.635  0.00  0.00    +0.000 C 
ATOM     17  C   UNL     1      44.239   4.964  11.572  0.00  0.00    +0.000 C 
ATOM     18  C   UNL     1      43.063   5.837  11.069  0.00  0.00    +0.000 C 
BRANCH  17  19
ATOM     19  C   UNL     1      44.861   4.247  10.359  0.00  0.00    +0.000 A 
ATOM     20  C   UNL     1      44.835   2.849  10.213  0.00  0.00    +0.000 A 
ATOM     21  C   UNL     1      45.365   2.229   9.075  0.00  0.00    +0.000 A 
ATOM     22  C   UNL     1      45.930   2.991   8.052  0.00  0.00    +0.000 A 
ATOM     23  C   UNL     1      45.999   4.378   8.189  0.00  0.00    +0.000 A 
ATOM     24  C   UNL     1      45.472   4.994   9.331  0.00  0.00    +0.000 A 
BRANCH  22  25
ATOM     25  C   UNL     1      46.452   2.281   6.853  0.00  0.00    +0.000 C 
ATOM     26  N   UNL     1      47.020   1.053   7.049  0.00  0.00    +0.000 N 
ATOM     27  O   UNL     1      46.423   2.789   5.742  0.00  0.00    +0.000 OA
ATOM     28  H   UNL     1      47.287   0.716   7.962  0.00  0.00    +0.000 HD
ATOM     29  H   UNL     1      47.480   0.645   6.244  0.00  0.00    +0.000 HD
ENDBRANCH  22  25
ENDBRANCH  17  19
ENDBRANCH   1  17
TORSDOF 5
ENDMDL
MODEL 8
REMARK VINA RESULT:    -6.961      4.746      8.426
REMARK INTER + INTRA:         -10.205
REMARK INTER:                  -8.904
REMARK INTRA:                  -1.301
REMARK UNBOUND:                -1.210
REMARK  Name = 
REMARK  7 active torsions:
REMARK  status: ('A' for Active; 'I' for Inactive)
REMARK    1  A    between atoms: C_1  and  C_2
REMARK    2  A    between atoms: C_2  and  C_3
REMARK    3  A    between atoms: C_2  and  C_4
REMARK    4  A    between atoms: C_2  and  C_19
REMARK    5  A    between atoms: C_5  and  C_6
REMARK    6  A    between atoms: C_10  and  C_11
REMARK    7  A    between atoms: C_22  and  C_23
REMARK                            x       y       z     vdW  Elec       q    Type
REMARK                         _______ _______ _______ _____ _____    ______ ____
ROOT
ATOM      1  C   UNL     1      48.450   5.571  16.172  0.00  0.00    +0.000 C 
ATOM      2  C   UNL     1      49.086   6.376  15.303  0.00  0.00    +0.000 C 
ENDROOT
BRANCH   2   3
ATOM      3  C   UNL     1      48.440   6.714  14.036  0.00  0.00    +0.000 A 
ATOM      4  C   UNL     1      49.072   7.538  13.108  0.00  0.00    +0.000 A 
ATOM      5  C   UNL     1      48.466   7.782  11.877  0.00  0.00    +0.000 A 
ATOM      6  C   UNL     1      47.233   7.194  11.571  0.00  0.00    +0.000 A 
ATOM      7  C   UNL     1      46.579   6.341  12.479  0.00  0.00    +0.000 A 
ATOM      8  C   UNL     1      47.204   6.129  13.720  0.00  0.00    +0.000 A 
BRANCH   7   9
ATOM      9  C   UNL     1      45.312   5.654  12.131  0.00  0.00    +0.000 A 
ATOM     10  C   UNL     1      44.272   6.318  11.451  0.00  0.00    +0.000 A 
ATOM     11  C   UNL     1      43.058   5.681  11.162  0.00  0.00    +0.000 A 
ATOM     12  C   UNL     1      42.863   4.357  11.538  0.00  0.00    +0.000 A 
ATOM     13  C   UNL     1      43.880   3.687  12.203  0.00  0.00    +0.000 A 
ATOM     14  F   UNL     1      43.697   2.412  12.573  0.00  0.00    +0.000 F 
ATOM     15  C   UNL     1      45.085   4.318  12.502  0.00  0.00    +0.000 A 
ENDBRANCH   7   9
ENDBRANCH   2   3
BRANCH   1  17
ATOM     16  C   UNL     1      49.217   6.566  18.272  0.00  0.00    +0.000 C 
ATOM     17  C   UNL     1      48.880   5.218  17.593  0.00  0.00    +0.000 C 
ATOM     18  C   UNL     1      47.660   4.632  18.345  0.00  0.00    +0.000 C 
BRANCH  17  19
ATOM     19  C   UNL     1      50.026   4.188  17.653  0.00  0.00    +0.000 A 
ATOM     20  C   UNL     1      51.305   4.509  18.140  0.00  0.00    +0.000 A 
ATOM     21  C   UNL     1      52.311   3.541  18.230  0.00  0.00    +0.000 A 
ATOM     22  C   UNL     1      52.062   2.224  17.840  0.00  0.00    +0.000 A 
ATOM     23  C   UNL     1      50.810   1.888  17.321  0.00  0.00    +0.000 A 
ATOM     24  C   UNL     1      49.808   2.862  17.228  0.00  0.00    +0.000 A 
BRANCH  22  25
ATOM     25  C   UNL     1      53.159   1.229  17.984  0.00  0.00    +0.000 C 
ATOM     26  N   UNL     1      53.948   1.322  19.097  0.00  0.00    +0.000 N 
ATOM     27  O   UNL     1      53.384   0.391  17.123  0.00  0.00    +0.000 OA
ATOM     28  H   UNL     1      53.956   2.136  19.692  0.00  0.00    +0.000 HD
ATOM     29  H   UNL     1      54.762   0.718  19.113  0.00  0.00    +0.000 HD
ENDBRANCH  22  25
ENDBRANCH  17  19
ENDBRANCH   1  17
TORSDOF 5
ENDMDL
MODEL 9
REMARK VINA RESULT:    -6.714      4.774      7.762
REMARK INTER + INTRA:          -9.886
REMARK INTER:                  -8.717
REMARK INTRA:                  -1.170
REMARK UNBOUND:                -1.210
REMARK  Name = 
REMARK  7 active torsions:
REMARK  status: ('A' for Active; 'I' for Inactive)
REMARK    1  A    between atoms: C_1  and  C_2
REMARK    2  A    between atoms: C_2  and  C_3
REMARK    3  A    between atoms: C_2  and  C_4
REMARK    4  A    between atoms: C_2  and  C_19
REMARK    5  A    between atoms: C_5  and  C_6
REMARK    6  A    between atoms: C_10  and  C_11
REMARK    7  A    between atoms: C_22  and  C_23
REMARK                            x       y       z     vdW  Elec       q    Type
REMARK                         _______ _______ _______ _____ _____    ______ ____
ROOT
ATOM      1  C   UNL     1      49.514   8.974  11.920  0.00  0.00    +0.000 C 
ATOM      2  C   UNL     1      48.916   7.863  12.382  0.00  0.00    +0.000 C 
ENDROOT
BRANCH   2   3
ATOM      3  C   UNL     1      47.485   7.671  12.154  0.00  0.00    +0.000 A 
ATOM      4  C   UNL     1      46.567   8.662  12.493  0.00  0.00    +0.000 A 
ATOM      5  C   UNL     1      45.218   8.483  12.194  0.00  0.00    +0.000 A 
ATOM      6  C   UNL     1      44.789   7.319  11.546  0.00  0.00    +0.000 A 
ATOM      7  C   UNL     1      45.695   6.308  11.173  0.00  0.00    +0.000 A 
ATOM      8  C   UNL     1      47.046   6.507  11.505  0.00  0.00    +0.000 A 
BRANCH   7   9
ATOM      9  C   UNL     1      45.259   5.108  10.419  0.00  0.00    +0.000 A 
ATOM     10  C   UNL     1      44.509   4.083  11.029  0.00  0.00    +0.000 A 
ATOM     11  C   UNL     1      44.135   2.929  10.327  0.00  0.00    +0.000 A 
ATOM     12  C   UNL     1      44.495   2.782   8.992  0.00  0.00    +0.000 A 
ATOM     13  C   UNL     1      45.227   3.786   8.375  0.00  0.00    +0.000 A 
ATOM     14  F   UNL     1      45.580   3.650   7.090  0.00  0.00    +0.000 F 
ATOM     15  C   UNL     1      45.610   4.931   9.071  0.00  0.00    +0.000 A 
ENDBRANCH   7   9
ENDBRANCH   2   3
BRANCH   1  17
ATOM     16  C   UNL     1      51.102  10.823  12.144  0.00  0.00    +0.000 C 
ATOM     17  C   UNL     1      51.006   9.295  11.923  0.00  0.00    +0.000 C 
ATOM     18  C   UNL     1      51.650   8.623  13.161  0.00  0.00    +0.000 C 
BRANCH  17  19
ATOM     19  C   UNL     1      51.746   8.801  10.665  0.00  0.00    +0.000 A 
ATOM     20  C   UNL     1      51.832   7.440  10.324  0.00  0.00    +0.000 A 
ATOM     21  C   UNL     1      52.468   7.025   9.149  0.00  0.00    +0.000 A 
ATOM     22  C   UNL     1      53.032   7.961   8.282  0.00  0.00    +0.000 A 
ATOM     23  C   UNL     1      52.991   9.316   8.615  0.00  0.00    +0.000 A 
ATOM     24  C   UNL     1      52.357   9.726   9.795  0.00  0.00    +0.000 A 
BRANCH  22  25
ATOM     25  C   UNL     1      53.671   7.466   7.032  0.00  0.00    +0.000 C 
ATOM     26  N   UNL     1      54.883   8.002   6.694  0.00  0.00    +0.000 N 
ATOM     27  O   UNL     1      53.121   6.652   6.307  0.00  0.00    +0.000 OA
ATOM     28  H   UNL     1      55.246   8.841   7.121  0.00  0.00    +0.000 HD
ATOM     29  H   UNL     1      55.240   7.746   5.780  0.00  0.00    +0.000 HD
ENDBRANCH  22  25
ENDBRANCH  17  19
ENDBRANCH   1  17
TORSDOF 5
ENDMDL
