MODEL 1
REMARK VINA RESULT:    -8.489      0.000      0.000
REMARK INTER + INTRA:         -10.950
REMARK INTER:                 -10.475
REMARK INTRA:                  -0.476
REMARK UNBOUND:                -0.476
REMARK  Name = 
REMARK  4 active torsions:
REMARK  status: ('A' for Active; 'I' for Inactive)
REMARK    1  A    between atoms: C_2  and  C_4
REMARK    2  A    between atoms: N_8  and  C_9
REMARK    3  A    between atoms: C_9  and  C_10
REMARK    4  A    between atoms: C_14  and  C_15
REMARK                            x       y       z     vdW  Elec       q    Type
REMARK                         _______ _______ _______ _____ _____    ______ ____
ROOT
ATOM      1  C   UNL     1      46.589   2.492   7.323  0.00  0.00    +0.000 A 
ATOM      2  C   UNL     1      46.120   3.718   7.776  0.00  0.00    +0.000 A 
ATOM      3  C   UNL     1      45.261   3.750   8.870  0.00  0.00    +0.000 A 
ATOM      4  C   UNL     1      44.880   2.566   9.496  0.00  0.00    +0.000 A 
ATOM      5  N   UNL     1      44.044   2.535  10.573  0.00  0.00    +0.000 N 
ATOM      6  N   UNL     1      45.328   1.373   9.060  0.00  0.00    +0.000 NA
ATOM      7  C   UNL     1      46.159   1.352   7.984  0.00  0.00    +0.000 A 
ATOM      8  H   UNL     1      43.806   1.621  10.945  0.00  0.00    +0.000 HD
ENDROOT
BRANCH   1  10
ATOM      9  N   UNL     1      47.312   3.270   5.141  0.00  0.00    +0.000 N 
ATOM     10  C   UNL     1      47.485   2.369   6.157  0.00  0.00    +0.000 C 
ATOM     11  O   UNL     1      48.357   1.513   6.105  0.00  0.00    +0.000 OA
ATOM     12  H   UNL     1      47.980   3.230   4.380  0.00  0.00    +0.000 HD
ATOM     13  H   UNL     1      46.781   4.121   5.253  0.00  0.00    +0.000 HD
ENDBRANCH   1  10
BRANCH   5  14
ATOM     14  C   UNL     1      43.426   3.699  11.174  0.00  0.00    +0.000 C 
BRANCH  14  15
ATOM     15  C   UNL     1      44.381   4.536  12.013  0.00  0.00    +0.000 A 
ATOM     16  N   UNL     1      45.129   3.928  12.957  0.00  0.00    +0.000 NA
ATOM     17  C   UNL     1      45.993   4.708  13.623  0.00  0.00    +0.000 A 
ATOM     18  C   UNL     1      46.143   6.054  13.383  0.00  0.00    +0.000 A 
ATOM     19  C   UNL     1      45.332   6.606  12.408  0.00  0.00    +0.000 A 
ATOM     20  N   UNL     1      44.443   5.853  11.726  0.00  0.00    +0.000 NA
BRANCH  19  21
ATOM     21  C   UNL     1      45.373   8.031  12.044  0.00  0.00    +0.000 A 
ATOM     22  C   UNL     1      46.425   8.884  12.410  0.00  0.00    +0.000 A 
ATOM     23  C   UNL     1      46.411  10.229  12.046  0.00  0.00    +0.000 A 
ATOM     24  C   UNL     1      45.335  10.700  11.313  0.00  0.00    +0.000 A 
ATOM     25  N   UNL     1      44.303   9.926  10.926  0.00  0.00    +0.000 NA
ATOM     26  C   UNL     1      44.351   8.620  11.294  0.00  0.00    +0.000 A 
ENDBRANCH  19  21
ENDBRANCH  14  15
ENDBRANCH   5  14
TORSDOF 4
ENDMDL
MODEL 2
REMARK VINA RESULT:    -8.264      1.676      3.802
REMARK INTER + INTRA:         -10.672
REMARK INTER:                 -10.184
REMARK INTRA:                  -0.489
REMARK UNBOUND:                -0.476
REMARK  Name = 
REMARK  4 active torsions:
REMARK  status: ('A' for Active; 'I' for Inactive)
REMARK    1  A    between atoms: C_2  and  C_4
REMARK    2  A    between atoms: N_8  and  C_9
REMARK    3  A    between atoms: C_9  and  C_10
REMARK    4  A    between atoms: C_14  and  C_15
REMARK                            x       y       z     vdW  Elec       q    Type
REMARK                         _______ _______ _______ _____ _____    ______ ____
ROOT
ATOM      1  C   UNL     1      46.458   2.478   7.621  0.00  0.00    +0.000 A 
ATOM      2  C   UNL     1      46.318   3.855   7.741  0.00  0.00    +0.000 A 
ATOM      3  C   UNL     1      45.442   4.364   8.695  0.00  0.00    +0.000 A 
ATOM      4  C   UNL     1      44.719   3.500   9.514  0.00  0.00    +0.000 A 
ATOM      5  N   UNL     1      43.849   3.940  10.467  0.00  0.00    +0.000 N 
ATOM      6  N   UNL     1      44.848   2.163   9.400  0.00  0.00    +0.000 NA
ATOM      7  C   UNL     1      45.698   1.677   8.459  0.00  0.00    +0.000 A 
ATOM      8  H   UNL     1      43.350   3.232  10.998  0.00  0.00    +0.000 HD
ENDROOT
BRANCH   1  10
ATOM      9  N   UNL     1      48.423   2.595   6.203  0.00  0.00    +0.000 N 
ATOM     10  C   UNL     1      47.349   1.858   6.622  0.00  0.00    +0.000 C 
ATOM     11  O   UNL     1      47.149   0.728   6.197  0.00  0.00    +0.000 OA
ATOM     12  H   UNL     1      49.073   2.135   5.577  0.00  0.00    +0.000 HD
ATOM     13  H   UNL     1      48.751   3.411   6.699  0.00  0.00    +0.000 HD
ENDBRANCH   1  10
BRANCH   5  14
ATOM     14  C   UNL     1      43.540   5.331  10.727  0.00  0.00    +0.000 C 
BRANCH  14  15
ATOM     15  C   UNL     1      44.607   6.055  11.533  0.00  0.00    +0.000 A 
ATOM     16  N   UNL     1      44.801   7.374  11.329  0.00  0.00    +0.000 NA
ATOM     17  C   UNL     1      45.715   7.968  12.111  0.00  0.00    +0.000 A 
ATOM     18  C   UNL     1      46.431   7.307  13.081  0.00  0.00    +0.000 A 
ATOM     19  C   UNL     1      46.184   5.953  13.221  0.00  0.00    +0.000 A 
ATOM     20  N   UNL     1      45.279   5.320  12.444  0.00  0.00    +0.000 NA
BRANCH  19  21
ATOM     21  C   UNL     1      46.875   5.111  14.210  0.00  0.00    +0.000 A 
ATOM     22  C   UNL     1      47.450   5.624  15.383  0.00  0.00    +0.000 A 
ATOM     23  C   UNL     1      48.102   4.783  16.284  0.00  0.00    +0.000 A 
ATOM     24  C   UNL     1      48.163   3.432  15.993  0.00  0.00    +0.000 A 
ATOM     25  N   UNL     1      47.622   2.883  14.888  0.00  0.00    +0.000 NA
ATOM     26  C   UNL     1      46.991   3.729  14.035  0.00  0.00    +0.000 A 
ENDBRANCH  19  21
ENDBRANCH  14  15
ENDBRANCH   5  14
TORSDOF 4
ENDMDL
MODEL 3
REMARK VINA RESULT:    -7.921      2.342      2.937
REMARK INTER + INTRA:         -10.249
REMARK INTER:                  -9.725
REMARK INTRA:                  -0.524
REMARK UNBOUND:                -0.476
REMARK  Name = 
REMARK  4 active torsions:
REMARK  status: ('A' for Active; 'I' for Inactive)
REMARK    1  A    between atoms: C_2  and  C_4
REMARK    2  A    between atoms: N_8  and  C_9
REMARK    3  A    between atoms: C_9  and  C_10
REMARK    4  A    between atoms: C_14  and  C_15
REMARK                            x       y       z     vdW  Elec       q    Type
REMARK                         _______ _______ _______ _____ _____    ______ ____
ROOT
ATOM      1  C   UNL     1      46.554   2.347   7.540  0.00  0.00    +0.000 A 
ATOM      2  C   UNL     1      46.028   1.982   8.773  0.00  0.00    +0.000 A 
ATOM      3  C   UNL     1      45.399   2.948   9.552  0.00  0.00    +0.000 A 
ATOM      4  C   UNL     1      45.303   4.261   9.096  0.00  0.00    +0.000 A 
ATOM      5  N   UNL     1      44.696   5.249   9.814  0.00  0.00    +0.000 N 
ATOM      6  N   UNL     1      45.813   4.623   7.903  0.00  0.00    +0.000 NA
ATOM      7  C   UNL     1      46.434   3.673   7.155  0.00  0.00    +0.000 A 
ATOM      8  H   UNL     1      44.696   6.180   9.408  0.00  0.00    +0.000 HD
ENDROOT
BRANCH   1  10
ATOM      9  N   UNL     1      48.270   1.881   5.889  0.00  0.00    +0.000 N 
ATOM     10  C   UNL     1      47.254   1.389   6.664  0.00  0.00    +0.000 C 
ATOM     11  O   UNL     1      46.955   0.203   6.641  0.00  0.00    +0.000 OA
ATOM     12  H   UNL     1      48.797   1.206   5.349  0.00  0.00    +0.000 HD
ATOM     13  H   UNL     1      48.697   2.780   6.058  0.00  0.00    +0.000 HD
ENDBRANCH   1  10
BRANCH   5  14
ATOM     14  C   UNL     1      44.115   5.079  11.130  0.00  0.00    +0.000 C 
BRANCH  14  15
ATOM     15  C   UNL     1      45.135   5.098  12.258  0.00  0.00    +0.000 A 
ATOM     16  N   UNL     1      44.978   4.256  13.299  0.00  0.00    +0.000 NA
ATOM     17  C   UNL     1      45.941   4.280  14.233  0.00  0.00    +0.000 A 
ATOM     18  C   UNL     1      47.045   5.097  14.166  0.00  0.00    +0.000 A 
ATOM     19  C   UNL     1      47.128   5.942  13.074  0.00  0.00    +0.000 A 
ATOM     20  N   UNL     1      46.171   5.952  12.120  0.00  0.00    +0.000 NA
BRANCH  19  21
ATOM     21  C   UNL     1      48.244   6.877  12.867  0.00  0.00    +0.000 A 
ATOM     22  C   UNL     1      48.414   7.617  11.687  0.00  0.00    +0.000 A 
ATOM     23  C   UNL     1      49.496   8.484  11.539  0.00  0.00    +0.000 A 
ATOM     24  C   UNL     1      50.394   8.597  12.586  0.00  0.00    +0.000 A 
ATOM     25  N   UNL     1      50.276   7.920  13.744  0.00  0.00    +0.000 NA
ATOM     26  C   UNL     1      49.209   7.088  13.856  0.00  0.00    +0.000 A 
ENDBRANCH  19  21
ENDBRANCH  14  15
ENDBRANCH   5  14
TORSDOF 4
ENDMDL
MODEL 4
REMARK VINA RESULT:    -7.510      3.398      6.726
REMARK INTER + INTRA:          -9.742
REMARK INTER:                  -9.102
REMARK INTRA:                  -0.639
REMARK UNBOUND:                -0.476
REMARK  Name = 
REMARK  4 active torsions:
REMARK  status: ('A' for Active; 'I' for Inactive)
REMARK    1  A    between atoms: C_2  and  C_4
REMARK    2  A    between atoms: N_8  and  C_9
REMARK    3  A    between atoms: C_9  and  C_10
REMARK    4  A    between atoms: C_14  and  C_15
REMARK                            x       y       z     vdW  Elec       q    Type
REMARK                         _______ _______ _______ _____ _____    ______ ____
ROOT
ATOM      1  C   UNL     1      49.636   7.671  12.539  0.00  0.00    +0.000 A 
ATOM      2  C   UNL     1      48.689   7.730  11.524  0.00  0.00    +0.000 A 
ATOM      3  C   UNL     1      47.395   7.285  11.780  0.00  0.00    +0.000 A 
ATOM      4  C   UNL     1      47.063   6.787  13.037  0.00  0.00    +0.000 A 
ATOM      5  N   UNL     1      45.812   6.340  13.347  0.00  0.00    +0.000 N 
ATOM      6  N   UNL     1      47.977   6.724  14.025  0.00  0.00    +0.000 NA
ATOM      7  C   UNL     1      49.239   7.152  13.761  0.00  0.00    +0.000 A 
ATOM      8  H   UNL     1      45.673   5.973  14.284  0.00  0.00    +0.000 HD
ENDROOT
BRANCH   1  10
ATOM      9  N   UNL     1      51.670   7.658  11.216  0.00  0.00    +0.000 N 
ATOM     10  C   UNL     1      51.033   8.102  12.343  0.00  0.00    +0.000 C 
ATOM     11  O   UNL     1      51.595   8.839  13.142  0.00  0.00    +0.000 OA
ATOM     12  H   UNL     1      52.601   8.020  11.048  0.00  0.00    +0.000 HD
ATOM     13  H   UNL     1      51.175   7.260  10.432  0.00  0.00    +0.000 HD
ENDBRANCH   1  10
BRANCH   5  14
ATOM     14  C   UNL     1      44.698   6.290  12.423  0.00  0.00    +0.000 C 
BRANCH  14  15
ATOM     15  C   UNL     1      44.437   4.905  11.851  0.00  0.00    +0.000 A 
ATOM     16  N   UNL     1      43.572   4.087  12.484  0.00  0.00    +0.000 NA
ATOM     17  C   UNL     1      43.340   2.902  11.900  0.00  0.00    +0.000 A 
ATOM     18  C   UNL     1      43.926   2.508  10.719  0.00  0.00    +0.000 A 
ATOM     19  C   UNL     1      44.811   3.398  10.138  0.00  0.00    +0.000 A 
ATOM     20  N   UNL     1      45.077   4.595  10.704  0.00  0.00    +0.000 NA
BRANCH  19  21
ATOM     21  C   UNL     1      45.520   3.116   8.879  0.00  0.00    +0.000 A 
ATOM     22  C   UNL     1      45.955   1.832   8.518  0.00  0.00    +0.000 A 
ATOM     23  C   UNL     1      46.630   1.622   7.316  0.00  0.00    +0.000 A 
ATOM     24  C   UNL     1      46.856   2.709   6.491  0.00  0.00    +0.000 A 
ATOM     25  N   UNL     1      46.453   3.961   6.782  0.00  0.00    +0.000 NA
ATOM     26  C   UNL     1      45.795   4.130   7.957  0.00  0.00    +0.000 A 
ENDBRANCH  19  21
ENDBRANCH  14  15
ENDBRANCH   5  14
TORSDOF 4
ENDMDL
MODEL 5
REMARK VINA RESULT:    -7.288      4.462      8.284
REMARK INTER + INTRA:          -9.468
REMARK INTER:                  -9.104
REMARK INTRA:                  -0.364
REMARK UNBOUND:                -0.476
REMARK  Name = 
REMARK  4 active torsions:
REMARK  status: ('A' for Active; 'I' for Inactive)
REMARK    1  A    between atoms: C_2  and  C_4
REMARK    2  A    between atoms: N_8  and  C_9
REMARK    3  A    between atoms: C_9  and  C_10
REMARK    4  A    between atoms: C_14  and  C_15
REMARK                            x       y       z     vdW  Elec       q    Type
REMARK                         _______ _______ _______ _____ _____    ______ ____
ROOT
ATOM      1  C   UNL     1      48.670   4.493  18.320  0.00  0.00    +0.000 A 
ATOM      2  C   UNL     1      48.716   5.538  17.406  0.00  0.00    +0.000 A 
ATOM      3  C   UNL     1      47.948   5.458  16.249  0.00  0.00    +0.000 A 
ATOM      4  C   UNL     1      47.146   4.344  16.017  0.00  0.00    +0.000 A 
ATOM      5  N   UNL     1      46.370   4.211  14.903  0.00  0.00    +0.000 N 
ATOM      6  N   UNL     1      47.098   3.325  16.897  0.00  0.00    +0.000 NA
ATOM      7  C   UNL     1      47.861   3.408  18.019  0.00  0.00    +0.000 A 
ATOM      8  H   UNL     1      45.838   3.351  14.812  0.00  0.00    +0.000 HD
ENDROOT
BRANCH   1  10
ATOM      9  N   UNL     1      48.845   4.069  20.703  0.00  0.00    +0.000 N 
ATOM     10  C   UNL     1      49.469   4.490  19.560  0.00  0.00    +0.000 C 
ATOM     11  O   UNL     1      50.645   4.830  19.566  0.00  0.00    +0.000 OA
ATOM     12  H   UNL     1      49.420   3.995  21.534  0.00  0.00    +0.000 HD
ATOM     13  H   UNL     1      47.973   3.561  20.691  0.00  0.00    +0.000 HD
ENDBRANCH   1  10
BRANCH   5  14
ATOM     14  C   UNL     1      46.303   5.173  13.822  0.00  0.00    +0.000 C 
BRANCH  14  15
ATOM     15  C   UNL     1      45.254   4.842  12.772  0.00  0.00    +0.000 A 
ATOM     16  N   UNL     1      43.955   5.078  13.046  0.00  0.00    +0.000 NA
ATOM     17  C   UNL     1      43.083   4.821  12.060  0.00  0.00    +0.000 A 
ATOM     18  C   UNL     1      43.452   4.348  10.822  0.00  0.00    +0.000 A 
ATOM     19  C   UNL     1      44.802   4.119  10.622  0.00  0.00    +0.000 A 
ATOM     20  N   UNL     1      45.706   4.357  11.597  0.00  0.00    +0.000 NA
BRANCH  19  21
ATOM     21  C   UNL     1      45.349   3.609   9.355  0.00  0.00    +0.000 A 
ATOM     22  C   UNL     1      45.516   2.241   9.090  0.00  0.00    +0.000 A 
ATOM     23  C   UNL     1      46.047   1.812   7.875  0.00  0.00    +0.000 A 
ATOM     24  C   UNL     1      46.403   2.767   6.939  0.00  0.00    +0.000 A 
ATOM     25  N   UNL     1      46.257   4.092   7.136  0.00  0.00    +0.000 NA
ATOM     26  C   UNL     1      45.732   4.475   8.327  0.00  0.00    +0.000 A 
ENDBRANCH  19  21
ENDBRANCH  14  15
ENDBRANCH   5  14
TORSDOF 4
ENDMDL
MODEL 6
REMARK VINA RESULT:    -6.887      5.422      7.874
REMARK INTER + INTRA:          -8.973
REMARK INTER:                  -8.517
REMARK INTRA:                  -0.456
REMARK UNBOUND:                -0.476
REMARK  Name = 
REMARK  4 active torsions:
REMARK  status: ('A' for Active; 'I' for Inactive)
REMARK    1  A    between atoms: C_2  and  C_4
REMARK    2  A    between atoms: N_8  and  C_9
REMARK    3  A    between atoms: C_9  and  C_10
REMARK    4  A    between atoms: C_14  and  C_15
REMARK                            x       y       z     vdW  Elec       q    Type
REMARK                         _______ _______ _______ _____ _____    ______ ____
ROOT
ATOM      1  C   UNL     1      45.332   4.380  11.476  0.00  0.00    +0.000 A 
ATOM      2  C   UNL     1      45.969   5.603  11.646  0.00  0.00    +0.000 A 
ATOM      3  C   UNL     1      46.675   5.839  12.821  0.00  0.00    +0.000 A 
ATOM      4  C   UNL     1      46.738   4.860  13.809  0.00  0.00    +0.000 A 
ATOM      5  N   UNL     1      47.417   5.033  14.979  0.00  0.00    +0.000 N 
ATOM      6  N   UNL     1      46.120   3.673  13.652  0.00  0.00    +0.000 NA
ATOM      7  C   UNL     1      45.424   3.456  12.505  0.00  0.00    +0.000 A 
ATOM      8  H   UNL     1      47.385   4.270  15.647  0.00  0.00    +0.000 HD
ENDROOT
BRANCH   1  10
ATOM      9  N   UNL     1      44.801   4.794   9.145  0.00  0.00    +0.000 N 
ATOM     10  C   UNL     1      44.545   4.058  10.270  0.00  0.00    +0.000 C 
ATOM     11  O   UNL     1      43.712   3.162  10.268  0.00  0.00    +0.000 OA
ATOM     12  H   UNL     1      44.315   4.517   8.300  0.00  0.00    +0.000 HD
ATOM     13  H   UNL     1      45.630   5.360   9.042  0.00  0.00    +0.000 HD
ENDBRANCH   1  10
BRANCH   5  14
ATOM     14  C   UNL     1      48.118   6.243  15.357  0.00  0.00    +0.000 C 
BRANCH  14  15
ATOM     15  C   UNL     1      49.038   6.069  16.556  0.00  0.00    +0.000 A 
ATOM     16  N   UNL     1      49.074   7.031  17.500  0.00  0.00    +0.000 NA
ATOM     17  C   UNL     1      49.860   6.794  18.560  0.00  0.00    +0.000 A 
ATOM     18  C   UNL     1      50.599   5.645  18.717  0.00  0.00    +0.000 A 
ATOM     19  C   UNL     1      50.519   4.711  17.700  0.00  0.00    +0.000 A 
ATOM     20  N   UNL     1      49.746   4.922  16.613  0.00  0.00    +0.000 NA
BRANCH  19  21
ATOM     21  C   UNL     1      51.255   3.437  17.722  0.00  0.00    +0.000 A 
ATOM     22  C   UNL     1      52.601   3.338  18.106  0.00  0.00    +0.000 A 
ATOM     23  C   UNL     1      53.254   2.107  18.100  0.00  0.00    +0.000 A 
ATOM     24  C   UNL     1      52.541   0.987  17.710  0.00  0.00    +0.000 A 
ATOM     25  N   UNL     1      51.246   1.021  17.341  0.00  0.00    +0.000 NA
ATOM     26  C   UNL     1      50.639   2.235  17.362  0.00  0.00    +0.000 A 
ENDBRANCH  19  21
ENDBRANCH  14  15
ENDBRANCH   5  14
TORSDOF 4
ENDMDL
MODEL 7
REMARK VINA RESULT:    -6.725      3.910      6.536
REMARK INTER + INTRA:          -8.773
REMARK INTER:                  -8.183
REMARK INTRA:                  -0.590
REMARK UNBOUND:                -0.476
REMARK  Name = 
REMARK  4 active torsions:
REMARK  status: ('A' for Active; 'I' for Inactive)
REMARK    1  A    between atoms: C_2  and  C_4
REMARK    2  A    between atoms: N_8  and  C_9
REMARK    3  A    between atoms: C_9  and  C_10
REMARK    4  A    between atoms: C_14  and  C_15
REMARK                            x       y       z     vdW  Elec       q    Type
REMARK                         _______ _______ _______ _____ _____    ______ ____
ROOT
ATOM      1  C   UNL     1      44.671   5.217  10.952  0.00  0.00    +0.000 A 
ATOM      2  C   UNL     1      45.979   5.624  10.723  0.00  0.00    +0.000 A 
ATOM      3  C   UNL     1      46.545   6.581  11.560  0.00  0.00    +0.000 A 
ATOM      4  C   UNL     1      45.805   7.119  12.609  0.00  0.00    +0.000 A 
ATOM      5  N   UNL     1      46.307   8.057  13.463  0.00  0.00    +0.000 N 
ATOM      6  N   UNL     1      44.534   6.731  12.835  0.00  0.00    +0.000 NA
ATOM      7  C   UNL     1      43.988   5.804  12.006  0.00  0.00    +0.000 A 
ATOM      8  H   UNL     1      45.682   8.406  14.182  0.00  0.00    +0.000 HD
ENDROOT
BRANCH   1  10
ATOM      9  N   UNL     1      44.100   4.387   8.745  0.00  0.00    +0.000 N 
ATOM     10  C   UNL     1      43.991   4.224  10.099  0.00  0.00    +0.000 C 
ATOM     11  O   UNL     1      43.369   3.285  10.578  0.00  0.00    +0.000 OA
ATOM     12  H   UNL     1      43.698   3.659   8.166  0.00  0.00    +0.000 HD
ATOM     13  H   UNL     1      44.791   4.991   8.323  0.00  0.00    +0.000 HD
ENDBRANCH   1  10
BRANCH   5  14
ATOM     14  C   UNL     1      47.633   8.631  13.373  0.00  0.00    +0.000 C 
BRANCH  14  15
ATOM     15  C   UNL     1      48.653   7.965  14.284  0.00  0.00    +0.000 A 
ATOM     16  N   UNL     1      49.894   8.485  14.371  0.00  0.00    +0.000 NA
ATOM     17  C   UNL     1      50.729   7.888  15.234  0.00  0.00    +0.000 A 
ATOM     18  C   UNL     1      50.378   6.808  16.009  0.00  0.00    +0.000 A 
ATOM     19  C   UNL     1      49.091   6.324  15.853  0.00  0.00    +0.000 A 
ATOM     20  N   UNL     1      48.227   6.893  14.986  0.00  0.00    +0.000 NA
BRANCH  19  21
ATOM     21  C   UNL     1      48.571   5.172  16.607  0.00  0.00    +0.000 A 
ATOM     22  C   UNL     1      49.205   4.656  17.748  0.00  0.00    +0.000 A 
ATOM     23  C   UNL     1      48.675   3.556  18.420  0.00  0.00    +0.000 A 
ATOM     24  C   UNL     1      47.508   2.990  17.937  0.00  0.00    +0.000 A 
ATOM     25  N   UNL     1      46.852   3.449  16.853  0.00  0.00    +0.000 NA
ATOM     26  C   UNL     1      47.394   4.524  16.225  0.00  0.00    +0.000 A 
ENDBRANCH  19  21
ENDBRANCH  14  15
ENDBRANCH   5  14
TORSDOF 4
ENDMDL
MODEL 8
REMARK VINA RESULT:    -6.604      3.786      7.518
REMARK INTER + INTRA:          -8.624
REMARK INTER:                  -8.675
REMARK INTRA:                   0.050
REMARK UNBOUND:                -0.476
REMARK  Name = 
REMARK  4 active torsions:
REMARK  status: ('A' for Active; 'I' for Inactive)
REMARK    1  A    between atoms: C_2  and  C_4
REMARK    2  A    between atoms: N_8  and  C_9
REMARK    3  A    between atoms: C_9  and  C_10
REMARK    4  A    between atoms: C_14  and  C_15
REMARK                            x       y       z     vdW  Elec       q    Type
REMARK                         _______ _______ _______ _____ _____    ______ ____
ROOT
ATOM      1  C   UNL     1      47.718   4.641  16.517  0.00  0.00    +0.000 A 
ATOM      2  C   UNL     1      47.355   4.490  15.185  0.00  0.00    +0.000 A 
ATOM      3  C   UNL     1      47.740   5.462  14.266  0.00  0.00    +0.000 A 
ATOM      4  C   UNL     1      48.475   6.568  14.684  0.00  0.00    +0.000 A 
ATOM      5  N   UNL     1      48.882   7.551  13.830  0.00  0.00    +0.000 N 
ATOM      6  N   UNL     1      48.827   6.722  15.975  0.00  0.00    +0.000 NA
ATOM      7  C   UNL     1      48.438   5.772  16.866  0.00  0.00    +0.000 A 
ATOM      8  H   UNL     1      49.393   8.329  14.234  0.00  0.00    +0.000 HD
ENDROOT
BRANCH   1  10
ATOM      9  N   UNL     1      48.060   3.673  18.716  0.00  0.00    +0.000 N 
ATOM     10  C   UNL     1      47.332   3.667  17.557  0.00  0.00    +0.000 C 
ATOM     11  O   UNL     1      46.393   2.899  17.400  0.00  0.00    +0.000 OA
ATOM     12  H   UNL     1      47.742   3.057  19.455  0.00  0.00    +0.000 HD
ATOM     13  H   UNL     1      48.668   4.437  18.973  0.00  0.00    +0.000 HD
ENDBRANCH   1  10
BRANCH   5  14
ATOM     14  C   UNL     1      48.580   7.593  12.414  0.00  0.00    +0.000 C 
BRANCH  14  15
ATOM     15  C   UNL     1      47.102   7.428  12.097  0.00  0.00    +0.000 A 
ATOM     16  N   UNL     1      46.237   8.386  12.488  0.00  0.00    +0.000 NA
ATOM     17  C   UNL     1      44.956   8.213  12.128  0.00  0.00    +0.000 A 
ATOM     18  C   UNL     1      44.511   7.137  11.398  0.00  0.00    +0.000 A 
ATOM     19  C   UNL     1      45.456   6.190  11.045  0.00  0.00    +0.000 A 
ATOM     20  N   UNL     1      46.752   6.327  11.400  0.00  0.00    +0.000 NA
BRANCH  19  21
ATOM     21  C   UNL     1      45.131   4.983  10.270  0.00  0.00    +0.000 A 
ATOM     22  C   UNL     1      45.566   4.781   8.951  0.00  0.00    +0.000 A 
ATOM     23  C   UNL     1      45.222   3.621   8.258  0.00  0.00    +0.000 A 
ATOM     24  C   UNL     1      44.445   2.676   8.904  0.00  0.00    +0.000 A 
ATOM     25  N   UNL     1      44.008   2.812  10.171  0.00  0.00    +0.000 NA
ATOM     26  C   UNL     1      44.365   3.951  10.818  0.00  0.00    +0.000 A 
ENDBRANCH  19  21
ENDBRANCH  14  15
ENDBRANCH   5  14
TORSDOF 4
ENDMDL
MODEL 9
REMARK VINA RESULT:    -6.450      3.332      7.048
REMARK INTER + INTRA:          -8.434
REMARK INTER:                  -7.867
REMARK INTRA:                  -0.567
REMARK UNBOUND:                -0.476
REMARK  Name = 
REMARK  4 active torsions:
REMARK  status: ('A' for Active; 'I' for Inactive)
REMARK    1  A    between atoms: C_2  and  C_4
REMARK    2  A    between atoms: N_8  and  C_9
REMARK    3  A    between atoms: C_9  and  C_10
REMARK    4  A    between atoms: C_14  and  C_15
REMARK                            x       y       z     vdW  Elec       q    Type
REMARK                         _______ _______ _______ _____ _____    ______ ____
ROOT
ATOM      1  C   UNL     1      49.868   8.687  12.293  0.00  0.00    +0.000 A 
ATOM      2  C   UNL     1      49.730   7.310  12.166  0.00  0.00    +0.000 A 
ATOM      3  C   UNL     1      48.561   6.704  12.616  0.00  0.00    +0.000 A 
ATOM      4  C   UNL     1      47.549   7.472  13.186  0.00  0.00    +0.000 A 
ATOM      5  N   UNL     1      46.381   6.934  13.643  0.00  0.00    +0.000 N 
ATOM      6  N   UNL     1      47.677   8.807  13.316  0.00  0.00    +0.000 NA
ATOM      7  C   UNL     1      48.827   9.388  12.882  0.00  0.00    +0.000 A 
ATOM      8  H   UNL     1      45.714   7.573  14.064  0.00  0.00    +0.000 HD
ENDROOT
BRANCH   1  10
ATOM      9  N   UNL     1      51.638  10.281  12.752  0.00  0.00    +0.000 N 
ATOM     10  C   UNL     1      51.082   9.403  11.861  0.00  0.00    +0.000 C 
ATOM     11  O   UNL     1      51.584   9.211  10.761  0.00  0.00    +0.000 OA
ATOM     12  H   UNL     1      52.514  10.710  12.480  0.00  0.00    +0.000 HD
ATOM     13  H   UNL     1      51.401  10.284  13.733  0.00  0.00    +0.000 HD
ENDBRANCH   1  10
BRANCH   5  14
ATOM     14  C   UNL     1      46.059   5.522  13.628  0.00  0.00    +0.000 C 
BRANCH  14  15
ATOM     15  C   UNL     1      45.078   5.129  12.535  0.00  0.00    +0.000 A 
ATOM     16  N   UNL     1      43.776   5.450  12.676  0.00  0.00    +0.000 NA
ATOM     17  C   UNL     1      42.970   5.128  11.654  0.00  0.00    +0.000 A 
ATOM     18  C   UNL     1      43.408   4.510  10.506  0.00  0.00    +0.000 A 
ATOM     19  C   UNL     1      44.755   4.201  10.442  0.00  0.00    +0.000 A 
ATOM     20  N   UNL     1      45.593   4.500  11.458  0.00  0.00    +0.000 NA
BRANCH  19  21
ATOM     21  C   UNL     1      45.370   3.534   9.283  0.00  0.00    +0.000 A 
ATOM     22  C   UNL     1      45.883   4.235   8.182  0.00  0.00    +0.000 A 
ATOM     23  C   UNL     1      46.448   3.554   7.105  0.00  0.00    +0.000 A 
ATOM     24  C   UNL     1      46.492   2.172   7.152  0.00  0.00    +0.000 A 
ATOM     25  N   UNL     1      46.023   1.448   8.187  0.00  0.00    +0.000 NA
ATOM     26  C   UNL     1      45.484   2.143   9.220  0.00  0.00    +0.000 A 
ENDBRANCH  19  21
ENDBRANCH  14  15
ENDBRANCH   5  14
TORSDOF 4
ENDMDL
