MODEL 1
REMARK VINA RESULT:    -8.019      0.000      0.000
REMARK INTER + INTRA:         -12.202
REMARK INTER:                 -10.831
REMARK INTRA:                  -1.371
REMARK UNBOUND:                -1.371
REMARK  Name = 
REMARK  6 active torsions:
REMARK  status: ('A' for Active; 'I' for Inactive)
REMARK    1  A    between atoms: C_2  and  C_3
REMARK    2  A    between atoms: N_7  and  C_8
REMARK    3  A    between atoms: C_8  and  C_9
REMARK    4  A    between atoms: C_13  and  C_14
REMARK    5  A    between atoms: C_18  and  O_19
REMARK    6  A    between atoms: O_19  and  C_20
REMARK                            x       y       z     vdW  Elec       q    Type
REMARK                         _______ _______ _______ _____ _____    ______ ____
ROOT
ATOM      1  C   UNL     1      45.021   5.334  12.201  0.00  0.00    +0.000 A 
ATOM      2  C   UNL     1      45.524   4.371  13.088  0.00  0.00    +0.000 A 
ATOM      3  C   UNL     1      46.786   4.515  13.652  0.00  0.00    +0.000 A 
ATOM      4  C   UNL     1      47.559   5.636  13.345  0.00  0.00    +0.000 A 
ATOM      5  C   UNL     1      47.058   6.668  12.533  0.00  0.00    +0.000 A 
ATOM      6  C   UNL     1      45.759   6.520  12.026  0.00  0.00    +0.000 A 
ENDROOT
BRANCH   5   7
ATOM      7  C   UNL     1      47.902   7.796  12.098  0.00  0.00    +0.000 A 
ATOM      8  C   UNL     1      47.416   9.108  12.132  0.00  0.00    +0.000 A 
ATOM      9  N   UNL     1      48.124  10.208  11.792  0.00  0.00    +0.000 NA
ATOM     10  C   UNL     1      49.402  10.003  11.413  0.00  0.00    +0.000 A 
ATOM     11  C   UNL     1      50.016   8.758  11.376  0.00  0.00    +0.000 A 
ATOM     12  C   UNL     1      49.243   7.640  11.702  0.00  0.00    +0.000 A 
BRANCH  11  13
ATOM     13  O   UNL     1      51.325   8.750  10.993  0.00  0.00    +0.000 OA
BRANCH  13  14
ATOM     14  C   UNL     1      51.835   7.498  10.572  0.00  0.00    +0.000 C 
ATOM     15  F   UNL     1      52.028   7.535   9.232  0.00  0.00    +0.000 F 
ATOM     16  F   UNL     1      53.058   7.353  11.141  0.00  0.00    +0.000 F 
ENDBRANCH  13  14
ENDBRANCH  11  13
ENDBRANCH   5   7
BRANCH   1  17
ATOM     17  C   UNL     1      43.830   5.003  11.303  0.00  0.00    +0.000 C 
ATOM     18  C   UNL     1      42.414   5.154  11.861  0.00  0.00    +0.000 C 
ATOM     19  C   UNL     1      42.981   6.229  11.007  0.00  0.00    +0.000 C 
BRANCH  17  24
ATOM     20  C   UNL     1      46.639   2.608   7.509  0.00  0.00    +0.000 A 
ATOM     21  C   UNL     1      46.445   3.971   7.685  0.00  0.00    +0.000 A 
ATOM     22  C   UNL     1      45.614   4.419   8.715  0.00  0.00    +0.000 A 
ATOM     23  C   UNL     1      44.990   3.501   9.546  0.00  0.00    +0.000 A 
ATOM     24  N   UNL     1      44.028   3.800  10.502  0.00  0.00    +0.000 N 
ATOM     25  N   UNL     1      45.204   2.175   9.398  0.00  0.00    +0.000 NA
ATOM     26  C   UNL     1      46.013   1.756   8.395  0.00  0.00    +0.000 A 
ATOM     27  H   UNL     1      43.779   2.915  10.938  0.00  0.00    +0.000 HD
BRANCH  20  29
ATOM     28  N   UNL     1      48.068   1.690   5.564  0.00  0.00    +0.000 NA
ATOM     29  C   UNL     1      47.418   2.093   6.432  0.00  0.00    +0.000 C 
ENDBRANCH  20  29
ENDBRANCH  17  24
ENDBRANCH   1  17
TORSDOF 6
ENDMDL
MODEL 2
REMARK VINA RESULT:    -7.947      3.890      5.026
REMARK INTER + INTRA:         -12.105
REMARK INTER:                 -11.032
REMARK INTRA:                  -1.073
REMARK UNBOUND:                -1.371
REMARK  Name = 
REMARK  6 active torsions:
REMARK  status: ('A' for Active; 'I' for Inactive)
REMARK    1  A    between atoms: C_2  and  C_3
REMARK    2  A    between atoms: N_7  and  C_8
REMARK    3  A    between atoms: C_8  and  C_9
REMARK    4  A    between atoms: C_13  and  C_14
REMARK    5  A    between atoms: C_18  and  O_19
REMARK    6  A    between atoms: O_19  and  C_20
REMARK                            x       y       z     vdW  Elec       q    Type
REMARK                         _______ _______ _______ _____ _____    ______ ____
ROOT
ATOM      1  C   UNL     1      45.175   5.505  11.824  0.00  0.00    +0.000 A 
ATOM      2  C   UNL     1      45.565   6.820  11.532  0.00  0.00    +0.000 A 
ATOM      3  C   UNL     1      46.538   7.458  12.293  0.00  0.00    +0.000 A 
ATOM      4  C   UNL     1      47.144   6.782  13.353  0.00  0.00    +0.000 A 
ATOM      5  C   UNL     1      46.847   5.434  13.623  0.00  0.00    +0.000 A 
ATOM      6  C   UNL     1      45.904   4.802  12.801  0.00  0.00    +0.000 A 
ENDROOT
BRANCH   5   7
ATOM      7  C   UNL     1      47.382   4.742  14.811  0.00  0.00    +0.000 A 
ATOM      8  C   UNL     1      47.504   3.349  14.832  0.00  0.00    +0.000 A 
ATOM      9  N   UNL     1      48.018   2.629  15.854  0.00  0.00    +0.000 NA
ATOM     10  C   UNL     1      48.460   3.332  16.917  0.00  0.00    +0.000 A 
ATOM     11  C   UNL     1      48.434   4.718  17.004  0.00  0.00    +0.000 A 
ATOM     12  C   UNL     1      47.866   5.426  15.942  0.00  0.00    +0.000 A 
BRANCH  11  13
ATOM     13  O   UNL     1      48.950   5.253  18.146  0.00  0.00    +0.000 OA
BRANCH  13  14
ATOM     14  C   UNL     1      48.064   5.320  19.249  0.00  0.00    +0.000 C 
ATOM     15  F   UNL     1      48.743   5.784  20.325  0.00  0.00    +0.000 F 
ATOM     16  F   UNL     1      47.122   6.248  18.950  0.00  0.00    +0.000 F 
ENDBRANCH  13  14
ENDBRANCH  11  13
ENDBRANCH   5   7
BRANCH   1  17
ATOM     17  C   UNL     1      43.872   4.946  11.253  0.00  0.00    +0.000 C 
ATOM     18  C   UNL     1      42.631   4.894  12.147  0.00  0.00    +0.000 C 
ATOM     19  C   UNL     1      42.785   6.006  11.173  0.00  0.00    +0.000 C 
BRANCH  17  24
ATOM     20  C   UNL     1      46.675   2.597   7.426  0.00  0.00    +0.000 A 
ATOM     21  C   UNL     1      46.488   3.959   7.624  0.00  0.00    +0.000 A 
ATOM     22  C   UNL     1      45.658   4.395   8.660  0.00  0.00    +0.000 A 
ATOM     23  C   UNL     1      45.027   3.466   9.474  0.00  0.00    +0.000 A 
ATOM     24  N   UNL     1      44.066   3.755  10.433  0.00  0.00    +0.000 N 
ATOM     25  N   UNL     1      45.235   2.142   9.306  0.00  0.00    +0.000 NA
ATOM     26  C   UNL     1      46.043   1.734   8.297  0.00  0.00    +0.000 A 
ATOM     27  H   UNL     1      43.811   2.865  10.855  0.00  0.00    +0.000 HD
BRANCH  20  29
ATOM     28  N   UNL     1      48.105   1.691   5.477  0.00  0.00    +0.000 NA
ATOM     29  C   UNL     1      47.453   2.095   6.343  0.00  0.00    +0.000 C 
ENDBRANCH  20  29
ENDBRANCH  17  24
ENDBRANCH   1  17
TORSDOF 6
ENDMDL
MODEL 3
REMARK VINA RESULT:    -7.410      4.142      8.110
REMARK INTER + INTRA:         -11.380
REMARK INTER:                 -10.187
REMARK INTRA:                  -1.193
REMARK UNBOUND:                -1.371
REMARK  Name = 
REMARK  6 active torsions:
REMARK  status: ('A' for Active; 'I' for Inactive)
REMARK    1  A    between atoms: C_2  and  C_3
REMARK    2  A    between atoms: N_7  and  C_8
REMARK    3  A    between atoms: C_8  and  C_9
REMARK    4  A    between atoms: C_13  and  C_14
REMARK    5  A    between atoms: C_18  and  O_19
REMARK    6  A    between atoms: O_19  and  C_20
REMARK                            x       y       z     vdW  Elec       q    Type
REMARK                         _______ _______ _______ _____ _____    ______ ____
ROOT
ATOM      1  C   UNL     1      47.401   7.547  12.467  0.00  0.00    +0.000 A 
ATOM      2  C   UNL     1      46.498   8.615  12.583  0.00  0.00    +0.000 A 
ATOM      3  C   UNL     1      45.213   8.519  12.063  0.00  0.00    +0.000 A 
ATOM      4  C   UNL     1      44.807   7.343  11.429  0.00  0.00    +0.000 A 
ATOM      5  C   UNL     1      45.648   6.218  11.371  0.00  0.00    +0.000 A 
ATOM      6  C   UNL     1      46.918   6.328  11.956  0.00  0.00    +0.000 A 
ENDROOT
BRANCH   5   7
ATOM      7  C   UNL     1      45.286   5.014  10.600  0.00  0.00    +0.000 A 
ATOM      8  C   UNL     1      44.557   3.978  11.194  0.00  0.00    +0.000 A 
ATOM      9  N   UNL     1      44.145   2.856  10.561  0.00  0.00    +0.000 NA
ATOM     10  C   UNL     1      44.454   2.761   9.252  0.00  0.00    +0.000 A 
ATOM     11  C   UNL     1      45.136   3.736   8.536  0.00  0.00    +0.000 A 
ATOM     12  C   UNL     1      45.575   4.867   9.231  0.00  0.00    +0.000 A 
BRANCH  11  13
ATOM     13  O   UNL     1      45.334   3.475   7.213  0.00  0.00    +0.000 OA
BRANCH  13  14
ATOM     14  C   UNL     1      46.685   3.367   6.803  0.00  0.00    +0.000 C 
ATOM     15  F   UNL     1      47.267   2.352   7.485  0.00  0.00    +0.000 F 
ATOM     16  F   UNL     1      46.679   3.007   5.495  0.00  0.00    +0.000 F 
ENDBRANCH  13  14
ENDBRANCH  11  13
ENDBRANCH   5   7
BRANCH   1  17
ATOM     17  C   UNL     1      48.895   7.778  12.687  0.00  0.00    +0.000 C 
ATOM     18  C   UNL     1      49.822   7.855  11.473  0.00  0.00    +0.000 C 
ATOM     19  C   UNL     1      49.356   9.111  12.118  0.00  0.00    +0.000 C 
BRANCH  17  24
ATOM     20  C   UNL     1      48.954   6.981  17.921  0.00  0.00    +0.000 A 
ATOM     21  C   UNL     1      48.647   8.156  17.246  0.00  0.00    +0.000 A 
ATOM     22  C   UNL     1      48.745   8.194  15.854  0.00  0.00    +0.000 A 
ATOM     23  C   UNL     1      49.153   7.065  15.160  0.00  0.00    +0.000 A 
ATOM     24  N   UNL     1      49.439   7.010  13.802  0.00  0.00    +0.000 N 
ATOM     25  N   UNL     1      49.419   5.911  15.811  0.00  0.00    +0.000 NA
ATOM     26  C   UNL     1      49.318   5.888  17.162  0.00  0.00    +0.000 A 
ATOM     27  H   UNL     1      49.702   6.047  13.608  0.00  0.00    +0.000 HD
BRANCH  20  29
ATOM     28  N   UNL     1      48.925   6.869  20.500  0.00  0.00    +0.000 NA
ATOM     29  C   UNL     1      48.939   6.906  19.344  0.00  0.00    +0.000 C 
ENDBRANCH  20  29
ENDBRANCH  17  24
ENDBRANCH   1  17
TORSDOF 6
ENDMDL
MODEL 4
REMARK VINA RESULT:    -5.872      4.607      7.102
REMARK INTER + INTRA:          -9.302
REMARK INTER:                  -7.897
REMARK INTRA:                  -1.405
REMARK UNBOUND:                -1.371
REMARK  Name = 
REMARK  6 active torsions:
REMARK  status: ('A' for Active; 'I' for Inactive)
REMARK    1  A    between atoms: C_2  and  C_3
REMARK    2  A    between atoms: N_7  and  C_8
REMARK    3  A    between atoms: C_8  and  C_9
REMARK    4  A    between atoms: C_13  and  C_14
REMARK    5  A    between atoms: C_18  and  O_19
REMARK    6  A    between atoms: O_19  and  C_20
REMARK                            x       y       z     vdW  Elec       q    Type
REMARK                         _______ _______ _______ _____ _____    ______ ____
ROOT
ATOM      1  C   UNL     1      49.148   9.096  14.018  0.00  0.00    +0.000 A 
ATOM      2  C   UNL     1      48.743  10.148  14.852  0.00  0.00    +0.000 A 
ATOM      3  C   UNL     1      48.769  10.009  16.235  0.00  0.00    +0.000 A 
ATOM      4  C   UNL     1      49.216   8.815  16.804  0.00  0.00    +0.000 A 
ATOM      5  C   UNL     1      49.715   7.769  16.007  0.00  0.00    +0.000 A 
ATOM      6  C   UNL     1      49.728   7.963  14.619  0.00  0.00    +0.000 A 
ENDROOT
BRANCH   5   7
ATOM      7  C   UNL     1      50.074   6.458  16.579  0.00  0.00    +0.000 A 
ATOM      8  C   UNL     1      51.410   6.128  16.829  0.00  0.00    +0.000 A 
ATOM      9  N   UNL     1      51.835   4.972  17.386  0.00  0.00    +0.000 NA
ATOM     10  C   UNL     1      50.875   4.091  17.737  0.00  0.00    +0.000 A 
ATOM     11  C   UNL     1      49.514   4.314  17.581  0.00  0.00    +0.000 A 
ATOM     12  C   UNL     1      49.115   5.506  16.972  0.00  0.00    +0.000 A 
BRANCH  11  13
ATOM     13  O   UNL     1      48.693   3.318  18.021  0.00  0.00    +0.000 OA
BRANCH  13  14
ATOM     14  C   UNL     1      47.531   3.090  17.243  0.00  0.00    +0.000 C 
ATOM     15  F   UNL     1      47.900   2.542  16.060  0.00  0.00    +0.000 F 
ATOM     16  F   UNL     1      46.790   2.158  17.893  0.00  0.00    +0.000 F 
ENDBRANCH  13  14
ENDBRANCH  11  13
ENDBRANCH   5   7
BRANCH   1  17
ATOM     17  C   UNL     1      48.769   9.101  12.538  0.00  0.00    +0.000 C 
ATOM     18  C   UNL     1      49.246  10.254  11.653  0.00  0.00    +0.000 C 
ATOM     19  C   UNL     1      49.988   8.966  11.638  0.00  0.00    +0.000 C 
BRANCH  17  24
ATOM     20  C   UNL     1      45.171   5.225  12.781  0.00  0.00    +0.000 A 
ATOM     21  C   UNL     1      46.549   5.095  12.667  0.00  0.00    +0.000 A 
ATOM     22  C   UNL     1      47.340   6.241  12.553  0.00  0.00    +0.000 A 
ATOM     23  C   UNL     1      46.743   7.493  12.551  0.00  0.00    +0.000 A 
ATOM     24  N   UNL     1      47.389   8.695  12.294  0.00  0.00    +0.000 N 
ATOM     25  N   UNL     1      45.407   7.624  12.697  0.00  0.00    +0.000 NA
ATOM     26  C   UNL     1      44.652   6.503  12.807  0.00  0.00    +0.000 A 
ATOM     27  H   UNL     1      46.680   9.420  12.373  0.00  0.00    +0.000 HD
BRANCH  20  29
ATOM     28  N   UNL     1      43.608   3.174  12.890  0.00  0.00    +0.000 NA
ATOM     29  C   UNL     1      44.311   4.090  12.829  0.00  0.00    +0.000 C 
ENDBRANCH  20  29
ENDBRANCH  17  24
ENDBRANCH   1  17
TORSDOF 6
ENDMDL
MODEL 5
REMARK VINA RESULT:    -5.861      4.050      7.511
REMARK INTER + INTRA:          -9.288
REMARK INTER:                  -8.327
REMARK INTRA:                  -0.960
REMARK UNBOUND:                -1.371
REMARK  Name = 
REMARK  6 active torsions:
REMARK  status: ('A' for Active; 'I' for Inactive)
REMARK    1  A    between atoms: C_2  and  C_3
REMARK    2  A    between atoms: N_7  and  C_8
REMARK    3  A    between atoms: C_8  and  C_9
REMARK    4  A    between atoms: C_13  and  C_14
REMARK    5  A    between atoms: C_18  and  O_19
REMARK    6  A    between atoms: O_19  and  C_20
REMARK                            x       y       z     vdW  Elec       q    Type
REMARK                         _______ _______ _______ _____ _____    ______ ____
ROOT
ATOM      1  C   UNL     1      48.218   6.639  14.243  0.00  0.00    +0.000 A 
ATOM      2  C   UNL     1      48.519   5.906  15.400  0.00  0.00    +0.000 A 
ATOM      3  C   UNL     1      47.758   4.800  15.760  0.00  0.00    +0.000 A 
ATOM      4  C   UNL     1      46.689   4.403  14.954  0.00  0.00    +0.000 A 
ATOM      5  C   UNL     1      46.409   5.054  13.740  0.00  0.00    +0.000 A 
ATOM      6  C   UNL     1      47.231   6.130  13.378  0.00  0.00    +0.000 A 
ENDROOT
BRANCH   5   7
ATOM      7  C   UNL     1      45.212   4.730  12.941  0.00  0.00    +0.000 A 
ATOM      8  C   UNL     1      44.059   5.517  13.028  0.00  0.00    +0.000 A 
ATOM      9  N   UNL     1      42.931   5.325  12.309  0.00  0.00    +0.000 NA
ATOM     10  C   UNL     1      42.948   4.300  11.432  0.00  0.00    +0.000 A 
ATOM     11  C   UNL     1      44.041   3.471  11.221  0.00  0.00    +0.000 A 
ATOM     12  C   UNL     1      45.179   3.679  12.006  0.00  0.00    +0.000 A 
BRANCH  11  13
ATOM     13  O   UNL     1      43.881   2.504  10.273  0.00  0.00    +0.000 OA
BRANCH  13  14
ATOM     14  C   UNL     1      44.879   2.456   9.268  0.00  0.00    +0.000 C 
ATOM     15  F   UNL     1      45.032   1.171   8.869  0.00  0.00    +0.000 F 
ATOM     16  F   UNL     1      44.405   3.145   8.200  0.00  0.00    +0.000 F 
ENDBRANCH  13  14
ENDBRANCH  11  13
ENDBRANCH   5   7
BRANCH   1  17
ATOM     17  C   UNL     1      48.792   8.042  14.052  0.00  0.00    +0.000 C 
ATOM     18  C   UNL     1      48.003   9.244  14.573  0.00  0.00    +0.000 C 
ATOM     19  C   UNL     1      49.130   8.705  15.378  0.00  0.00    +0.000 C 
BRANCH  17  24
ATOM     20  C   UNL     1      53.233   8.292  11.181  0.00  0.00    +0.000 A 
ATOM     21  C   UNL     1      53.087   8.546  12.539  0.00  0.00    +0.000 A 
ATOM     22  C   UNL     1      51.816   8.489  13.115  0.00  0.00    +0.000 A 
ATOM     23  C   UNL     1      50.715   8.186  12.328  0.00  0.00    +0.000 A 
ATOM     24  N   UNL     1      49.389   8.247  12.736  0.00  0.00    +0.000 N 
ATOM     25  N   UNL     1      50.859   7.905  11.014  0.00  0.00    +0.000 NA
ATOM     26  C   UNL     1      52.098   7.963  10.469  0.00  0.00    +0.000 A 
ATOM     27  H   UNL     1      48.833   7.962  11.933  0.00  0.00    +0.000 HD
BRANCH  20  29
ATOM     28  N   UNL     1      55.518   8.472   9.995  0.00  0.00    +0.000 NA
ATOM     29  C   UNL     1      54.494   8.404  10.527  0.00  0.00    +0.000 C 
ENDBRANCH  20  29
ENDBRANCH  17  24
ENDBRANCH   1  17
TORSDOF 6
ENDMDL
MODEL 6
REMARK VINA RESULT:    -5.788      6.010      8.415
REMARK INTER + INTRA:          -9.189
REMARK INTER:                  -9.302
REMARK INTRA:                   0.113
REMARK UNBOUND:                -1.371
REMARK  Name = 
REMARK  6 active torsions:
REMARK  status: ('A' for Active; 'I' for Inactive)
REMARK    1  A    between atoms: C_2  and  C_3
REMARK    2  A    between atoms: N_7  and  C_8
REMARK    3  A    between atoms: C_8  and  C_9
REMARK    4  A    between atoms: C_13  and  C_14
REMARK    5  A    between atoms: C_18  and  O_19
REMARK    6  A    between atoms: O_19  and  C_20
REMARK                            x       y       z     vdW  Elec       q    Type
REMARK                         _______ _______ _______ _____ _____    ______ ____
ROOT
ATOM      1  C   UNL     1      47.953   4.494  16.163  0.00  0.00    +0.000 A 
ATOM      2  C   UNL     1      48.850   5.567  16.286  0.00  0.00    +0.000 A 
ATOM      3  C   UNL     1      48.932   6.540  15.297  0.00  0.00    +0.000 A 
ATOM      4  C   UNL     1      48.107   6.461  14.174  0.00  0.00    +0.000 A 
ATOM      5  C   UNL     1      47.133   5.454  14.055  0.00  0.00    +0.000 A 
ATOM      6  C   UNL     1      47.036   4.520  15.096  0.00  0.00    +0.000 A 
ENDROOT
BRANCH   5   7
ATOM      7  C   UNL     1      46.339   5.280  12.824  0.00  0.00    +0.000 A 
ATOM      8  C   UNL     1      46.390   6.233  11.800  0.00  0.00    +0.000 A 
ATOM      9  N   UNL     1      45.733   6.144  10.622  0.00  0.00    +0.000 NA
ATOM     10  C   UNL     1      44.992   5.032  10.434  0.00  0.00    +0.000 A 
ATOM     11  C   UNL     1      44.892   3.995  11.351  0.00  0.00    +0.000 A 
ATOM     12  C   UNL     1      45.559   4.137  12.571  0.00  0.00    +0.000 A 
BRANCH  11  13
ATOM     13  O   UNL     1      44.117   2.939  10.974  0.00  0.00    +0.000 OA
BRANCH  13  14
ATOM     14  C   UNL     1      44.422   2.372   9.712  0.00  0.00    +0.000 C 
ATOM     15  F   UNL     1      44.129   3.277   8.747  0.00  0.00    +0.000 F 
ATOM     16  F   UNL     1      45.765   2.180   9.674  0.00  0.00    +0.000 F 
ENDBRANCH  13  14
ENDBRANCH  11  13
ENDBRANCH   5   7
BRANCH   1  17
ATOM     17  C   UNL     1      48.123   3.249  17.032  0.00  0.00    +0.000 C 
ATOM     18  C   UNL     1      47.905   3.362  18.542  0.00  0.00    +0.000 C 
ATOM     19  C   UNL     1      46.815   2.828  17.684  0.00  0.00    +0.000 C 
BRANCH  17  24
ATOM     20  C   UNL     1      53.195   2.042  17.948  0.00  0.00    +0.000 A 
ATOM     21  C   UNL     1      52.549   3.242  18.215  0.00  0.00    +0.000 A 
ATOM     22  C   UNL     1      51.211   3.399  17.845  0.00  0.00    +0.000 A 
ATOM     23  C   UNL     1      50.545   2.361  17.211  0.00  0.00    +0.000 A 
ATOM     24  N   UNL     1      49.274   2.436  16.657  0.00  0.00    +0.000 N 
ATOM     25  N   UNL     1      51.161   1.181  16.980  0.00  0.00    +0.000 NA
ATOM     26  C   UNL     1      52.459   1.043  17.346  0.00  0.00    +0.000 A 
ATOM     27  H   UNL     1      49.077   1.513  16.278  0.00  0.00    +0.000 HD
BRANCH  20  29
ATOM     28  N   UNL     1      55.704   1.713  18.459  0.00  0.00    +0.000 NA
ATOM     29  C   UNL     1      54.577   1.852  18.239  0.00  0.00    +0.000 C 
ENDBRANCH  20  29
ENDBRANCH  17  24
ENDBRANCH   1  17
TORSDOF 6
ENDMDL
