MODEL 1
REMARK VINA RESULT:    -8.363      0.000      0.000
REMARK INTER + INTRA:         -11.973
REMARK INTER:                 -11.297
REMARK INTRA:                  -0.676
REMARK UNBOUND:                -0.676
REMARK  Name = 
REMARK  6 active torsions:
REMARK  status: ('A' for Active; 'I' for Inactive)
REMARK    1  A    between atoms: C_2  and  C_3
REMARK    2  A    between atoms: C_7  and  C_8
REMARK    3  A    between atoms: C_8  and  C_9
REMARK    4  A    between atoms: C_12  and  C_13
REMARK    5  A    between atoms: C_13  and  N_14
REMARK    6  A    between atoms: C_15  and  C_17
REMARK                            x       y       z     vdW  Elec       q    Type
REMARK                         _______ _______ _______ _____ _____    ______ ____
ROOT
ATOM      1  C   UNL     1      46.861   8.009  13.342  0.00  0.00    +0.000 C 
ENDROOT
BRANCH   1   5
ATOM      2  C   UNL     1      44.946   5.126  10.740  0.00  0.00    +0.000 A 
ATOM      3  C   UNL     1      46.041   5.873  10.290  0.00  0.00    +0.000 A 
ATOM      4  C   UNL     1      46.646   6.824  11.119  0.00  0.00    +0.000 A 
ATOM      5  C   UNL     1      46.175   7.035  12.420  0.00  0.00    +0.000 A 
ATOM      6  C   UNL     1      45.044   6.330  12.850  0.00  0.00    +0.000 A 
ATOM      7  C   UNL     1      44.440   5.379  12.023  0.00  0.00    +0.000 A 
BRANCH   2   8
ATOM      8  C   UNL     1      44.337   4.051   9.869  0.00  0.00    +0.000 C 
BRANCH   8  13
ATOM      9  C   UNL     1      46.381   1.593   7.769  0.00  0.00    +0.000 A 
ATOM     10  C   UNL     1      46.992   2.450   6.850  0.00  0.00    +0.000 A 
ATOM     11  C   UNL     1      46.765   3.825   6.923  0.00  0.00    +0.000 A 
ATOM     12  C   UNL     1      45.918   4.344   7.908  0.00  0.00    +0.000 A 
ATOM     13  C   UNL     1      45.280   3.495   8.825  0.00  0.00    +0.000 A 
ATOM     14  C   UNL     1      45.532   2.114   8.754  0.00  0.00    +0.000 A 
BRANCH   9  16
ATOM     15  N   UNL     1      46.814  -0.964   7.650  0.00  0.00    +0.000 NA
ATOM     16  C   UNL     1      46.617   0.182   7.703  0.00  0.00    +0.000 C 
ENDBRANCH   9  16
ENDBRANCH   8  13
ENDBRANCH   2   8
ENDBRANCH   1   5
BRANCH   1  17
ATOM     17  N   UNL     1      47.359   7.357  14.524  0.00  0.00    +0.000 N 
ATOM     18  C   UNL     1      48.629   6.842  14.568  0.00  0.00    +0.000 C 
ATOM     19  O   UNL     1      49.410   6.947  13.625  0.00  0.00    +0.000 OA
ATOM     20  H   UNL     1      46.670   7.052  15.204  0.00  0.00    +0.000 HD
BRANCH  18  21
ATOM     21  C   UNL     1      49.034   6.219  15.833  0.00  0.00    +0.000 A 
ATOM     22  C   UNL     1      50.110   6.733  16.543  0.00  0.00    +0.000 A 
ATOM     23  S   UNL     1      50.387   5.944  18.029  0.00  0.00    +0.000 S 
ATOM     24  C   UNL     1      49.116   4.848  17.747  0.00  0.00    +0.000 A 
ATOM     25  N   UNL     1      48.817   3.874  18.647  0.00  0.00    +0.000 NA
ATOM     26  C   UNL     1      47.855   3.091  18.288  0.00  0.00    +0.000 A 
ATOM     27  N   UNL     1      47.163   3.196  17.109  0.00  0.00    +0.000 N 
ATOM     28  C   UNL     1      47.406   4.182  16.184  0.00  0.00    +0.000 A 
ATOM     29  O   UNL     1      46.741   4.273  15.158  0.00  0.00    +0.000 OA
ATOM     30  C   UNL     1      48.485   5.086  16.539  0.00  0.00    +0.000 A 
ATOM     31  H   UNL     1      46.419   2.552  16.886  0.00  0.00    +0.000 HD
ENDBRANCH  18  21
ENDBRANCH   1  17
TORSDOF 6
ENDMDL
MODEL 2
REMARK VINA RESULT:    -7.971      1.974      2.330
REMARK INTER + INTRA:         -11.442
REMARK INTER:                 -10.574
REMARK INTRA:                  -0.868
REMARK UNBOUND:                -0.676
REMARK  Name = 
REMARK  6 active torsions:
REMARK  status: ('A' for Active; 'I' for Inactive)
REMARK    1  A    between atoms: C_2  and  C_3
REMARK    2  A    between atoms: C_7  and  C_8
REMARK    3  A    between atoms: C_8  and  C_9
REMARK    4  A    between atoms: C_12  and  C_13
REMARK    5  A    between atoms: C_13  and  N_14
REMARK    6  A    between atoms: C_15  and  C_17
REMARK                            x       y       z     vdW  Elec       q    Type
REMARK                         _______ _______ _______ _____ _____    ______ ____
ROOT
ATOM      1  C   UNL     1      47.892   7.285  13.793  0.00  0.00    +0.000 C 
ENDROOT
BRANCH   1   5
ATOM      2  C   UNL     1      45.380   4.977  11.125  0.00  0.00    +0.000 A 
ATOM      3  C   UNL     1      45.965   6.175  10.694  0.00  0.00    +0.000 A 
ATOM      4  C   UNL     1      46.755   6.935  11.561  0.00  0.00    +0.000 A 
ATOM      5  C   UNL     1      46.989   6.505  12.873  0.00  0.00    +0.000 A 
ATOM      6  C   UNL     1      46.357   5.339  13.322  0.00  0.00    +0.000 A 
ATOM      7  C   UNL     1      45.568   4.577  12.455  0.00  0.00    +0.000 A 
BRANCH   2   8
ATOM      8  C   UNL     1      44.583   4.122  10.167  0.00  0.00    +0.000 C 
BRANCH   8  13
ATOM      9  C   UNL     1      46.365   1.677   7.826  0.00  0.00    +0.000 A 
ATOM     10  C   UNL     1      46.847   2.539   6.836  0.00  0.00    +0.000 A 
ATOM     11  C   UNL     1      46.620   3.911   6.937  0.00  0.00    +0.000 A 
ATOM     12  C   UNL     1      45.900   4.425   8.022  0.00  0.00    +0.000 A 
ATOM     13  C   UNL     1      45.391   3.571   9.012  0.00  0.00    +0.000 A 
ATOM     14  C   UNL     1      45.643   2.193   8.910  0.00  0.00    +0.000 A 
BRANCH   9  16
ATOM     15  N   UNL     1      46.799  -0.876   7.656  0.00  0.00    +0.000 NA
ATOM     16  C   UNL     1      46.603   0.268   7.730  0.00  0.00    +0.000 C 
ENDBRANCH   9  16
ENDBRANCH   8  13
ENDBRANCH   2   8
ENDBRANCH   1   5
BRANCH   1  17
ATOM     17  N   UNL     1      47.858   6.762  15.134  0.00  0.00    +0.000 N 
ATOM     18  C   UNL     1      49.013   6.468  15.810  0.00  0.00    +0.000 C 
ATOM     19  O   UNL     1      50.124   6.673  15.325  0.00  0.00    +0.000 OA
ATOM     20  H   UNL     1      46.978   6.367  15.450  0.00  0.00    +0.000 HD
BRANCH  18  21
ATOM     21  C   UNL     1      48.855   5.962  17.177  0.00  0.00    +0.000 A 
ATOM     22  C   UNL     1      49.158   4.638  17.463  0.00  0.00    +0.000 A 
ATOM     23  S   UNL     1      49.001   4.243  19.115  0.00  0.00    +0.000 S 
ATOM     24  C   UNL     1      48.463   5.812  19.495  0.00  0.00    +0.000 A 
ATOM     25  N   UNL     1      48.135   6.150  20.771  0.00  0.00    +0.000 NA
ATOM     26  C   UNL     1      47.708   7.361  20.909  0.00  0.00    +0.000 A 
ATOM     27  N   UNL     1      47.580   8.265  19.886  0.00  0.00    +0.000 N 
ATOM     28  C   UNL     1      47.929   7.980  18.589  0.00  0.00    +0.000 A 
ATOM     29  O   UNL     1      47.842   8.824  17.704  0.00  0.00    +0.000 OA
ATOM     30  C   UNL     1      48.412   6.627  18.379  0.00  0.00    +0.000 A 
ATOM     31  H   UNL     1      47.240   9.199  20.059  0.00  0.00    +0.000 HD
ENDBRANCH  18  21
ENDBRANCH   1  17
TORSDOF 6
ENDMDL
MODEL 3
REMARK VINA RESULT:    -7.940      1.275      1.839
REMARK INTER + INTRA:         -11.400
REMARK INTER:                 -10.283
REMARK INTRA:                  -1.117
REMARK UNBOUND:                -0.676
REMARK  Name = 
REMARK  6 active torsions:
REMARK  status: ('A' for Active; 'I' for Inactive)
REMARK    1  A    between atoms: C_2  and  C_3
REMARK    2  A    between atoms: C_7  and  C_8
REMARK    3  A    between atoms: C_8  and  C_9
REMARK    4  A    between atoms: C_12  and  C_13
REMARK    5  A    between atoms: C_13  and  N_14
REMARK    6  A    between atoms: C_15  and  C_17
REMARK                            x       y       z     vdW  Elec       q    Type
REMARK                         _______ _______ _______ _____ _____    ______ ____
ROOT
ATOM      1  C   UNL     1      47.458   8.387  13.709  0.00  0.00    +0.000 C 
ENDROOT
BRANCH   1   5
ATOM      2  C   UNL     1      44.722   6.178  11.181  0.00  0.00    +0.000 A 
ATOM      3  C   UNL     1      45.857   5.555  11.717  0.00  0.00    +0.000 A 
ATOM      4  C   UNL     1      46.756   6.273  12.512  0.00  0.00    +0.000 A 
ATOM      5  C   UNL     1      46.530   7.624  12.800  0.00  0.00    +0.000 A 
ATOM      6  C   UNL     1      45.427   8.262  12.218  0.00  0.00    +0.000 A 
ATOM      7  C   UNL     1      44.527   7.544  11.424  0.00  0.00    +0.000 A 
BRANCH   2   8
ATOM      8  C   UNL     1      43.716   5.385  10.380  0.00  0.00    +0.000 C 
BRANCH   8  13
ATOM      9  C   UNL     1      45.594   3.192   7.871  0.00  0.00    +0.000 A 
ATOM     10  C   UNL     1      45.421   1.921   8.426  0.00  0.00    +0.000 A 
ATOM     11  C   UNL     1      44.676   1.768   9.595  0.00  0.00    +0.000 A 
ATOM     12  C   UNL     1      44.113   2.886  10.219  0.00  0.00    +0.000 A 
ATOM     13  C   UNL     1      44.296   4.171   9.687  0.00  0.00    +0.000 A 
ATOM     14  C   UNL     1      45.031   4.310   8.498  0.00  0.00    +0.000 A 
BRANCH   9  16
ATOM     15  N   UNL     1      46.966   3.479   5.686  0.00  0.00    +0.000 NA
ATOM     16  C   UNL     1      46.351   3.353   6.666  0.00  0.00    +0.000 C 
ENDBRANCH   9  16
ENDBRANCH   8  13
ENDBRANCH   2   8
ENDBRANCH   1   5
BRANCH   1  17
ATOM     17  N   UNL     1      47.807   7.618  14.874  0.00  0.00    +0.000 N 
ATOM     18  C   UNL     1      49.015   6.976  14.964  0.00  0.00    +0.000 C 
ATOM     19  O   UNL     1      49.867   7.060  14.082  0.00  0.00    +0.000 OA
ATOM     20  H   UNL     1      47.046   7.341  15.486  0.00  0.00    +0.000 HD
BRANCH  18  21
ATOM     21  C   UNL     1      49.269   6.240  16.207  0.00  0.00    +0.000 A 
ATOM     22  C   UNL     1      50.293   6.645  17.053  0.00  0.00    +0.000 A 
ATOM     23  S   UNL     1      50.390   5.732  18.491  0.00  0.00    +0.000 S 
ATOM     24  C   UNL     1      49.107   4.726  18.005  0.00  0.00    +0.000 A 
ATOM     25  N   UNL     1      48.681   3.704  18.793  0.00  0.00    +0.000 NA
ATOM     26  C   UNL     1      47.725   3.000  18.285  0.00  0.00    +0.000 A 
ATOM     27  N   UNL     1      47.155   3.228  17.058  0.00  0.00    +0.000 N 
ATOM     28  C   UNL     1      47.529   4.266  16.242  0.00  0.00    +0.000 A 
ATOM     29  O   UNL     1      46.971   4.468  15.168  0.00  0.00    +0.000 OA
ATOM     30  C   UNL     1      48.606   5.086  16.767  0.00  0.00    +0.000 A 
ATOM     31  H   UNL     1      46.410   2.640  16.716  0.00  0.00    +0.000 HD
ENDBRANCH  18  21
ENDBRANCH   1  17
TORSDOF 6
ENDMDL
MODEL 4
REMARK VINA RESULT:    -7.760      2.409      4.005
REMARK INTER + INTRA:         -11.157
REMARK INTER:                  -9.932
REMARK INTRA:                  -1.225
REMARK UNBOUND:                -0.676
REMARK  Name = 
REMARK  6 active torsions:
REMARK  status: ('A' for Active; 'I' for Inactive)
REMARK    1  A    between atoms: C_2  and  C_3
REMARK    2  A    between atoms: C_7  and  C_8
REMARK    3  A    between atoms: C_8  and  C_9
REMARK    4  A    between atoms: C_12  and  C_13
REMARK    5  A    between atoms: C_13  and  N_14
REMARK    6  A    between atoms: C_15  and  C_17
REMARK                            x       y       z     vdW  Elec       q    Type
REMARK                         _______ _______ _______ _____ _____    ______ ____
ROOT
ATOM      1  C   UNL     1      47.395   5.171  15.138  0.00  0.00    +0.000 C 
ENDROOT
BRANCH   1   5
ATOM      2  C   UNL     1      45.036   4.240  11.628  0.00  0.00    +0.000 A 
ATOM      3  C   UNL     1      45.160   5.562  12.071  0.00  0.00    +0.000 A 
ATOM      4  C   UNL     1      45.899   5.863  13.220  0.00  0.00    +0.000 A 
ATOM      5  C   UNL     1      46.542   4.849  13.938  0.00  0.00    +0.000 A 
ATOM      6  C   UNL     1      46.370   3.520  13.529  0.00  0.00    +0.000 A 
ATOM      7  C   UNL     1      45.632   3.219  12.380  0.00  0.00    +0.000 A 
BRANCH   2   8
ATOM      8  C   UNL     1      44.294   3.923  10.350  0.00  0.00    +0.000 C 
BRANCH   8  13
ATOM      9  C   UNL     1      46.281   1.719   7.936  0.00  0.00    +0.000 A 
ATOM     10  C   UNL     1      46.806   2.669   7.056  0.00  0.00    +0.000 A 
ATOM     11  C   UNL     1      46.540   4.024   7.256  0.00  0.00    +0.000 A 
ATOM     12  C   UNL     1      45.740   4.431   8.329  0.00  0.00    +0.000 A 
ATOM     13  C   UNL     1      45.188   3.488   9.209  0.00  0.00    +0.000 A 
ATOM     14  C   UNL     1      45.479   2.128   9.009  0.00  0.00    +0.000 A 
BRANCH   9  16
ATOM     15  N   UNL     1      46.784  -0.802   7.575  0.00  0.00    +0.000 NA
ATOM     16  C   UNL     1      46.558   0.327   7.739  0.00  0.00    +0.000 C 
ENDBRANCH   9  16
ENDBRANCH   8  13
ENDBRANCH   2   8
ENDBRANCH   1   5
BRANCH   1  17
ATOM     17  N   UNL     1      48.101   6.413  14.966  0.00  0.00    +0.000 N 
ATOM     18  C   UNL     1      49.308   6.633  15.576  0.00  0.00    +0.000 C 
ATOM     19  O   UNL     1      49.861   5.774  16.260  0.00  0.00    +0.000 OA
ATOM     20  H   UNL     1      47.565   7.202  14.618  0.00  0.00    +0.000 HD
BRANCH  18  21
ATOM     21  C   UNL     1      49.945   7.927  15.311  0.00  0.00    +0.000 A 
ATOM     22  C   UNL     1      50.347   8.729  16.370  0.00  0.00    +0.000 A 
ATOM     23  S   UNL     1      51.146  10.155  15.881  0.00  0.00    +0.000 S 
ATOM     24  C   UNL     1      50.928   9.778  14.236  0.00  0.00    +0.000 A 
ATOM     25  N   UNL     1      51.378  10.612  13.260  0.00  0.00    +0.000 NA
ATOM     26  C   UNL     1      51.111  10.221  12.059  0.00  0.00    +0.000 A 
ATOM     27  N   UNL     1      50.436   9.070  11.744  0.00  0.00    +0.000 N 
ATOM     28  C   UNL     1      49.991   8.182  12.692  0.00  0.00    +0.000 A 
ATOM     29  O   UNL     1      49.426   7.140  12.377  0.00  0.00    +0.000 OA
ATOM     30  C   UNL     1      50.261   8.579  14.062  0.00  0.00    +0.000 A 
ATOM     31  H   UNL     1      50.259   8.819  10.783  0.00  0.00    +0.000 HD
ENDBRANCH  18  21
ENDBRANCH   1  17
TORSDOF 6
ENDMDL
MODEL 5
REMARK VINA RESULT:    -7.382      2.756      3.533
REMARK INTER + INTRA:         -10.647
REMARK INTER:                  -9.573
REMARK INTRA:                  -1.074
REMARK UNBOUND:                -0.676
REMARK  Name = 
REMARK  6 active torsions:
REMARK  status: ('A' for Active; 'I' for Inactive)
REMARK    1  A    between atoms: C_2  and  C_3
REMARK    2  A    between atoms: C_7  and  C_8
REMARK    3  A    between atoms: C_8  and  C_9
REMARK    4  A    between atoms: C_12  and  C_13
REMARK    5  A    between atoms: C_13  and  N_14
REMARK    6  A    between atoms: C_15  and  C_17
REMARK                            x       y       z     vdW  Elec       q    Type
REMARK                         _______ _______ _______ _____ _____    ______ ____
ROOT
ATOM      1  C   UNL     1      48.705   6.669  14.326  0.00  0.00    +0.000 C 
ENDROOT
BRANCH   1   5
ATOM      2  C   UNL     1      45.435   5.777  11.631  0.00  0.00    +0.000 A 
ATOM      3  C   UNL     1      46.232   6.912  11.432  0.00  0.00    +0.000 A 
ATOM      4  C   UNL     1      47.272   7.217  12.315  0.00  0.00    +0.000 A 
ATOM      5  C   UNL     1      47.546   6.384  13.407  0.00  0.00    +0.000 A 
ATOM      6  C   UNL     1      46.713   5.282  13.639  0.00  0.00    +0.000 A 
ATOM      7  C   UNL     1      45.673   4.976  12.756  0.00  0.00    +0.000 A 
BRANCH   2   8
ATOM      8  C   UNL     1      44.355   5.412  10.638  0.00  0.00    +0.000 C 
BRANCH   8  13
ATOM      9  C   UNL     1      45.700   3.129   7.879  0.00  0.00    +0.000 A 
ATOM     10  C   UNL     1      45.278   1.874   8.324  0.00  0.00    +0.000 A 
ATOM     11  C   UNL     1      44.537   1.765   9.501  0.00  0.00    +0.000 A 
ATOM     12  C   UNL     1      44.226   2.910  10.242  0.00  0.00    +0.000 A 
ATOM     13  C   UNL     1      44.661   4.176   9.820  0.00  0.00    +0.000 A 
ATOM     14  C   UNL     1      45.390   4.275   8.623  0.00  0.00    +0.000 A 
BRANCH   9  16
ATOM     15  N   UNL     1      47.066   3.336   5.682  0.00  0.00    +0.000 NA
ATOM     16  C   UNL     1      46.454   3.246   6.667  0.00  0.00    +0.000 C 
ENDBRANCH   9  16
ENDBRANCH   8  13
ENDBRANCH   2   8
ENDBRANCH   1   5
BRANCH   1  17
ATOM     17  N   UNL     1      48.270   6.845  15.686  0.00  0.00    +0.000 N 
ATOM     18  C   UNL     1      48.921   6.230  16.724  0.00  0.00    +0.000 C 
ATOM     19  O   UNL     1      49.922   5.538  16.550  0.00  0.00    +0.000 OA
ATOM     20  H   UNL     1      47.330   7.200  15.825  0.00  0.00    +0.000 HD
BRANCH  18  21
ATOM     21  C   UNL     1      48.401   6.500  18.068  0.00  0.00    +0.000 A 
ATOM     22  C   UNL     1      48.243   5.458  18.971  0.00  0.00    +0.000 A 
ATOM     23  S   UNL     1      47.712   5.962  20.511  0.00  0.00    +0.000 S 
ATOM     24  C   UNL     1      47.616   7.585  20.007  0.00  0.00    +0.000 A 
ATOM     25  N   UNL     1      47.205   8.561  20.860  0.00  0.00    +0.000 NA
ATOM     26  C   UNL     1      47.144   9.739  20.334  0.00  0.00    +0.000 A 
ATOM     27  N   UNL     1      47.459  10.029  19.031  0.00  0.00    +0.000 N 
ATOM     28  C   UNL     1      47.910   9.084  18.143  0.00  0.00    +0.000 A 
ATOM     29  O   UNL     1      48.223   9.384  16.996  0.00  0.00    +0.000 OA
ATOM     30  C   UNL     1      47.991   7.740  18.684  0.00  0.00    +0.000 A 
ATOM     31  H   UNL     1      47.391  10.973  18.680  0.00  0.00    +0.000 HD
ENDBRANCH  18  21
ENDBRANCH   1  17
TORSDOF 6
ENDMDL
MODEL 6
REMARK VINA RESULT:    -7.288      4.024      8.819
REMARK INTER + INTRA:         -10.521
REMARK INTER:                  -9.293
REMARK INTRA:                  -1.227
REMARK UNBOUND:                -0.676
REMARK  Name = 
REMARK  6 active torsions:
REMARK  status: ('A' for Active; 'I' for Inactive)
REMARK    1  A    between atoms: C_2  and  C_3
REMARK    2  A    between atoms: C_7  and  C_8
REMARK    3  A    between atoms: C_8  and  C_9
REMARK    4  A    between atoms: C_12  and  C_13
REMARK    5  A    between atoms: C_13  and  N_14
REMARK    6  A    between atoms: C_15  and  C_17
REMARK                            x       y       z     vdW  Elec       q    Type
REMARK                         _______ _______ _______ _____ _____    ______ ____
ROOT
ATOM      1  C   UNL     1      47.150   3.351  16.902  0.00  0.00    +0.000 C 
ENDROOT
BRANCH   1   5
ATOM      2  C   UNL     1      51.217   3.942  18.265  0.00  0.00    +0.000 A 
ATOM      3  C   UNL     1      50.886   2.836  17.472  0.00  0.00    +0.000 A 
ATOM      4  C   UNL     1      49.568   2.628  17.052  0.00  0.00    +0.000 A 
ATOM      5  C   UNL     1      48.559   3.532  17.404  0.00  0.00    +0.000 A 
ATOM      6  C   UNL     1      48.878   4.605  18.245  0.00  0.00    +0.000 A 
ATOM      7  C   UNL     1      50.196   4.814  18.664  0.00  0.00    +0.000 A 
BRANCH   2   8
ATOM      8  C   UNL     1      52.652   4.203  18.661  0.00  0.00    +0.000 C 
BRANCH   8  13
ATOM      9  C   UNL     1      53.818   6.467  15.807  0.00  0.00    +0.000 A 
ATOM     10  C   UNL     1      55.090   5.953  15.543  0.00  0.00    +0.000 A 
ATOM     11  C   UNL     1      55.562   4.859  16.268  0.00  0.00    +0.000 A 
ATOM     12  C   UNL     1      54.769   4.284  17.267  0.00  0.00    +0.000 A 
ATOM     13  C   UNL     1      53.498   4.802  17.559  0.00  0.00    +0.000 A 
ATOM     14  C   UNL     1      53.025   5.892  16.808  0.00  0.00    +0.000 A 
BRANCH   9  16
ATOM     15  N   UNL     1      52.927   8.492  14.449  0.00  0.00    +0.000 NA
ATOM     16  C   UNL     1      53.325   7.586  15.060  0.00  0.00    +0.000 C 
ENDBRANCH   9  16
ENDBRANCH   8  13
ENDBRANCH   2   8
ENDBRANCH   1   5
BRANCH   1  17
ATOM     17  N   UNL     1      46.794   4.371  15.950  0.00  0.00    +0.000 N 
ATOM     18  C   UNL     1      46.934   4.163  14.603  0.00  0.00    +0.000 C 
ATOM     19  O   UNL     1      47.327   3.092  14.144  0.00  0.00    +0.000 OA
ATOM     20  H   UNL     1      46.704   5.318  16.304  0.00  0.00    +0.000 HD
BRANCH  18  21
ATOM     21  C   UNL     1      46.519   5.265  13.729  0.00  0.00    +0.000 A 
ATOM     22  C   UNL     1      47.376   6.335  13.512  0.00  0.00    +0.000 A 
ATOM     23  S   UNL     1      46.771   7.481  12.403  0.00  0.00    +0.000 S 
ATOM     24  C   UNL     1      45.316   6.617  12.221  0.00  0.00    +0.000 A 
ATOM     25  N   UNL     1      44.330   7.069  11.401  0.00  0.00    +0.000 NA
ATOM     26  C   UNL     1      43.268   6.335  11.387  0.00  0.00    +0.000 A 
ATOM     27  N   UNL     1      43.103   5.187  12.119  0.00  0.00    +0.000 N 
ATOM     28  C   UNL     1      44.081   4.674  12.935  0.00  0.00    +0.000 A 
ATOM     29  O   UNL     1      43.918   3.623  13.544  0.00  0.00    +0.000 OA
ATOM     30  C   UNL     1      45.296   5.467  12.989  0.00  0.00    +0.000 A 
ATOM     31  H   UNL     1      42.247   4.657  12.064  0.00  0.00    +0.000 HD
ENDBRANCH  18  21
ENDBRANCH   1  17
TORSDOF 6
ENDMDL
MODEL 7
REMARK VINA RESULT:    -7.265      4.350      9.183
REMARK INTER + INTRA:         -10.489
REMARK INTER:                  -9.752
REMARK INTRA:                  -0.737
REMARK UNBOUND:                -0.676
REMARK  Name = 
REMARK  6 active torsions:
REMARK  status: ('A' for Active; 'I' for Inactive)
REMARK    1  A    between atoms: C_2  and  C_3
REMARK    2  A    between atoms: C_7  and  C_8
REMARK    3  A    between atoms: C_8  and  C_9
REMARK    4  A    between atoms: C_12  and  C_13
REMARK    5  A    between atoms: C_13  and  N_14
REMARK    6  A    between atoms: C_15  and  C_17
REMARK                            x       y       z     vdW  Elec       q    Type
REMARK                         _______ _______ _______ _____ _____    ______ ____
ROOT
ATOM      1  C   UNL     1      47.254   3.470  16.797  0.00  0.00    +0.000 C 
ENDROOT
BRANCH   1   5
ATOM      2  C   UNL     1      51.477   3.982  17.605  0.00  0.00    +0.000 A 
ATOM      3  C   UNL     1      50.933   2.701  17.447  0.00  0.00    +0.000 A 
ATOM      4  C   UNL     1      49.565   2.531  17.212  0.00  0.00    +0.000 A 
ATOM      5  C   UNL     1      48.717   3.640  17.115  0.00  0.00    +0.000 A 
ATOM      6  C   UNL     1      49.250   4.917  17.331  0.00  0.00    +0.000 A 
ATOM      7  C   UNL     1      50.618   5.088  17.564  0.00  0.00    +0.000 A 
BRANCH   2   8
ATOM      8  C   UNL     1      52.966   4.168  17.790  0.00  0.00    +0.000 C 
BRANCH   8  13
ATOM      9  C   UNL     1      54.619   0.719  17.848  0.00  0.00    +0.000 A 
ATOM     10  C   UNL     1      55.075   0.649  19.167  0.00  0.00    +0.000 A 
ATOM     11  C   UNL     1      54.826   1.704  20.046  0.00  0.00    +0.000 A 
ATOM     12  C   UNL     1      54.132   2.835  19.605  0.00  0.00    +0.000 A 
ATOM     13  C   UNL     1      53.687   2.931  18.278  0.00  0.00    +0.000 A 
ATOM     14  C   UNL     1      53.926   1.854  17.408  0.00  0.00    +0.000 A 
BRANCH   9  16
ATOM     15  N   UNL     1      55.066  -1.241  16.207  0.00  0.00    +0.000 NA
ATOM     16  C   UNL     1      54.865  -0.364  16.944  0.00  0.00    +0.000 C 
ENDBRANCH   9  16
ENDBRANCH   8  13
ENDBRANCH   2   8
ENDBRANCH   1   5
BRANCH   1  17
ATOM     17  N   UNL     1      46.803   4.450  15.845  0.00  0.00    +0.000 N 
ATOM     18  C   UNL     1      46.859   4.207  14.497  0.00  0.00    +0.000 C 
ATOM     19  O   UNL     1      47.254   3.135  14.042  0.00  0.00    +0.000 OA
ATOM     20  H   UNL     1      46.707   5.404  16.178  0.00  0.00    +0.000 HD
BRANCH  18  21
ATOM     21  C   UNL     1      46.352   5.269  13.623  0.00  0.00    +0.000 A 
ATOM     22  C   UNL     1      47.130   6.392  13.377  0.00  0.00    +0.000 A 
ATOM     23  S   UNL     1      46.424   7.484  12.272  0.00  0.00    +0.000 S 
ATOM     24  C   UNL     1      45.026   6.523  12.132  0.00  0.00    +0.000 A 
ATOM     25  N   UNL     1      43.994   6.900  11.331  0.00  0.00    +0.000 NA
ATOM     26  C   UNL     1      42.983   6.097  11.349  0.00  0.00    +0.000 A 
ATOM     27  N   UNL     1      42.912   4.948  12.094  0.00  0.00    +0.000 N 
ATOM     28  C   UNL     1      43.941   4.509  12.891  0.00  0.00    +0.000 A 
ATOM     29  O   UNL     1      43.862   3.456  13.514  0.00  0.00    +0.000 OA
ATOM     30  C   UNL     1      45.101   5.382  12.911  0.00  0.00    +0.000 A 
ATOM     31  H   UNL     1      42.092   4.361  12.064  0.00  0.00    +0.000 HD
ENDBRANCH  18  21
ENDBRANCH   1  17
TORSDOF 6
ENDMDL
MODEL 8
REMARK VINA RESULT:    -7.193      2.528      3.406
REMARK INTER + INTRA:         -10.391
REMARK INTER:                  -9.464
REMARK INTRA:                  -0.927
REMARK UNBOUND:                -0.676
REMARK  Name = 
REMARK  6 active torsions:
REMARK  status: ('A' for Active; 'I' for Inactive)
REMARK    1  A    between atoms: C_2  and  C_3
REMARK    2  A    between atoms: C_7  and  C_8
REMARK    3  A    between atoms: C_8  and  C_9
REMARK    4  A    between atoms: C_12  and  C_13
REMARK    5  A    between atoms: C_13  and  N_14
REMARK    6  A    between atoms: C_15  and  C_17
REMARK                            x       y       z     vdW  Elec       q    Type
REMARK                         _______ _______ _______ _____ _____    ______ ____
ROOT
ATOM      1  C   UNL     1      47.067   4.619  15.188  0.00  0.00    +0.000 C 
ENDROOT
BRANCH   1   5
ATOM      2  C   UNL     1      45.312   4.334  11.240  0.00  0.00    +0.000 A 
ATOM      3  C   UNL     1      45.361   3.214  12.079  0.00  0.00    +0.000 A 
ATOM      4  C   UNL     1      45.950   3.296  13.344  0.00  0.00    +0.000 A 
ATOM      5  C   UNL     1      46.489   4.504  13.801  0.00  0.00    +0.000 A 
ATOM      6  C   UNL     1      46.492   5.609  12.941  0.00  0.00    +0.000 A 
ATOM      7  C   UNL     1      45.902   5.528  11.676  0.00  0.00    +0.000 A 
BRANCH   2   8
ATOM      8  C   UNL     1      44.614   4.262   9.901  0.00  0.00    +0.000 C 
BRANCH   8  13
ATOM      9  C   UNL     1      46.421   1.709   7.699  0.00  0.00    +0.000 A 
ATOM     10  C   UNL     1      46.977   2.531   6.715  0.00  0.00    +0.000 A 
ATOM     11  C   UNL     1      46.792   3.913   6.777  0.00  0.00    +0.000 A 
ATOM     12  C   UNL     1      46.040   4.474   7.814  0.00  0.00    +0.000 A 
ATOM     13  C   UNL     1      45.456   3.660   8.797  0.00  0.00    +0.000 A 
ATOM     14  C   UNL     1      45.666   2.272   8.736  0.00  0.00    +0.000 A 
BRANCH   9  16
ATOM     15  N   UNL     1      46.776  -0.860   7.603  0.00  0.00    +0.000 NA
ATOM     16  C   UNL     1      46.615   0.291   7.644  0.00  0.00    +0.000 C 
ENDBRANCH   9  16
ENDBRANCH   8  13
ENDBRANCH   2   8
ENDBRANCH   1   5
BRANCH   1  17
ATOM     17  N   UNL     1      47.721   5.885  15.385  0.00  0.00    +0.000 N 
ATOM     18  C   UNL     1      48.858   5.985  16.144  0.00  0.00    +0.000 C 
ATOM     19  O   UNL     1      49.392   5.002  16.654  0.00  0.00    +0.000 OA
ATOM     20  H   UNL     1      47.178   6.719  15.185  0.00  0.00    +0.000 HD
BRANCH  18  21
ATOM     21  C   UNL     1      49.449   7.322  16.256  0.00  0.00    +0.000 A 
ATOM     22  C   UNL     1      50.295   7.790  15.260  0.00  0.00    +0.000 A 
ATOM     23  S   UNL     1      50.821   9.394  15.508  0.00  0.00    +0.000 S 
ATOM     24  C   UNL     1      49.986   9.497  16.988  0.00  0.00    +0.000 A 
ATOM     25  N   UNL     1      50.029  10.629  17.739  0.00  0.00    +0.000 NA
ATOM     26  C   UNL     1      49.381  10.555  18.854  0.00  0.00    +0.000 A 
ATOM     27  N   UNL     1      48.691   9.450  19.284  0.00  0.00    +0.000 N 
ATOM     28  C   UNL     1      48.592   8.297  18.545  0.00  0.00    +0.000 A 
ATOM     29  O   UNL     1      47.933   7.340  18.940  0.00  0.00    +0.000 OA
ATOM     30  C   UNL     1      49.309   8.327  17.283  0.00  0.00    +0.000 A 
ATOM     31  H   UNL     1      48.203   9.455  20.167  0.00  0.00    +0.000 HD
ENDBRANCH  18  21
ENDBRANCH   1  17
TORSDOF 6
ENDMDL
MODEL 9
REMARK VINA RESULT:    -7.179      4.828      7.375
REMARK INTER + INTRA:         -10.373
REMARK INTER:                  -9.326
REMARK INTRA:                  -1.047
REMARK UNBOUND:                -0.676
REMARK  Name = 
REMARK  6 active torsions:
REMARK  status: ('A' for Active; 'I' for Inactive)
REMARK    1  A    between atoms: C_2  and  C_3
REMARK    2  A    between atoms: C_7  and  C_8
REMARK    3  A    between atoms: C_8  and  C_9
REMARK    4  A    between atoms: C_12  and  C_13
REMARK    5  A    between atoms: C_13  and  N_14
REMARK    6  A    between atoms: C_15  and  C_17
REMARK                            x       y       z     vdW  Elec       q    Type
REMARK                         _______ _______ _______ _____ _____    ______ ____
ROOT
ATOM      1  C   UNL     1      46.593   8.114  13.072  0.00  0.00    +0.000 C 
ENDROOT
BRANCH   1   5
ATOM      2  C   UNL     1      50.404   8.962  11.198  0.00  0.00    +0.000 A 
ATOM      3  C   UNL     1      50.074   7.655  11.580  0.00  0.00    +0.000 A 
ATOM      4  C   UNL     1      48.855   7.382  12.209  0.00  0.00    +0.000 A 
ATOM      5  C   UNL     1      47.935   8.409  12.455  0.00  0.00    +0.000 A 
ATOM      6  C   UNL     1      48.289   9.723  12.126  0.00  0.00    +0.000 A 
ATOM      7  C   UNL     1      49.507   9.997  11.496  0.00  0.00    +0.000 A 
BRANCH   2   8
ATOM      8  C   UNL     1      51.690   9.245  10.458  0.00  0.00    +0.000 C 
BRANCH   8  13
ATOM      9  C   UNL     1      53.231   6.171   8.782  0.00  0.00    +0.000 A 
ATOM     10  C   UNL     1      54.171   5.774   9.735  0.00  0.00    +0.000 A 
ATOM     11  C   UNL     1      54.292   6.482  10.931  0.00  0.00    +0.000 A 
ATOM     12  C   UNL     1      53.480   7.596  11.171  0.00  0.00    +0.000 A 
ATOM     13  C   UNL     1      52.546   8.020  10.214  0.00  0.00    +0.000 A 
ATOM     14  C   UNL     1      52.420   7.287   9.023  0.00  0.00    +0.000 A 
BRANCH   9  16
ATOM     15  N   UNL     1      52.995   4.852   6.558  0.00  0.00    +0.000 NA
ATOM     16  C   UNL     1      53.099   5.442   7.556  0.00  0.00    +0.000 C 
ENDBRANCH   9  16
ENDBRANCH   8  13
ENDBRANCH   2   8
ENDBRANCH   1   5
BRANCH   1  17
ATOM     17  N   UNL     1      46.128   6.798  12.721  0.00  0.00    +0.000 N 
ATOM     18  C   UNL     1      45.067   6.624  11.871  0.00  0.00    +0.000 C 
ATOM     19  O   UNL     1      44.493   7.572  11.339  0.00  0.00    +0.000 OA
ATOM     20  H   UNL     1      46.420   6.033  13.322  0.00  0.00    +0.000 HD
BRANCH  18  21
ATOM     21  C   UNL     1      44.696   5.237  11.570  0.00  0.00    +0.000 A 
ATOM     22  C   UNL     1      44.003   4.487  12.509  0.00  0.00    +0.000 A 
ATOM     23  S   UNL     1      43.578   2.929  11.961  0.00  0.00    +0.000 S 
ATOM     24  C   UNL     1      44.360   3.181  10.471  0.00  0.00    +0.000 A 
ATOM     25  N   UNL     1      44.384   2.210   9.519  0.00  0.00    +0.000 NA
ATOM     26  C   UNL     1      45.043   2.522   8.454  0.00  0.00    +0.000 A 
ATOM     27  N   UNL     1      45.680   3.720   8.253  0.00  0.00    +0.000 N 
ATOM     28  C   UNL     1      45.655   4.742   9.170  0.00  0.00    +0.000 A 
ATOM     29  O   UNL     1      46.200   5.817   8.943  0.00  0.00    +0.000 OA
ATOM     30  C   UNL     1      44.930   4.438  10.390  0.00  0.00    +0.000 A 
ATOM     31  H   UNL     1      46.179   3.904   7.396  0.00  0.00    +0.000 HD
ENDBRANCH  18  21
ENDBRANCH   1  17
TORSDOF 6
ENDMDL
