MODEL 1
REMARK VINA RESULT:    -7.944      0.000      0.000
REMARK INTER + INTRA:         -12.616
REMARK INTER:                 -11.195
REMARK INTRA:                  -1.421
REMARK UNBOUND:                -1.421
REMARK  Name = 
REMARK  8 active torsions:
REMARK  status: ('A' for Active; 'I' for Inactive)
REMARK    1  A    between atoms: C_1  and  O_2
REMARK    2  A    between atoms: O_2  and  C_3
REMARK    3  A    between atoms: C_10  and  C_11
REMARK    4  A    between atoms: N_13  and  C_14
REMARK    5  A    between atoms: C_14  and  C_15
REMARK    6  A    between atoms: C_18  and  N_19
REMARK    7  A    between atoms: N_19  and  C_20
REMARK    8  A    between atoms: C_20  and  C_21
REMARK                            x       y       z     vdW  Elec       q    Type
REMARK                         _______ _______ _______ _____ _____    ______ ____
ROOT
ATOM      1  C   UNL     1      46.888   7.948  13.254  0.00  0.00    +0.000 C 
ENDROOT
BRANCH   1   2
ATOM      2  C   UNL     1      46.154   7.019  12.320  0.00  0.00    +0.000 A 
ATOM      3  C   UNL     1      44.904   6.495  12.670  0.00  0.00    +0.000 A 
ATOM      4  C   UNL     1      44.199   5.669  11.784  0.00  0.00    +0.000 A 
ATOM      5  C   UNL     1      44.726   5.316  10.538  0.00  0.00    +0.000 A 
ATOM      6  C   UNL     1      45.992   5.824  10.207  0.00  0.00    +0.000 A 
ATOM      7  C   UNL     1      46.705   6.651  11.088  0.00  0.00    +0.000 A 
BRANCH   5   8
ATOM      8  N   UNL     1      44.022   4.575   9.576  0.00  0.00    +0.000 N 
ATOM      9  H   UNL     1      43.977   5.074   8.689  0.00  0.00    +0.000 HD
BRANCH   8  10
ATOM     10  C   UNL     1      44.209   3.118   9.488  0.00  0.00    +0.000 C 
BRANCH  10  11
ATOM     11  C   UNL     1      45.500   2.734   8.739  0.00  0.00    +0.000 C 
ATOM     12  C   UNL     1      45.629   3.509   7.424  0.00  0.00    +0.000 C 
ATOM     13  C   UNL     1      46.867   3.083   6.645  0.00  0.00    +0.000 C 
ATOM     14  O   UNL     1      46.865   1.677   6.409  0.00  0.00    +0.000 OA
ATOM     15  C   UNL     1      46.884   0.930   7.624  0.00  0.00    +0.000 C 
ATOM     16  C   UNL     1      45.625   1.220   8.441  0.00  0.00    +0.000 C 
ENDBRANCH  10  11
ENDBRANCH   8  10
ENDBRANCH   5   8
ENDBRANCH   1   2
BRANCH   1  19
ATOM     17  C   UNL     1      48.661   6.899  14.606  0.00  0.00    +0.000 C 
ATOM     18  O   UNL     1      49.522   7.152  13.755  0.00  0.00    +0.000 OA
ATOM     19  N   UNL     1      47.358   7.259  14.427  0.00  0.00    +0.000 N 
ATOM     20  H   UNL     1      46.657   6.944  15.084  0.00  0.00    +0.000 HD
BRANCH  17  28
ATOM     21  C   UNL     1      47.249   4.248  16.248  0.00  0.00    +0.000 A 
ATOM     22  N   UNL     1      46.896   3.246  17.073  0.00  0.00    +0.000 NA
ATOM     23  C   UNL     1      47.635   3.043  18.161  0.00  0.00    +0.000 A 
ATOM     24  N   UNL     1      48.699   3.744  18.547  0.00  0.00    +0.000 NA
ATOM     25  C   UNL     1      49.016   4.734  17.699  0.00  0.00    +0.000 A 
ATOM     26  S   UNL     1      50.354   5.730  18.021  0.00  0.00    +0.000 S 
ATOM     27  C   UNL     1      50.091   6.632  16.604  0.00  0.00    +0.000 A 
ATOM     28  C   UNL     1      49.002   6.197  15.855  0.00  0.00    +0.000 A 
ATOM     29  C   UNL     1      48.358   5.067  16.516  0.00  0.00    +0.000 A 
BRANCH  21  31
ATOM     30  C   UNL     1      47.085   3.601  14.026  0.00  0.00    +0.000 C 
ATOM     31  O   UNL     1      46.530   4.382  15.082  0.00  0.00    +0.000 OA
ENDBRANCH  21  31
ENDBRANCH  17  28
ENDBRANCH   1  19
TORSDOF 7
ENDMDL
MODEL 2
REMARK VINA RESULT:    -7.437      2.097      2.920
REMARK INTER + INTRA:         -11.901
REMARK INTER:                 -10.881
REMARK INTRA:                  -1.020
REMARK UNBOUND:                -1.421
REMARK  Name = 
REMARK  8 active torsions:
REMARK  status: ('A' for Active; 'I' for Inactive)
REMARK    1  A    between atoms: C_1  and  O_2
REMARK    2  A    between atoms: O_2  and  C_3
REMARK    3  A    between atoms: C_10  and  C_11
REMARK    4  A    between atoms: N_13  and  C_14
REMARK    5  A    between atoms: C_14  and  C_15
REMARK    6  A    between atoms: C_18  and  N_19
REMARK    7  A    between atoms: N_19  and  C_20
REMARK    8  A    between atoms: C_20  and  C_21
REMARK                            x       y       z     vdW  Elec       q    Type
REMARK                         _______ _______ _______ _____ _____    ______ ____
ROOT
ATOM      1  C   UNL     1      47.485   6.873  13.521  0.00  0.00    +0.000 C 
ENDROOT
BRANCH   1   2
ATOM      2  C   UNL     1      46.675   6.035  12.563  0.00  0.00    +0.000 A 
ATOM      3  C   UNL     1      46.449   6.467  11.251  0.00  0.00    +0.000 A 
ATOM      4  C   UNL     1      45.738   5.668  10.345  0.00  0.00    +0.000 A 
ATOM      5  C   UNL     1      45.206   4.432  10.723  0.00  0.00    +0.000 A 
ATOM      6  C   UNL     1      45.414   4.019  12.049  0.00  0.00    +0.000 A 
ATOM      7  C   UNL     1      46.124   4.813  12.962  0.00  0.00    +0.000 A 
BRANCH   5   8
ATOM      8  N   UNL     1      44.573   3.551   9.832  0.00  0.00    +0.000 N 
ATOM      9  H   UNL     1      43.702   3.197  10.223  0.00  0.00    +0.000 HD
BRANCH   8  10
ATOM     10  C   UNL     1      44.559   3.848   8.390  0.00  0.00    +0.000 C 
BRANCH  10  11
ATOM     11  C   UNL     1      45.473   2.902   7.586  0.00  0.00    +0.000 C 
ATOM     12  C   UNL     1      45.861   1.671   8.412  0.00  0.00    +0.000 C 
ATOM     13  C   UNL     1      46.821   0.768   7.648  0.00  0.00    +0.000 C 
ATOM     14  O   UNL     1      47.980   1.487   7.231  0.00  0.00    +0.000 OA
ATOM     15  C   UNL     1      47.655   2.559   6.348  0.00  0.00    +0.000 C 
ATOM     16  C   UNL     1      46.762   3.577   7.058  0.00  0.00    +0.000 C 
ENDBRANCH  10  11
ENDBRANCH   8  10
ENDBRANCH   5   8
ENDBRANCH   1   2
BRANCH   1  19
ATOM     17  C   UNL     1      48.666   6.204  15.576  0.00  0.00    +0.000 C 
ATOM     18  O   UNL     1      49.745   6.636  15.152  0.00  0.00    +0.000 OA
ATOM     19  N   UNL     1      47.526   6.288  14.834  0.00  0.00    +0.000 N 
ATOM     20  H   UNL     1      46.684   5.829  15.157  0.00  0.00    +0.000 HD
BRANCH  17  28
ATOM     21  C   UNL     1      48.108   7.468  18.708  0.00  0.00    +0.000 A 
ATOM     22  N   UNL     1      47.908   7.703  20.018  0.00  0.00    +0.000 NA
ATOM     23  C   UNL     1      47.918   6.663  20.848  0.00  0.00    +0.000 A 
ATOM     24  N   UNL     1      48.124   5.388  20.529  0.00  0.00    +0.000 NA
ATOM     25  C   UNL     1      48.322   5.196  19.216  0.00  0.00    +0.000 A 
ATOM     26  S   UNL     1      48.591   3.628  18.620  0.00  0.00    +0.000 S 
ATOM     27  C   UNL     1      48.729   4.202  17.024  0.00  0.00    +0.000 A 
ATOM     28  C   UNL     1      48.563   5.578  16.906  0.00  0.00    +0.000 A 
ATOM     29  C   UNL     1      48.327   6.170  18.219  0.00  0.00    +0.000 A 
BRANCH  21  31
ATOM     30  C   UNL     1      47.679   9.742  18.555  0.00  0.00    +0.000 C 
ATOM     31  O   UNL     1      48.001   8.543  17.855  0.00  0.00    +0.000 OA
ENDBRANCH  21  31
ENDBRANCH  17  28
ENDBRANCH   1  19
TORSDOF 7
ENDMDL
MODEL 3
REMARK VINA RESULT:    -7.376      1.932      3.521
REMARK INTER + INTRA:         -11.815
REMARK INTER:                 -10.586
REMARK INTRA:                  -1.229
REMARK UNBOUND:                -1.421
REMARK  Name = 
REMARK  8 active torsions:
REMARK  status: ('A' for Active; 'I' for Inactive)
REMARK    1  A    between atoms: C_1  and  O_2
REMARK    2  A    between atoms: O_2  and  C_3
REMARK    3  A    between atoms: C_10  and  C_11
REMARK    4  A    between atoms: N_13  and  C_14
REMARK    5  A    between atoms: C_14  and  C_15
REMARK    6  A    between atoms: C_18  and  N_19
REMARK    7  A    between atoms: N_19  and  C_20
REMARK    8  A    between atoms: C_20  and  C_21
REMARK                            x       y       z     vdW  Elec       q    Type
REMARK                         _______ _______ _______ _____ _____    ______ ____
ROOT
ATOM      1  C   UNL     1      46.666   4.297  14.636  0.00  0.00    +0.000 C 
ENDROOT
BRANCH   1   2
ATOM      2  C   UNL     1      46.158   4.496  13.230  0.00  0.00    +0.000 A 
ATOM      3  C   UNL     1      46.390   5.697  12.550  0.00  0.00    +0.000 A 
ATOM      4  C   UNL     1      45.961   5.867  11.227  0.00  0.00    +0.000 A 
ATOM      5  C   UNL     1      45.263   4.861  10.551  0.00  0.00    +0.000 A 
ATOM      6  C   UNL     1      45.011   3.670  11.250  0.00  0.00    +0.000 A 
ATOM      7  C   UNL     1      45.437   3.492  12.575  0.00  0.00    +0.000 A 
BRANCH   5   8
ATOM      8  N   UNL     1      44.898   4.941   9.198  0.00  0.00    +0.000 N 
ATOM      9  H   UNL     1      45.428   5.665   8.717  0.00  0.00    +0.000 HD
BRANCH   8  10
ATOM     10  C   UNL     1      44.642   3.711   8.430  0.00  0.00    +0.000 C 
BRANCH  10  11
ATOM     11  C   UNL     1      45.944   3.017   7.981  0.00  0.00    +0.000 C 
ATOM     12  C   UNL     1      46.250   3.311   6.510  0.00  0.00    +0.000 C 
ATOM     13  C   UNL     1      47.496   2.571   6.041  0.00  0.00    +0.000 C 
ATOM     14  O   UNL     1      47.374   1.168   6.265  0.00  0.00    +0.000 OA
ATOM     15  C   UNL     1      47.225   0.858   7.649  0.00  0.00    +0.000 C 
ATOM     16  C   UNL     1      45.940   1.483   8.194  0.00  0.00    +0.000 C 
ENDBRANCH  10  11
ENDBRANCH   8  10
ENDBRANCH   5   8
ENDBRANCH   1   2
BRANCH   1  19
ATOM     17  C   UNL     1      48.345   5.377  16.081  0.00  0.00    +0.000 C 
ATOM     18  O   UNL     1      48.632   4.305  16.626  0.00  0.00    +0.000 OA
ATOM     19  N   UNL     1      47.397   5.445  15.104  0.00  0.00    +0.000 N 
ATOM     20  H   UNL     1      47.102   6.348  14.755  0.00  0.00    +0.000 HD
BRANCH  17  28
ATOM     21  C   UNL     1      49.985   7.783  14.281  0.00  0.00    +0.000 A 
ATOM     22  N   UNL     1      50.663   8.848  13.817  0.00  0.00    +0.000 NA
ATOM     23  C   UNL     1      51.065   9.763  14.695  0.00  0.00    +0.000 A 
ATOM     24  N   UNL     1      50.885   9.739  16.013  0.00  0.00    +0.000 NA
ATOM     25  C   UNL     1      50.208   8.661  16.435  0.00  0.00    +0.000 A 
ATOM     26  S   UNL     1      49.872   8.465  18.089  0.00  0.00    +0.000 S 
ATOM     27  C   UNL     1      49.060   6.998  17.804  0.00  0.00    +0.000 A 
ATOM     28  C   UNL     1      49.014   6.633  16.463  0.00  0.00    +0.000 A 
ATOM     29  C   UNL     1      49.707   7.626  15.648  0.00  0.00    +0.000 A 
BRANCH  21  31
ATOM     30  C   UNL     1      49.623   7.402  12.021  0.00  0.00    +0.000 C 
ATOM     31  O   UNL     1      49.496   6.896  13.348  0.00  0.00    +0.000 OA
ENDBRANCH  21  31
ENDBRANCH  17  28
ENDBRANCH   1  19
TORSDOF 7
ENDMDL
MODEL 4
REMARK VINA RESULT:    -7.339      1.482      2.045
REMARK INTER + INTRA:         -11.763
REMARK INTER:                 -10.602
REMARK INTRA:                  -1.162
REMARK UNBOUND:                -1.421
REMARK  Name = 
REMARK  8 active torsions:
REMARK  status: ('A' for Active; 'I' for Inactive)
REMARK    1  A    between atoms: C_1  and  O_2
REMARK    2  A    between atoms: O_2  and  C_3
REMARK    3  A    between atoms: C_10  and  C_11
REMARK    4  A    between atoms: N_13  and  C_14
REMARK    5  A    between atoms: C_14  and  C_15
REMARK    6  A    between atoms: C_18  and  N_19
REMARK    7  A    between atoms: N_19  and  C_20
REMARK    8  A    between atoms: C_20  and  C_21
REMARK                            x       y       z     vdW  Elec       q    Type
REMARK                         _______ _______ _______ _____ _____    ______ ____
ROOT
ATOM      1  C   UNL     1      46.789   7.366  13.626  0.00  0.00    +0.000 C 
ENDROOT
BRANCH   1   2
ATOM      2  C   UNL     1      46.279   6.353  12.632  0.00  0.00    +0.000 A 
ATOM      3  C   UNL     1      45.883   5.078  13.051  0.00  0.00    +0.000 A 
ATOM      4  C   UNL     1      45.365   4.151  12.136  0.00  0.00    +0.000 A 
ATOM      5  C   UNL     1      45.252   4.453  10.776  0.00  0.00    +0.000 A 
ATOM      6  C   UNL     1      45.677   5.725  10.360  0.00  0.00    +0.000 A 
ATOM      7  C   UNL     1      46.197   6.658  11.269  0.00  0.00    +0.000 A 
BRANCH   5   8
ATOM      8  N   UNL     1      44.651   3.600   9.836  0.00  0.00    +0.000 N 
ATOM      9  H   UNL     1      43.760   3.246  10.179  0.00  0.00    +0.000 HD
BRANCH   8  10
ATOM     10  C   UNL     1      44.705   3.930   8.403  0.00  0.00    +0.000 C 
BRANCH  10  11
ATOM     11  C   UNL     1      45.502   2.890   7.590  0.00  0.00    +0.000 C 
ATOM     12  C   UNL     1      45.929   1.709   8.467  0.00  0.00    +0.000 C 
ATOM     13  C   UNL     1      46.777   0.713   7.687  0.00  0.00    +0.000 C 
ATOM     14  O   UNL     1      47.912   1.351   7.105  0.00  0.00    +0.000 OA
ATOM     15  C   UNL     1      47.537   2.366   6.176  0.00  0.00    +0.000 C 
ATOM     16  C   UNL     1      46.755   3.470   6.889  0.00  0.00    +0.000 C 
ENDBRANCH  10  11
ENDBRANCH   8  10
ENDBRANCH   5   8
ENDBRANCH   1   2
BRANCH   1  19
ATOM     17  C   UNL     1      48.696   7.676  15.155  0.00  0.00    +0.000 C 
ATOM     18  O   UNL     1      48.371   8.845  15.398  0.00  0.00    +0.000 OA
ATOM     19  N   UNL     1      47.970   6.899  14.302  0.00  0.00    +0.000 N 
ATOM     20  H   UNL     1      48.319   5.988  14.036  0.00  0.00    +0.000 HD
BRANCH  17  28
ATOM     21  C   UNL     1      49.147   4.876  17.072  0.00  0.00    +0.000 A 
ATOM     22  N   UNL     1      49.587   3.852  17.825  0.00  0.00    +0.000 NA
ATOM     23  C   UNL     1      50.887   3.796  18.106  0.00  0.00    +0.000 A 
ATOM     24  N   UNL     1      51.822   4.666  17.734  0.00  0.00    +0.000 NA
ATOM     25  C   UNL     1      51.343   5.672  16.988  0.00  0.00    +0.000 A 
ATOM     26  S   UNL     1      52.395   6.875  16.411  0.00  0.00    +0.000 S 
ATOM     27  C   UNL     1      51.121   7.689  15.631  0.00  0.00    +0.000 A 
ATOM     28  C   UNL     1      49.885   7.068  15.777  0.00  0.00    +0.000 A 
ATOM     29  C   UNL     1      50.020   5.867  16.595  0.00  0.00    +0.000 A 
BRANCH  21  31
ATOM     30  C   UNL     1      47.163   3.677  17.152  0.00  0.00    +0.000 C 
ATOM     31  O   UNL     1      47.818   4.866  16.715  0.00  0.00    +0.000 OA
ENDBRANCH  21  31
ENDBRANCH  17  28
ENDBRANCH   1  19
TORSDOF 7
ENDMDL
MODEL 5
REMARK VINA RESULT:    -7.253      1.629      2.074
REMARK INTER + INTRA:         -11.642
REMARK INTER:                 -10.642
REMARK INTRA:                  -1.000
REMARK UNBOUND:                -1.421
REMARK  Name = 
REMARK  8 active torsions:
REMARK  status: ('A' for Active; 'I' for Inactive)
REMARK    1  A    between atoms: C_1  and  O_2
REMARK    2  A    between atoms: O_2  and  C_3
REMARK    3  A    between atoms: C_10  and  C_11
REMARK    4  A    between atoms: N_13  and  C_14
REMARK    5  A    between atoms: C_14  and  C_15
REMARK    6  A    between atoms: C_18  and  N_19
REMARK    7  A    between atoms: N_19  and  C_20
REMARK    8  A    between atoms: C_20  and  C_21
REMARK                            x       y       z     vdW  Elec       q    Type
REMARK                         _______ _______ _______ _____ _____    ______ ____
ROOT
ATOM      1  C   UNL     1      47.950   6.842  13.425  0.00  0.00    +0.000 C 
ENDROOT
BRANCH   1   2
ATOM      2  C   UNL     1      46.984   5.796  12.928  0.00  0.00    +0.000 A 
ATOM      3  C   UNL     1      46.068   6.095  11.912  0.00  0.00    +0.000 A 
ATOM      4  C   UNL     1      45.201   5.112  11.416  0.00  0.00    +0.000 A 
ATOM      5  C   UNL     1      45.197   3.813  11.933  0.00  0.00    +0.000 A 
ATOM      6  C   UNL     1      46.099   3.530  12.971  0.00  0.00    +0.000 A 
ATOM      7  C   UNL     1      46.970   4.508  13.474  0.00  0.00    +0.000 A 
BRANCH   5   8
ATOM      8  N   UNL     1      44.421   2.768  11.408  0.00  0.00    +0.000 N 
ATOM      9  H   UNL     1      43.639   2.548  12.022  0.00  0.00    +0.000 HD
BRANCH   8  10
ATOM     10  C   UNL     1      44.143   2.712   9.963  0.00  0.00    +0.000 C 
BRANCH  10  11
ATOM     11  C   UNL     1      45.430   2.622   9.119  0.00  0.00    +0.000 C 
ATOM     12  C   UNL     1      45.462   3.707   8.039  0.00  0.00    +0.000 C 
ATOM     13  C   UNL     1      46.697   3.579   7.156  0.00  0.00    +0.000 C 
ATOM     14  O   UNL     1      46.780   2.279   6.575  0.00  0.00    +0.000 OA
ATOM     15  C   UNL     1      46.890   1.257   7.564  0.00  0.00    +0.000 C 
ATOM     16  C   UNL     1      45.643   1.242   8.450  0.00  0.00    +0.000 C 
ENDBRANCH  10  11
ENDBRANCH   8  10
ENDBRANCH   5   8
ENDBRANCH   1   2
BRANCH   1  19
ATOM     17  C   UNL     1      49.153   6.944  15.573  0.00  0.00    +0.000 C 
ATOM     18  O   UNL     1      50.253   6.962  15.008  0.00  0.00    +0.000 OA
ATOM     19  N   UNL     1      47.991   6.887  14.862  0.00  0.00    +0.000 N 
ATOM     20  H   UNL     1      47.113   6.761  15.348  0.00  0.00    +0.000 HD
BRANCH  17  28
ATOM     21  C   UNL     1      48.811   4.506  17.951  0.00  0.00    +0.000 A 
ATOM     22  N   UNL     1      48.678   3.757  19.061  0.00  0.00    +0.000 NA
ATOM     23  C   UNL     1      48.634   4.383  20.235  0.00  0.00    +0.000 A 
ATOM     24  N   UNL     1      48.689   5.696  20.443  0.00  0.00    +0.000 NA
ATOM     25  C   UNL     1      48.819   6.406  19.312  0.00  0.00    +0.000 A 
ATOM     26  S   UNL     1      48.918   8.101  19.382  0.00  0.00    +0.000 S 
ATOM     27  C   UNL     1      49.058   8.215  17.690  0.00  0.00    +0.000 A 
ATOM     28  C   UNL     1      49.046   6.985  17.042  0.00  0.00    +0.000 A 
ATOM     29  C   UNL     1      48.896   5.906  18.013  0.00  0.00    +0.000 A 
BRANCH  21  31
ATOM     30  C   UNL     1      49.232   2.453  16.956  0.00  0.00    +0.000 C 
ATOM     31  O   UNL     1      48.949   3.836  16.756  0.00  0.00    +0.000 OA
ENDBRANCH  21  31
ENDBRANCH  17  28
ENDBRANCH   1  19
TORSDOF 7
ENDMDL
MODEL 6
REMARK VINA RESULT:    -7.174      2.256      3.357
REMARK INTER + INTRA:         -11.530
REMARK INTER:                 -10.558
REMARK INTRA:                  -0.972
REMARK UNBOUND:                -1.421
REMARK  Name = 
REMARK  8 active torsions:
REMARK  status: ('A' for Active; 'I' for Inactive)
REMARK    1  A    between atoms: C_1  and  O_2
REMARK    2  A    between atoms: O_2  and  C_3
REMARK    3  A    between atoms: C_10  and  C_11
REMARK    4  A    between atoms: N_13  and  C_14
REMARK    5  A    between atoms: C_14  and  C_15
REMARK    6  A    between atoms: C_18  and  N_19
REMARK    7  A    between atoms: N_19  and  C_20
REMARK    8  A    between atoms: C_20  and  C_21
REMARK                            x       y       z     vdW  Elec       q    Type
REMARK                         _______ _______ _______ _____ _____    ______ ____
ROOT
ATOM      1  C   UNL     1      46.446   4.416  14.729  0.00  0.00    +0.000 C 
ENDROOT
BRANCH   1   2
ATOM      2  C   UNL     1      46.095   4.613  13.276  0.00  0.00    +0.000 A 
ATOM      3  C   UNL     1      46.545   5.742  12.580  0.00  0.00    +0.000 A 
ATOM      4  C   UNL     1      46.261   5.904  11.217  0.00  0.00    +0.000 A 
ATOM      5  C   UNL     1      45.499   4.966  10.513  0.00  0.00    +0.000 A 
ATOM      6  C   UNL     1      45.029   3.852  11.226  0.00  0.00    +0.000 A 
ATOM      7  C   UNL     1      45.308   3.682  12.590  0.00  0.00    +0.000 A 
BRANCH   5   8
ATOM      8  N   UNL     1      45.269   5.031   9.130  0.00  0.00    +0.000 N 
ATOM      9  H   UNL     1      46.080   5.404   8.640  0.00  0.00    +0.000 HD
BRANCH   8  10
ATOM     10  C   UNL     1      44.552   3.939   8.451  0.00  0.00    +0.000 C 
BRANCH  10  11
ATOM     11  C   UNL     1      45.493   3.044   7.620  0.00  0.00    +0.000 C 
ATOM     12  C   UNL     1      45.854   1.764   8.379  0.00  0.00    +0.000 C 
ATOM     13  C   UNL     1      46.840   0.909   7.592  0.00  0.00    +0.000 C 
ATOM     14  O   UNL     1      48.011   1.651   7.259  0.00  0.00    +0.000 OA
ATOM     15  C   UNL     1      47.715   2.777   6.435  0.00  0.00    +0.000 C 
ATOM     16  C   UNL     1      46.798   3.749   7.179  0.00  0.00    +0.000 C 
ENDBRANCH  10  11
ENDBRANCH   8  10
ENDBRANCH   5   8
ENDBRANCH   1   2
BRANCH   1  19
ATOM     17  C   UNL     1      48.116   5.201  16.361  0.00  0.00    +0.000 C 
ATOM     18  O   UNL     1      47.768   4.355  17.194  0.00  0.00    +0.000 OA
ATOM     19  N   UNL     1      47.515   5.286  15.141  0.00  0.00    +0.000 N 
ATOM     20  H   UNL     1      47.742   6.055  14.524  0.00  0.00    +0.000 HD
BRANCH  17  28
ATOM     21  C   UNL     1      51.367   4.808  17.359  0.00  0.00    +0.000 A 
ATOM     22  N   UNL     1      52.651   4.926  17.741  0.00  0.00    +0.000 NA
ATOM     23  C   UNL     1      53.162   6.151  17.846  0.00  0.00    +0.000 A 
ATOM     24  N   UNL     1      52.529   7.301  17.627  0.00  0.00    +0.000 NA
ATOM     25  C   UNL     1      51.252   7.140  17.251  0.00  0.00    +0.000 A 
ATOM     26  S   UNL     1      50.289   8.499  16.916  0.00  0.00    +0.000 S 
ATOM     27  C   UNL     1      48.947   7.522  16.543  0.00  0.00    +0.000 A 
ATOM     28  C   UNL     1      49.199   6.158  16.650  0.00  0.00    +0.000 A 
ATOM     29  C   UNL     1      50.575   5.933  17.080  0.00  0.00    +0.000 A 
BRANCH  21  31
ATOM     30  C   UNL     1      51.765   2.549  17.708  0.00  0.00    +0.000 C 
ATOM     31  O   UNL     1      50.886   3.532  17.166  0.00  0.00    +0.000 OA
ENDBRANCH  21  31
ENDBRANCH  17  28
ENDBRANCH   1  19
TORSDOF 7
ENDMDL
MODEL 7
REMARK VINA RESULT:    -6.862      2.193      3.134
REMARK INTER + INTRA:         -11.090
REMARK INTER:                 -10.171
REMARK INTRA:                  -0.919
REMARK UNBOUND:                -1.421
REMARK  Name = 
REMARK  8 active torsions:
REMARK  status: ('A' for Active; 'I' for Inactive)
REMARK    1  A    between atoms: C_1  and  O_2
REMARK    2  A    between atoms: O_2  and  C_3
REMARK    3  A    between atoms: C_10  and  C_11
REMARK    4  A    between atoms: N_13  and  C_14
REMARK    5  A    between atoms: C_14  and  C_15
REMARK    6  A    between atoms: C_18  and  N_19
REMARK    7  A    between atoms: N_19  and  C_20
REMARK    8  A    between atoms: C_20  and  C_21
REMARK                            x       y       z     vdW  Elec       q    Type
REMARK                         _______ _______ _______ _____ _____    ______ ____
ROOT
ATOM      1  C   UNL     1      46.298   4.233  14.571  0.00  0.00    +0.000 C 
ENDROOT
BRANCH   1   2
ATOM      2  C   UNL     1      45.954   4.357  13.108  0.00  0.00    +0.000 A 
ATOM      3  C   UNL     1      45.347   3.297  12.425  0.00  0.00    +0.000 A 
ATOM      4  C   UNL     1      44.982   3.426  11.078  0.00  0.00    +0.000 A 
ATOM      5  C   UNL     1      45.235   4.601  10.363  0.00  0.00    +0.000 A 
ATOM      6  C   UNL     1      45.869   5.649  11.049  0.00  0.00    +0.000 A 
ATOM      7  C   UNL     1      46.237   5.528  12.397  0.00  0.00    +0.000 A 
BRANCH   5   8
ATOM      8  N   UNL     1      44.804   4.818   9.045  0.00  0.00    +0.000 N 
ATOM      9  H   UNL     1      45.216   5.666   8.659  0.00  0.00    +0.000 HD
BRANCH   8  10
ATOM     10  C   UNL     1      44.675   3.683   8.116  0.00  0.00    +0.000 C 
BRANCH  10  11
ATOM     11  C   UNL     1      46.023   2.984   7.850  0.00  0.00    +0.000 C 
ATOM     12  C   UNL     1      46.561   3.328   6.458  0.00  0.00    +0.000 C 
ATOM     13  C   UNL     1      47.857   2.585   6.162  0.00  0.00    +0.000 C 
ATOM     14  O   UNL     1      47.686   1.176   6.308  0.00  0.00    +0.000 OA
ATOM     15  C   UNL     1      47.317   0.818   7.638  0.00  0.00    +0.000 C 
ATOM     16  C   UNL     1      45.970   1.444   8.000  0.00  0.00    +0.000 C 
ENDBRANCH  10  11
ENDBRANCH   8  10
ENDBRANCH   5   8
ENDBRANCH   1   2
BRANCH   1  19
ATOM     17  C   UNL     1      48.165   5.167  15.882  0.00  0.00    +0.000 C 
ATOM     18  O   UNL     1      48.462   4.055  16.336  0.00  0.00    +0.000 OA
ATOM     19  N   UNL     1      47.123   5.325  15.017  0.00  0.00    +0.000 N 
ATOM     20  H   UNL     1      46.832   6.256  14.749  0.00  0.00    +0.000 HD
BRANCH  17  28
ATOM     21  C   UNL     1      48.634   6.797  18.855  0.00  0.00    +0.000 A 
ATOM     22  N   UNL     1      48.971   7.607  19.874  0.00  0.00    +0.000 NA
ATOM     23  C   UNL     1      49.758   8.648  19.611  0.00  0.00    +0.000 A 
ATOM     24  N   UNL     1      50.249   8.998  18.425  0.00  0.00    +0.000 NA
ATOM     25  C   UNL     1      49.887   8.167  17.436  0.00  0.00    +0.000 A 
ATOM     26  S   UNL     1      50.429   8.449  15.851  0.00  0.00    +0.000 S 
ATOM     27  C   UNL     1      49.609   7.076  15.270  0.00  0.00    +0.000 A 
ATOM     28  C   UNL     1      48.923   6.374  16.255  0.00  0.00    +0.000 A 
ATOM     29  C   UNL     1      49.086   7.032  17.547  0.00  0.00    +0.000 A 
BRANCH  21  31
ATOM     30  C   UNL     1      48.696   4.675  19.791  0.00  0.00    +0.000 C 
ATOM     31  O   UNL     1      47.897   5.675  19.164  0.00  0.00    +0.000 OA
ENDBRANCH  21  31
ENDBRANCH  17  28
ENDBRANCH   1  19
TORSDOF 7
ENDMDL
MODEL 8
REMARK VINA RESULT:    -6.693      4.129      8.715
REMARK INTER + INTRA:         -10.853
REMARK INTER:                  -9.784
REMARK INTRA:                  -1.068
REMARK UNBOUND:                -1.421
REMARK  Name = 
REMARK  8 active torsions:
REMARK  status: ('A' for Active; 'I' for Inactive)
REMARK    1  A    between atoms: C_1  and  O_2
REMARK    2  A    between atoms: O_2  and  C_3
REMARK    3  A    between atoms: C_10  and  C_11
REMARK    4  A    between atoms: N_13  and  C_14
REMARK    5  A    between atoms: C_14  and  C_15
REMARK    6  A    between atoms: C_18  and  N_19
REMARK    7  A    between atoms: N_19  and  C_20
REMARK    8  A    between atoms: C_20  and  C_21
REMARK                            x       y       z     vdW  Elec       q    Type
REMARK                         _______ _______ _______ _____ _____    ______ ____
ROOT
ATOM      1  C   UNL     1      47.176   3.500  16.809  0.00  0.00    +0.000 C 
ENDROOT
BRANCH   1   2
ATOM      2  C   UNL     1      48.657   3.567  17.087  0.00  0.00    +0.000 A 
ATOM      3  C   UNL     1      49.276   4.792  17.366  0.00  0.00    +0.000 A 
ATOM      4  C   UNL     1      50.642   4.850  17.672  0.00  0.00    +0.000 A 
ATOM      5  C   UNL     1      51.439   3.701  17.682  0.00  0.00    +0.000 A 
ATOM      6  C   UNL     1      50.815   2.482  17.374  0.00  0.00    +0.000 A 
ATOM      7  C   UNL     1      49.448   2.414  17.066  0.00  0.00    +0.000 A 
BRANCH   5   8
ATOM      8  N   UNL     1      52.786   3.691  18.075  0.00  0.00    +0.000 N 
ATOM      9  H   UNL     1      53.113   4.631  18.292  0.00  0.00    +0.000 HD
BRANCH   8  10
ATOM     10  C   UNL     1      53.290   2.617  18.947  0.00  0.00    +0.000 C 
BRANCH  10  11
ATOM     11  C   UNL     1      54.285   1.688  18.222  0.00  0.00    +0.000 C 
ATOM     12  C   UNL     1      54.846   2.354  16.962  0.00  0.00    +0.000 C 
ATOM     13  C   UNL     1      55.775   1.415  16.203  0.00  0.00    +0.000 C 
ATOM     14  O   UNL     1      55.117   0.191  15.882  0.00  0.00    +0.000 OA
ATOM     15  C   UNL     1      54.704  -0.516  17.049  0.00  0.00    +0.000 C 
ATOM     16  C   UNL     1      53.689   0.312  17.837  0.00  0.00    +0.000 C 
ENDBRANCH  10  11
ENDBRANCH   8  10
ENDBRANCH   5   8
ENDBRANCH   1   2
BRANCH   1  19
ATOM     17  C   UNL     1      46.821   4.304  14.507  0.00  0.00    +0.000 C 
ATOM     18  O   UNL     1      47.227   3.240  14.024  0.00  0.00    +0.000 OA
ATOM     19  N   UNL     1      46.769   4.498  15.855  0.00  0.00    +0.000 N 
ATOM     20  H   UNL     1      46.541   5.413  16.221  0.00  0.00    +0.000 HD
BRANCH  17  28
ATOM     21  C   UNL     1      43.989   4.820  12.655  0.00  0.00    +0.000 A 
ATOM     22  N   UNL     1      42.995   5.259  11.862  0.00  0.00    +0.000 NA
ATOM     23  C   UNL     1      43.137   6.450  11.284  0.00  0.00    +0.000 A 
ATOM     24  N   UNL     1      44.181   7.268  11.387  0.00  0.00    +0.000 NA
ATOM     25  C   UNL     1      45.150   6.792  12.183  0.00  0.00    +0.000 A 
ATOM     26  S   UNL     1      46.558   7.707  12.445  0.00  0.00    +0.000 S 
ATOM     27  C   UNL     1      47.206   6.515  13.470  0.00  0.00    +0.000 A 
ATOM     28  C   UNL     1      46.374   5.414  13.646  0.00  0.00    +0.000 A 
ATOM     29  C   UNL     1      45.150   5.580  12.870  0.00  0.00    +0.000 A 
BRANCH  21  31
ATOM     30  C   UNL     1      43.557   2.554  12.410  0.00  0.00    +0.000 C 
ATOM     31  O   UNL     1      43.783   3.630  13.317  0.00  0.00    +0.000 OA
ENDBRANCH  21  31
ENDBRANCH  17  28
ENDBRANCH   1  19
TORSDOF 7
ENDMDL
MODEL 9
REMARK VINA RESULT:    -6.436      2.426      3.266
REMARK INTER + INTRA:         -10.490
REMARK INTER:                  -9.321
REMARK INTRA:                  -1.169
REMARK UNBOUND:                -1.421
REMARK  Name = 
REMARK  8 active torsions:
REMARK  status: ('A' for Active; 'I' for Inactive)
REMARK    1  A    between atoms: C_1  and  O_2
REMARK    2  A    between atoms: O_2  and  C_3
REMARK    3  A    between atoms: C_10  and  C_11
REMARK    4  A    between atoms: N_13  and  C_14
REMARK    5  A    between atoms: C_14  and  C_15
REMARK    6  A    between atoms: C_18  and  N_19
REMARK    7  A    between atoms: N_19  and  C_20
REMARK    8  A    between atoms: C_20  and  C_21
REMARK                            x       y       z     vdW  Elec       q    Type
REMARK                         _______ _______ _______ _____ _____    ______ ____
ROOT
ATOM      1  C   UNL     1      49.064   7.532  15.599  0.00  0.00    +0.000 C 
ENDROOT
BRANCH   1   2
ATOM      2  C   UNL     1      48.312   7.146  14.350  0.00  0.00    +0.000 A 
ATOM      3  C   UNL     1      47.580   5.953  14.297  0.00  0.00    +0.000 A 
ATOM      4  C   UNL     1      46.842   5.615  13.155  0.00  0.00    +0.000 A 
ATOM      5  C   UNL     1      46.832   6.435  12.022  0.00  0.00    +0.000 A 
ATOM      6  C   UNL     1      47.590   7.615  12.075  0.00  0.00    +0.000 A 
ATOM      7  C   UNL     1      48.332   7.961  13.214  0.00  0.00    +0.000 A 
BRANCH   5   8
ATOM      8  N   UNL     1      46.034   6.193  10.893  0.00  0.00    +0.000 N 
ATOM      9  H   UNL     1      46.608   6.031  10.067  0.00  0.00    +0.000 HD
BRANCH   8  10
ATOM     10  C   UNL     1      44.824   5.364  11.011  0.00  0.00    +0.000 C 
BRANCH  10  11
ATOM     11  C   UNL     1      44.667   4.381   9.833  0.00  0.00    +0.000 C 
ATOM     12  C   UNL     1      44.711   2.928  10.314  0.00  0.00    +0.000 C 
ATOM     13  C   UNL     1      44.628   1.952   9.147  0.00  0.00    +0.000 C 
ATOM     14  O   UNL     1      45.658   2.204   8.193  0.00  0.00    +0.000 OA
ATOM     15  C   UNL     1      45.555   3.509   7.627  0.00  0.00    +0.000 C 
ATOM     16  C   UNL     1      45.722   4.570   8.715  0.00  0.00    +0.000 C 
ENDBRANCH  10  11
ENDBRANCH   8  10
ENDBRANCH   5   8
ENDBRANCH   1   2
BRANCH   1  19
ATOM     17  C   UNL     1      50.542   6.459  17.253  0.00  0.00    +0.000 C 
ATOM     18  O   UNL     1      50.310   7.334  18.096  0.00  0.00    +0.000 OA
ATOM     19  N   UNL     1      49.968   6.494  16.017  0.00  0.00    +0.000 N 
ATOM     20  H   UNL     1      50.260   5.831  15.311  0.00  0.00    +0.000 HD
BRANCH  17  28
ATOM     21  C   UNL     1      50.177   3.060  17.077  0.00  0.00    +0.000 A 
ATOM     22  N   UNL     1      50.292   1.720  17.096  0.00  0.00    +0.000 NA
ATOM     23  C   UNL     1      51.453   1.198  17.483  0.00  0.00    +0.000 A 
ATOM     24  N   UNL     1      52.535   1.863  17.880  0.00  0.00    +0.000 NA
ATOM     25  C   UNL     1      52.378   3.196  17.849  0.00  0.00    +0.000 A 
ATOM     26  S   UNL     1      53.660   4.211  18.311  0.00  0.00    +0.000 S 
ATOM     27  C   UNL     1      52.734   5.605  18.010  0.00  0.00    +0.000 A 
ATOM     28  C   UNL     1      51.451   5.337  17.545  0.00  0.00    +0.000 A 
ATOM     29  C   UNL     1      51.239   3.896  17.457  0.00  0.00    +0.000 A 
BRANCH  21  31
ATOM     30  C   UNL     1      47.881   2.763  16.918  0.00  0.00    +0.000 C 
ATOM     31  O   UNL     1      49.001   3.581  16.586  0.00  0.00    +0.000 OA
ENDBRANCH  21  31
ENDBRANCH  17  28
ENDBRANCH   1  19
TORSDOF 7
ENDMDL
