MODEL 1
REMARK VINA RESULT:    -7.843      0.000      0.000
REMARK INTER + INTRA:         -11.841
REMARK INTER:                 -11.052
REMARK INTRA:                  -0.789
REMARK UNBOUND:                -0.789
REMARK  Name = 
REMARK  8 active torsions:
REMARK  status: ('A' for Active; 'I' for Inactive)
REMARK    1  A    between atoms: N_1  and  C_2
REMARK    2  A    between atoms: C_2  and  C_3
REMARK    3  A    between atoms: C_7  and  O_8
REMARK    4  A    between atoms: O_8  and  C_9
REMARK    5  A    between atoms: C_9  and  C_10
REMARK    6  A    between atoms: C_10  and  O_11
REMARK    7  A    between atoms: C_10  and  C_12
REMARK    8  A    between atoms: C_16  and  C_17
REMARK                            x       y       z     vdW  Elec       q    Type
REMARK                         _______ _______ _______ _____ _____    ______ ____
ROOT
ATOM      1  C   UNL     1      43.685   3.787  12.396  0.00  0.00    +0.000 C 
ENDROOT
BRANCH   1   2
ATOM      2  C   UNL     1      44.851   4.666  12.784  0.00  0.00    +0.000 A 
ATOM      3  C   UNL     1      46.057   4.103  13.220  0.00  0.00    +0.000 A 
ATOM      4  C   UNL     1      47.112   4.942  13.557  0.00  0.00    +0.000 A 
ATOM      5  N   UNL     1      47.056   6.288  13.495  0.00  0.00    +0.000 NA
ATOM      6  C   UNL     1      45.878   6.817  13.061  0.00  0.00    +0.000 A 
ATOM      7  C   UNL     1      44.773   6.059  12.699  0.00  0.00    +0.000 A 
BRANCH   6   8
ATOM      8  C   UNL     1      45.800   8.310  12.978  0.00  0.00    +0.000 C 
ATOM      9  N   UNL     1      46.569   8.988  13.884  0.00  0.00    +0.000 N 
ATOM     10  O   UNL     1      45.104   8.897  12.158  0.00  0.00    +0.000 OA
ATOM     11  H   UNL     1      47.139   8.465  14.542  0.00  0.00    +0.000 HD
ATOM     12  H   UNL     1      46.574   9.996  13.879  0.00  0.00    +0.000 HD
ENDBRANCH   6   8
ENDBRANCH   1   2
BRANCH   1  13
ATOM     13  O   UNL     1      43.962   2.449  12.816  0.00  0.00    +0.000 OA
ATOM     14  H   UNL     1      43.112   2.077  13.114  0.00  0.00    +0.000 HD
ENDBRANCH   1  13
BRANCH   1  15
ATOM     15  C   UNL     1      43.303   3.832  10.904  0.00  0.00    +0.000 C 
BRANCH  15  16
ATOM     16  O   UNL     1      43.867   2.718  10.196  0.00  0.00    +0.000 OA
BRANCH  16  21
ATOM     17  C   UNL     1      46.484   2.063   7.739  0.00  0.00    +0.000 A 
ATOM     18  C   UNL     1      46.795   3.357   7.301  0.00  0.00    +0.000 A 
ATOM     19  C   UNL     1      46.151   4.464   7.850  0.00  0.00    +0.000 A 
ATOM     20  C   UNL     1      45.174   4.292   8.831  0.00  0.00    +0.000 A 
ATOM     21  C   UNL     1      44.835   3.011   9.270  0.00  0.00    +0.000 A 
ATOM     22  C   UNL     1      45.501   1.904   8.730  0.00  0.00    +0.000 A 
BRANCH  17  23
ATOM     23  C   UNL     1      47.163   0.868   7.118  0.00  0.00    +0.000 C 
BRANCH  23  24
ATOM     24  N   UNL     1      46.805  -0.374   7.796  0.00  0.00    +0.000 NA
ATOM     25  H   UNL     1      46.325  -0.149   8.666  0.00  0.00    +0.000 HD
ATOM     26  H   UNL     1      47.663  -0.857   8.060  0.00  0.00    +0.000 HD
ENDBRANCH  23  24
ENDBRANCH  17  23
ENDBRANCH  16  21
ENDBRANCH  15  16
ENDBRANCH   1  15
TORSDOF 8
ENDMDL
MODEL 2
REMARK VINA RESULT:    -7.791      1.890      2.930
REMARK INTER + INTRA:         -11.768
REMARK INTER:                 -11.103
REMARK INTRA:                  -0.664
REMARK UNBOUND:                -0.789
REMARK  Name = 
REMARK  8 active torsions:
REMARK  status: ('A' for Active; 'I' for Inactive)
REMARK    1  A    between atoms: N_1  and  C_2
REMARK    2  A    between atoms: C_2  and  C_3
REMARK    3  A    between atoms: C_7  and  O_8
REMARK    4  A    between atoms: O_8  and  C_9
REMARK    5  A    between atoms: C_9  and  C_10
REMARK    6  A    between atoms: C_10  and  O_11
REMARK    7  A    between atoms: C_10  and  C_12
REMARK    8  A    between atoms: C_16  and  C_17
REMARK                            x       y       z     vdW  Elec       q    Type
REMARK                         _______ _______ _______ _____ _____    ______ ____
ROOT
ATOM      1  C   UNL     1      43.817   5.707  11.492  0.00  0.00    +0.000 C 
ENDROOT
BRANCH   1   2
ATOM      2  C   UNL     1      45.208   5.730  12.083  0.00  0.00    +0.000 A 
ATOM      3  C   UNL     1      46.198   6.562  11.550  0.00  0.00    +0.000 A 
ATOM      4  C   UNL     1      47.462   6.567  12.127  0.00  0.00    +0.000 A 
ATOM      5  N   UNL     1      47.810   5.808  13.186  0.00  0.00    +0.000 NA
ATOM      6  C   UNL     1      46.832   5.010  13.697  0.00  0.00    +0.000 A 
ATOM      7  C   UNL     1      45.541   4.942  13.190  0.00  0.00    +0.000 A 
BRANCH   6   8
ATOM      8  C   UNL     1      47.198   4.166  14.879  0.00  0.00    +0.000 C 
ATOM      9  N   UNL     1      47.139   4.798  16.090  0.00  0.00    +0.000 N 
ATOM     10  O   UNL     1      47.527   2.990  14.781  0.00  0.00    +0.000 OA
ATOM     11  H   UNL     1      46.854   5.772  16.130  0.00  0.00    +0.000 HD
ATOM     12  H   UNL     1      47.363   4.288  16.931  0.00  0.00    +0.000 HD
ENDBRANCH   6   8
ENDBRANCH   1   2
BRANCH   1  13
ATOM     13  O   UNL     1      42.867   5.703  12.561  0.00  0.00    +0.000 OA
ATOM     14  H   UNL     1      42.437   4.828  12.537  0.00  0.00    +0.000 HD
ENDBRANCH   1  13
BRANCH   1  15
ATOM     15  C   UNL     1      43.547   4.555  10.505  0.00  0.00    +0.000 C 
BRANCH  15  16
ATOM     16  O   UNL     1      44.332   4.707   9.313  0.00  0.00    +0.000 OA
BRANCH  16  21
ATOM     17  C   UNL     1      46.749   2.734   7.421  0.00  0.00    +0.000 A 
ATOM     18  C   UNL     1      46.426   1.429   7.819  0.00  0.00    +0.000 A 
ATOM     19  C   UNL     1      45.373   1.198   8.701  0.00  0.00    +0.000 A 
ATOM     20  C   UNL     1      44.640   2.269   9.213  0.00  0.00    +0.000 A 
ATOM     21  C   UNL     1      44.955   3.578   8.846  0.00  0.00    +0.000 A 
ATOM     22  C   UNL     1      46.001   3.803   7.942  0.00  0.00    +0.000 A 
BRANCH  17  23
ATOM     23  C   UNL     1      47.911   2.978   6.490  0.00  0.00    +0.000 C 
BRANCH  23  24
ATOM     24  N   UNL     1      48.458   1.731   5.965  0.00  0.00    +0.000 NA
ATOM     25  H   UNL     1      47.813   0.971   6.179  0.00  0.00    +0.000 HD
ATOM     26  H   UNL     1      49.321   1.521   6.465  0.00  0.00    +0.000 HD
ENDBRANCH  23  24
ENDBRANCH  17  23
ENDBRANCH  16  21
ENDBRANCH  15  16
ENDBRANCH   1  15
TORSDOF 8
ENDMDL
MODEL 3
REMARK VINA RESULT:    -7.745      1.548      2.030
REMARK INTER + INTRA:         -11.704
REMARK INTER:                 -11.024
REMARK INTRA:                  -0.679
REMARK UNBOUND:                -0.789
REMARK  Name = 
REMARK  8 active torsions:
REMARK  status: ('A' for Active; 'I' for Inactive)
REMARK    1  A    between atoms: N_1  and  C_2
REMARK    2  A    between atoms: C_2  and  C_3
REMARK    3  A    between atoms: C_7  and  O_8
REMARK    4  A    between atoms: O_8  and  C_9
REMARK    5  A    between atoms: C_9  and  C_10
REMARK    6  A    between atoms: C_10  and  O_11
REMARK    7  A    between atoms: C_10  and  C_12
REMARK    8  A    between atoms: C_16  and  C_17
REMARK                            x       y       z     vdW  Elec       q    Type
REMARK                         _______ _______ _______ _____ _____    ______ ____
ROOT
ATOM      1  C   UNL     1      44.248   3.598  12.503  0.00  0.00    +0.000 C 
ENDROOT
BRANCH   1   2
ATOM      2  C   UNL     1      44.985   4.905  12.680  0.00  0.00    +0.000 A 
ATOM      3  C   UNL     1      44.465   6.096  12.159  0.00  0.00    +0.000 A 
ATOM      4  C   UNL     1      45.164   7.281  12.352  0.00  0.00    +0.000 A 
ATOM      5  N   UNL     1      46.334   7.367  13.017  0.00  0.00    +0.000 NA
ATOM      6  C   UNL     1      46.820   6.201  13.524  0.00  0.00    +0.000 A 
ATOM      7  C   UNL     1      46.190   4.971  13.385  0.00  0.00    +0.000 A 
BRANCH   6   8
ATOM      8  C   UNL     1      48.114   6.279  14.274  0.00  0.00    +0.000 C 
ATOM      9  N   UNL     1      48.042   5.957  15.601  0.00  0.00    +0.000 N 
ATOM     10  O   UNL     1      49.171   6.605  13.746  0.00  0.00    +0.000 OA
ATOM     11  H   UNL     1      47.149   5.684  15.999  0.00  0.00    +0.000 HD
ATOM     12  H   UNL     1      48.878   5.977  16.165  0.00  0.00    +0.000 HD
ENDBRANCH   6   8
ENDBRANCH   1   2
BRANCH   1  13
ATOM     13  O   UNL     1      45.195   2.529  12.559  0.00  0.00    +0.000 OA
ATOM     14  H   UNL     1      44.840   1.822  11.989  0.00  0.00    +0.000 HD
ENDBRANCH   1  13
BRANCH   1  15
ATOM     15  C   UNL     1      43.380   3.505  11.233  0.00  0.00    +0.000 C 
BRANCH  15  16
ATOM     16  O   UNL     1      43.885   2.503  10.339  0.00  0.00    +0.000 OA
BRANCH  16  21
ATOM     17  C   UNL     1      46.466   2.207   7.776  0.00  0.00    +0.000 A 
ATOM     18  C   UNL     1      46.629   3.541   7.380  0.00  0.00    +0.000 A 
ATOM     19  C   UNL     1      45.897   4.556   7.993  0.00  0.00    +0.000 A 
ATOM     20  C   UNL     1      44.978   4.250   8.997  0.00  0.00    +0.000 A 
ATOM     21  C   UNL     1      44.785   2.927   9.395  0.00  0.00    +0.000 A 
ATOM     22  C   UNL     1      45.540   1.913   8.791  0.00  0.00    +0.000 A 
BRANCH  17  23
ATOM     23  C   UNL     1      47.240   1.111   7.087  0.00  0.00    +0.000 C 
BRANCH  23  24
ATOM     24  N   UNL     1      48.353   1.640   6.306  0.00  0.00    +0.000 NA
ATOM     25  H   UNL     1      48.724   0.898   5.715  0.00  0.00    +0.000 HD
ATOM     26  H   UNL     1      49.104   1.897   6.946  0.00  0.00    +0.000 HD
ENDBRANCH  23  24
ENDBRANCH  17  23
ENDBRANCH  16  21
ENDBRANCH  15  16
ENDBRANCH   1  15
TORSDOF 8
ENDMDL
MODEL 4
REMARK VINA RESULT:    -7.127      1.910      2.357
REMARK INTER + INTRA:         -10.832
REMARK INTER:                 -10.059
REMARK INTRA:                  -0.773
REMARK UNBOUND:                -0.789
REMARK  Name = 
REMARK  8 active torsions:
REMARK  status: ('A' for Active; 'I' for Inactive)
REMARK    1  A    between atoms: N_1  and  C_2
REMARK    2  A    between atoms: C_2  and  C_3
REMARK    3  A    between atoms: C_7  and  O_8
REMARK    4  A    between atoms: O_8  and  C_9
REMARK    5  A    between atoms: C_9  and  C_10
REMARK    6  A    between atoms: C_10  and  O_11
REMARK    7  A    between atoms: C_10  and  C_12
REMARK    8  A    between atoms: C_16  and  C_17
REMARK                            x       y       z     vdW  Elec       q    Type
REMARK                         _______ _______ _______ _____ _____    ______ ____
ROOT
ATOM      1  C   UNL     1      43.724   5.766  12.304  0.00  0.00    +0.000 C 
ENDROOT
BRANCH   1   2
ATOM      2  C   UNL     1      45.075   5.381  12.862  0.00  0.00    +0.000 A 
ATOM      3  C   UNL     1      45.396   4.039  13.094  0.00  0.00    +0.000 A 
ATOM      4  C   UNL     1      46.652   3.720  13.597  0.00  0.00    +0.000 A 
ATOM      5  N   UNL     1      47.602   4.633  13.884  0.00  0.00    +0.000 NA
ATOM      6  C   UNL     1      47.275   5.933  13.644  0.00  0.00    +0.000 A 
ATOM      7  C   UNL     1      46.049   6.344  13.141  0.00  0.00    +0.000 A 
BRANCH   6   8
ATOM      8  C   UNL     1      48.323   6.959  13.949  0.00  0.00    +0.000 C 
ATOM      9  N   UNL     1      47.921   7.979  14.767  0.00  0.00    +0.000 N 
ATOM     10  O   UNL     1      49.464   6.898  13.507  0.00  0.00    +0.000 OA
ATOM     11  H   UNL     1      46.969   7.989  15.119  0.00  0.00    +0.000 HD
ATOM     12  H   UNL     1      48.577   8.701  15.023  0.00  0.00    +0.000 HD
ENDBRANCH   6   8
ENDBRANCH   1   2
BRANCH   1  13
ATOM     13  O   UNL     1      42.727   5.492  13.292  0.00  0.00    +0.000 OA
ATOM     14  H   UNL     1      42.527   6.345  13.719  0.00  0.00    +0.000 HD
ENDBRANCH   1  13
BRANCH   1  15
ATOM     15  C   UNL     1      43.364   5.112  10.956  0.00  0.00    +0.000 C 
BRANCH  15  16
ATOM     16  O   UNL     1      44.436   5.256  10.014  0.00  0.00    +0.000 OA
BRANCH  16  21
ATOM     17  C   UNL     1      46.268   3.207   7.614  0.00  0.00    +0.000 A 
ATOM     18  C   UNL     1      45.919   1.912   8.019  0.00  0.00    +0.000 A 
ATOM     19  C   UNL     1      45.040   1.716   9.082  0.00  0.00    +0.000 A 
ATOM     20  C   UNL     1      44.512   2.810   9.767  0.00  0.00    +0.000 A 
ATOM     21  C   UNL     1      44.859   4.109   9.393  0.00  0.00    +0.000 A 
ATOM     22  C   UNL     1      45.727   4.301   8.310  0.00  0.00    +0.000 A 
BRANCH  17  23
ATOM     23  C   UNL     1      47.244   3.411   6.482  0.00  0.00    +0.000 C 
BRANCH  23  24
ATOM     24  N   UNL     1      48.377   2.495   6.569  0.00  0.00    +0.000 NA
ATOM     25  H   UNL     1      48.332   1.839   5.791  0.00  0.00    +0.000 HD
ATOM     26  H   UNL     1      48.278   1.939   7.418  0.00  0.00    +0.000 HD
ENDBRANCH  23  24
ENDBRANCH  17  23
ENDBRANCH  16  21
ENDBRANCH  15  16
ENDBRANCH   1  15
TORSDOF 8
ENDMDL
MODEL 5
REMARK VINA RESULT:    -6.225      2.528      3.066
REMARK INTER + INTRA:          -9.561
REMARK INTER:                  -9.056
REMARK INTRA:                  -0.505
REMARK UNBOUND:                -0.789
REMARK  Name = 
REMARK  8 active torsions:
REMARK  status: ('A' for Active; 'I' for Inactive)
REMARK    1  A    between atoms: N_1  and  C_2
REMARK    2  A    between atoms: C_2  and  C_3
REMARK    3  A    between atoms: C_7  and  O_8
REMARK    4  A    between atoms: O_8  and  C_9
REMARK    5  A    between atoms: C_9  and  C_10
REMARK    6  A    between atoms: C_10  and  O_11
REMARK    7  A    between atoms: C_10  and  C_12
REMARK    8  A    between atoms: C_16  and  C_17
REMARK                            x       y       z     vdW  Elec       q    Type
REMARK                         _______ _______ _______ _____ _____    ______ ____
ROOT
ATOM      1  C   UNL     1      45.601   6.038  11.425  0.00  0.00    +0.000 C 
ENDROOT
BRANCH   1   2
ATOM      2  C   UNL     1      46.852   6.341  12.215  0.00  0.00    +0.000 A 
ATOM      3  C   UNL     1      46.993   5.890  13.532  0.00  0.00    +0.000 A 
ATOM      4  C   UNL     1      48.163   6.177  14.224  0.00  0.00    +0.000 A 
ATOM      5  N   UNL     1      49.194   6.876  13.706  0.00  0.00    +0.000 NA
ATOM      6  C   UNL     1      49.042   7.299  12.421  0.00  0.00    +0.000 A 
ATOM      7  C   UNL     1      47.913   7.058  11.652  0.00  0.00    +0.000 A 
BRANCH   6   8
ATOM      8  C   UNL     1      50.181   8.071  11.827  0.00  0.00    +0.000 C 
ATOM      9  N   UNL     1      51.160   7.313  11.244  0.00  0.00    +0.000 N 
ATOM     10  O   UNL     1      50.241   9.294  11.851  0.00  0.00    +0.000 OA
ATOM     11  H   UNL     1      51.069   6.302  11.237  0.00  0.00    +0.000 HD
ATOM     12  H   UNL     1      51.951   7.767  10.814  0.00  0.00    +0.000 HD
ENDBRANCH   6   8
ENDBRANCH   1   2
BRANCH   1  13
ATOM     13  O   UNL     1      44.895   4.978  12.076  0.00  0.00    +0.000 OA
ATOM     14  H   UNL     1      43.996   5.314  12.243  0.00  0.00    +0.000 HD
ENDBRANCH   1  13
BRANCH   1  15
ATOM     15  C   UNL     1      45.830   5.718   9.935  0.00  0.00    +0.000 C 
BRANCH  15  16
ATOM     16  O   UNL     1      44.823   4.823   9.441  0.00  0.00    +0.000 OA
BRANCH  16  21
ATOM     17  C   UNL     1      46.683   2.738   7.095  0.00  0.00    +0.000 A 
ATOM     18  C   UNL     1      46.370   1.449   7.549  0.00  0.00    +0.000 A 
ATOM     19  C   UNL     1      45.506   1.269   8.627  0.00  0.00    +0.000 A 
ATOM     20  C   UNL     1      44.957   2.373   9.279  0.00  0.00    +0.000 A 
ATOM     21  C   UNL     1      45.269   3.666   8.856  0.00  0.00    +0.000 A 
ATOM     22  C   UNL     1      46.121   3.841   7.758  0.00  0.00    +0.000 A 
BRANCH  17  23
ATOM     23  C   UNL     1      47.643   2.926   5.947  0.00  0.00    +0.000 C 
BRANCH  23  24
ATOM     24  N   UNL     1      48.459   1.737   5.721  0.00  0.00    +0.000 NA
ATOM     25  H   UNL     1      49.428   1.953   5.948  0.00  0.00    +0.000 HD
ATOM     26  H   UNL     1      48.442   1.518   4.725  0.00  0.00    +0.000 HD
ENDBRANCH  23  24
ENDBRANCH  17  23
ENDBRANCH  16  21
ENDBRANCH  15  16
ENDBRANCH   1  15
TORSDOF 8
ENDMDL
MODEL 6
REMARK VINA RESULT:    -6.221      2.801      6.668
REMARK INTER + INTRA:          -9.556
REMARK INTER:                  -8.871
REMARK INTRA:                  -0.685
REMARK UNBOUND:                -0.789
REMARK  Name = 
REMARK  8 active torsions:
REMARK  status: ('A' for Active; 'I' for Inactive)
REMARK    1  A    between atoms: N_1  and  C_2
REMARK    2  A    between atoms: C_2  and  C_3
REMARK    3  A    between atoms: C_7  and  O_8
REMARK    4  A    between atoms: O_8  and  C_9
REMARK    5  A    between atoms: C_9  and  C_10
REMARK    6  A    between atoms: C_10  and  O_11
REMARK    7  A    between atoms: C_10  and  C_12
REMARK    8  A    between atoms: C_16  and  C_17
REMARK                            x       y       z     vdW  Elec       q    Type
REMARK                         _______ _______ _______ _____ _____    ______ ____
ROOT
ATOM      1  C   UNL     1      44.807   6.874  12.079  0.00  0.00    +0.000 C 
ENDROOT
BRANCH   1   2
ATOM      2  C   UNL     1      44.425   5.433  11.831  0.00  0.00    +0.000 A 
ATOM      3  C   UNL     1      43.791   4.680  12.826  0.00  0.00    +0.000 A 
ATOM      4  C   UNL     1      43.444   3.361  12.558  0.00  0.00    +0.000 A 
ATOM      5  N   UNL     1      43.681   2.742  11.384  0.00  0.00    +0.000 NA
ATOM      6  C   UNL     1      44.291   3.493  10.425  0.00  0.00    +0.000 A 
ATOM      7  C   UNL     1      44.671   4.817  10.600  0.00  0.00    +0.000 A 
BRANCH   6   8
ATOM      8  C   UNL     1      44.555   2.824   9.111  0.00  0.00    +0.000 C 
ATOM      9  N   UNL     1      44.339   3.600   8.006  0.00  0.00    +0.000 N 
ATOM     10  O   UNL     1      44.941   1.665   9.020  0.00  0.00    +0.000 OA
ATOM     11  H   UNL     1      44.028   4.559   8.124  0.00  0.00    +0.000 HD
ATOM     12  H   UNL     1      44.507   3.218   7.088  0.00  0.00    +0.000 HD
ENDBRANCH   6   8
ENDBRANCH   1   2
BRANCH   1  13
ATOM     13  O   UNL     1      44.105   7.699  11.146  0.00  0.00    +0.000 OA
ATOM     14  H   UNL     1      44.140   8.605  11.505  0.00  0.00    +0.000 HD
ENDBRANCH   1  13
BRANCH   1  15
ATOM     15  C   UNL     1      46.320   7.164  12.047  0.00  0.00    +0.000 C 
BRANCH  15  16
ATOM     16  O   UNL     1      47.072   6.004  12.431  0.00  0.00    +0.000 OA
BRANCH  16  21
ATOM     17  C   UNL     1      47.672   4.804  15.825  0.00  0.00    +0.000 A 
ATOM     18  C   UNL     1      48.582   5.755  16.307  0.00  0.00    +0.000 A 
ATOM     19  C   UNL     1      48.977   6.826  15.507  0.00  0.00    +0.000 A 
ATOM     20  C   UNL     1      48.484   6.950  14.209  0.00  0.00    +0.000 A 
ATOM     21  C   UNL     1      47.591   6.006  13.700  0.00  0.00    +0.000 A 
ATOM     22  C   UNL     1      47.180   4.944  14.516  0.00  0.00    +0.000 A 
BRANCH  17  23
ATOM     23  C   UNL     1      47.273   3.632  16.685  0.00  0.00    +0.000 C 
BRANCH  23  24
ATOM     24  N   UNL     1      46.826   4.056  18.008  0.00  0.00    +0.000 NA
ATOM     25  H   UNL     1      46.077   3.439  18.318  0.00  0.00    +0.000 HD
ATOM     26  H   UNL     1      46.415   4.985  17.928  0.00  0.00    +0.000 HD
ENDBRANCH  23  24
ENDBRANCH  17  23
ENDBRANCH  16  21
ENDBRANCH  15  16
ENDBRANCH   1  15
TORSDOF 8
ENDMDL
MODEL 7
REMARK VINA RESULT:    -6.083      3.890      7.338
REMARK INTER + INTRA:          -9.361
REMARK INTER:                  -8.961
REMARK INTRA:                  -0.400
REMARK UNBOUND:                -0.789
REMARK  Name = 
REMARK  8 active torsions:
REMARK  status: ('A' for Active; 'I' for Inactive)
REMARK    1  A    between atoms: N_1  and  C_2
REMARK    2  A    between atoms: C_2  and  C_3
REMARK    3  A    between atoms: C_7  and  O_8
REMARK    4  A    between atoms: O_8  and  C_9
REMARK    5  A    between atoms: C_9  and  C_10
REMARK    6  A    between atoms: C_10  and  O_11
REMARK    7  A    between atoms: C_10  and  C_12
REMARK    8  A    between atoms: C_16  and  C_17
REMARK                            x       y       z     vdW  Elec       q    Type
REMARK                         _______ _______ _______ _____ _____    ______ ____
ROOT
ATOM      1  C   UNL     1      46.140   5.358  13.613  0.00  0.00    +0.000 C 
ENDROOT
BRANCH   1   2
ATOM      2  C   UNL     1      45.199   4.822  12.559  0.00  0.00    +0.000 A 
ATOM      3  C   UNL     1      43.935   4.335  12.910  0.00  0.00    +0.000 A 
ATOM      4  C   UNL     1      43.091   3.861  11.913  0.00  0.00    +0.000 A 
ATOM      5  N   UNL     1      43.411   3.834  10.604  0.00  0.00    +0.000 NA
ATOM      6  C   UNL     1      44.641   4.320  10.279  0.00  0.00    +0.000 A 
ATOM      7  C   UNL     1      45.549   4.816  11.205  0.00  0.00    +0.000 A 
BRANCH   6   8
ATOM      8  C   UNL     1      45.011   4.306   8.828  0.00  0.00    +0.000 C 
ATOM      9  N   UNL     1      44.295   3.437   8.050  0.00  0.00    +0.000 N 
ATOM     10  O   UNL     1      45.889   5.020   8.357  0.00  0.00    +0.000 OA
ATOM     11  H   UNL     1      43.570   2.869   8.477  0.00  0.00    +0.000 HD
ATOM     12  H   UNL     1      44.483   3.383   7.061  0.00  0.00    +0.000 HD
ENDBRANCH   6   8
ENDBRANCH   1   2
BRANCH   1  13
ATOM     13  O   UNL     1      46.936   6.393  13.029  0.00  0.00    +0.000 OA
ATOM     14  H   UNL     1      47.858   6.078  13.067  0.00  0.00    +0.000 HD
ENDBRANCH   1  13
BRANCH   1  15
ATOM     15  C   UNL     1      47.023   4.298  14.299  0.00  0.00    +0.000 C 
BRANCH  15  16
ATOM     16  O   UNL     1      46.480   3.928  15.575  0.00  0.00    +0.000 OA
BRANCH  16  21
ATOM     17  C   UNL     1      49.421   2.833  17.436  0.00  0.00    +0.000 A 
ATOM     18  C   UNL     1      49.344   3.629  18.587  0.00  0.00    +0.000 A 
ATOM     19  C   UNL     1      48.285   4.518  18.763  0.00  0.00    +0.000 A 
ATOM     20  C   UNL     1      47.300   4.637  17.783  0.00  0.00    +0.000 A 
ATOM     21  C   UNL     1      47.366   3.868  16.620  0.00  0.00    +0.000 A 
ATOM     22  C   UNL     1      48.420   2.961  16.459  0.00  0.00    +0.000 A 
BRANCH  17  23
ATOM     23  C   UNL     1      50.587   1.896  17.239  0.00  0.00    +0.000 C 
BRANCH  23  24
ATOM     24  N   UNL     1      51.767   2.333  17.978  0.00  0.00    +0.000 NA
ATOM     25  H   UNL     1      52.594   1.906  17.564  0.00  0.00    +0.000 HD
ATOM     26  H   UNL     1      51.706   1.972  18.930  0.00  0.00    +0.000 HD
ENDBRANCH  23  24
ENDBRANCH  17  23
ENDBRANCH  16  21
ENDBRANCH  15  16
ENDBRANCH   1  15
TORSDOF 8
ENDMDL
MODEL 8
REMARK VINA RESULT:    -5.922      2.615      6.287
REMARK INTER + INTRA:          -9.133
REMARK INTER:                  -8.231
REMARK INTRA:                  -0.902
REMARK UNBOUND:                -0.789
REMARK  Name = 
REMARK  8 active torsions:
REMARK  status: ('A' for Active; 'I' for Inactive)
REMARK    1  A    between atoms: N_1  and  C_2
REMARK    2  A    between atoms: C_2  and  C_3
REMARK    3  A    between atoms: C_7  and  O_8
REMARK    4  A    between atoms: O_8  and  C_9
REMARK    5  A    between atoms: C_9  and  C_10
REMARK    6  A    between atoms: C_10  and  O_11
REMARK    7  A    between atoms: C_10  and  C_12
REMARK    8  A    between atoms: C_16  and  C_17
REMARK                            x       y       z     vdW  Elec       q    Type
REMARK                         _______ _______ _______ _____ _____    ______ ____
ROOT
ATOM      1  C   UNL     1      46.615   4.594  13.527  0.00  0.00    +0.000 C 
ENDROOT
BRANCH   1   2
ATOM      2  C   UNL     1      45.406   4.361  12.651  0.00  0.00    +0.000 A 
ATOM      3  C   UNL     1      44.128   4.731  13.083  0.00  0.00    +0.000 A 
ATOM      4  C   UNL     1      43.041   4.513  12.246  0.00  0.00    +0.000 A 
ATOM      5  N   UNL     1      43.132   3.956  11.021  0.00  0.00    +0.000 NA
ATOM      6  C   UNL     1      44.384   3.610  10.614  0.00  0.00    +0.000 A 
ATOM      7  C   UNL     1      45.528   3.793  11.379  0.00  0.00    +0.000 A 
BRANCH   6   8
ATOM      8  C   UNL     1      44.506   2.998   9.252  0.00  0.00    +0.000 C 
ATOM      9  N   UNL     1      44.609   1.634   9.231  0.00  0.00    +0.000 N 
ATOM     10  O   UNL     1      44.510   3.660   8.222  0.00  0.00    +0.000 OA
ATOM     11  H   UNL     1      44.593   1.120  10.107  0.00  0.00    +0.000 HD
ATOM     12  H   UNL     1      44.683   1.153   8.348  0.00  0.00    +0.000 HD
ENDBRANCH   6   8
ENDBRANCH   1   2
BRANCH   1  13
ATOM     13  O   UNL     1      46.351   4.049  14.823  0.00  0.00    +0.000 OA
ATOM     14  H   UNL     1      46.741   4.672  15.463  0.00  0.00    +0.000 HD
ENDBRANCH   1  13
BRANCH   1  15
ATOM     15  C   UNL     1      47.077   6.061  13.626  0.00  0.00    +0.000 C 
BRANCH  15  16
ATOM     16  O   UNL     1      47.317   6.612  12.322  0.00  0.00    +0.000 OA
BRANCH  16  21
ATOM     17  C   UNL     1      44.887   9.200  11.480  0.00  0.00    +0.000 A 
ATOM     18  C   UNL     1      45.639  10.368  11.665  0.00  0.00    +0.000 A 
ATOM     19  C   UNL     1      46.978  10.296  12.042  0.00  0.00    +0.000 A 
ATOM     20  C   UNL     1      47.579   9.056  12.260  0.00  0.00    +0.000 A 
ATOM     21  C   UNL     1      46.846   7.880  12.100  0.00  0.00    +0.000 A 
ATOM     22  C   UNL     1      45.506   7.957  11.699  0.00  0.00    +0.000 A 
BRANCH  17  23
ATOM     23  C   UNL     1      43.430   9.287  11.101  0.00  0.00    +0.000 C 
BRANCH  23  24
ATOM     24  N   UNL     1      42.834   7.967  10.925  0.00  0.00    +0.000 NA
ATOM     25  H   UNL     1      41.898   7.970  11.326  0.00  0.00    +0.000 HD
ATOM     26  H   UNL     1      43.374   7.293  11.467  0.00  0.00    +0.000 HD
ENDBRANCH  23  24
ENDBRANCH  17  23
ENDBRANCH  16  21
ENDBRANCH  15  16
ENDBRANCH   1  15
TORSDOF 8
ENDMDL
MODEL 9
REMARK VINA RESULT:    -5.846      3.327      6.027
REMARK INTER + INTRA:          -9.027
REMARK INTER:                  -7.994
REMARK INTRA:                  -1.033
REMARK UNBOUND:                -0.789
REMARK  Name = 
REMARK  8 active torsions:
REMARK  status: ('A' for Active; 'I' for Inactive)
REMARK    1  A    between atoms: N_1  and  C_2
REMARK    2  A    between atoms: C_2  and  C_3
REMARK    3  A    between atoms: C_7  and  O_8
REMARK    4  A    between atoms: O_8  and  C_9
REMARK    5  A    between atoms: C_9  and  C_10
REMARK    6  A    between atoms: C_10  and  O_11
REMARK    7  A    between atoms: C_10  and  C_12
REMARK    8  A    between atoms: C_16  and  C_17
REMARK                            x       y       z     vdW  Elec       q    Type
REMARK                         _______ _______ _______ _____ _____    ______ ____
ROOT
ATOM      1  C   UNL     1      43.805   7.027  11.945  0.00  0.00    +0.000 C 
ENDROOT
BRANCH   1   2
ATOM      2  C   UNL     1      44.444   5.694  12.256  0.00  0.00    +0.000 A 
ATOM      3  C   UNL     1      44.074   4.542  11.553  0.00  0.00    +0.000 A 
ATOM      4  C   UNL     1      44.691   3.335  11.857  0.00  0.00    +0.000 A 
ATOM      5  N   UNL     1      45.641   3.192  12.804  0.00  0.00    +0.000 NA
ATOM      6  C   UNL     1      45.995   4.324  13.472  0.00  0.00    +0.000 A 
ATOM      7  C   UNL     1      45.436   5.573  13.234  0.00  0.00    +0.000 A 
BRANCH   6   8
ATOM      8  C   UNL     1      47.055   4.185  14.521  0.00  0.00    +0.000 C 
ATOM      9  N   UNL     1      47.398   5.343  15.164  0.00  0.00    +0.000 N 
ATOM     10  O   UNL     1      47.583   3.114  14.796  0.00  0.00    +0.000 OA
ATOM     11  H   UNL     1      46.930   6.208  14.913  0.00  0.00    +0.000 HD
ATOM     12  H   UNL     1      48.097   5.322  15.890  0.00  0.00    +0.000 HD
ENDBRANCH   6   8
ENDBRANCH   1   2
BRANCH   1  13
ATOM     13  O   UNL     1      42.645   6.801  11.141  0.00  0.00    +0.000 OA
ATOM     14  H   UNL     1      42.036   6.269  11.687  0.00  0.00    +0.000 HD
ENDBRANCH   1  13
BRANCH   1  15
ATOM     15  C   UNL     1      44.740   8.063  11.291  0.00  0.00    +0.000 C 
BRANCH  15  16
ATOM     16  O   UNL     1      45.183   9.033  12.251  0.00  0.00    +0.000 OA
BRANCH  16  21
ATOM     17  C   UNL     1      48.826   8.863  12.340  0.00  0.00    +0.000 A 
ATOM     18  C   UNL     1      49.183  10.129  11.856  0.00  0.00    +0.000 A 
ATOM     19  C   UNL     1      48.203  11.062  11.525  0.00  0.00    +0.000 A 
ATOM     20  C   UNL     1      46.853  10.737  11.655  0.00  0.00    +0.000 A 
ATOM     21  C   UNL     1      46.473   9.477  12.119  0.00  0.00    +0.000 A 
ATOM     22  C   UNL     1      47.463   8.550  12.471  0.00  0.00    +0.000 A 
BRANCH  17  23
ATOM     23  C   UNL     1      49.892   7.847  12.667  0.00  0.00    +0.000 C 
BRANCH  23  24
ATOM     24  N   UNL     1      49.328   6.521  12.897  0.00  0.00    +0.000 NA
ATOM     25  H   UNL     1      49.583   6.210  13.832  0.00  0.00    +0.000 HD
ATOM     26  H   UNL     1      49.766   5.867  12.249  0.00  0.00    +0.000 HD
ENDBRANCH  23  24
ENDBRANCH  17  23
ENDBRANCH  16  21
ENDBRANCH  15  16
ENDBRANCH   1  15
TORSDOF 8
ENDMDL
