MODEL 1
REMARK VINA RESULT:    -8.664      0.000      0.000
REMARK INTER + INTRA:         -13.530
REMARK INTER:                 -12.210
REMARK INTRA:                  -1.320
REMARK UNBOUND:                -1.320
REMARK  Name = 
REMARK  11 active torsions:
REMARK  status: ('A' for Active; 'I' for Inactive)
REMARK    1  A    between atoms: C_1  and  C_2
REMARK    2  A    between atoms: N_4  and  C_5
REMARK    3  A    between atoms: C_7  and  C_8
REMARK    4  A    between atoms: C_13  and  C_14
REMARK    5  A    between atoms: C_14  and  C_15
REMARK    6  A    between atoms: C_14  and  C_16
REMARK    7  A    between atoms: C_14  and  C_17
REMARK    8  A    between atoms: C_17  and  N_18
REMARK    9  A    between atoms: N_18  and  C_19
REMARK   10  A    between atoms: C_22  and  C_23
REMARK   11  A    between atoms: C_30  and  C_31
REMARK                            x       y       z     vdW  Elec       q    Type
REMARK                         _______ _______ _______ _____ _____    ______ ____
ROOT
ATOM      1  C   UNL     1      47.483   6.930  13.786  0.00  0.00    +0.000 A 
ATOM      2  C   UNL     1      47.869   5.997  14.752  0.00  0.00    +0.000 A 
ATOM      3  C   UNL     1      47.212   4.770  14.899  0.00  0.00    +0.000 A 
ATOM      4  C   UNL     1      46.133   4.467  14.058  0.00  0.00    +0.000 A 
ATOM      5  C   UNL     1      45.661   5.386  13.109  0.00  0.00    +0.000 A 
ATOM      6  C   UNL     1      46.406   6.576  12.957  0.00  0.00    +0.000 A 
ENDROOT
BRANCH   1  10
ATOM      7  C   UNL     1      50.268   7.640  11.376  0.00  0.00    +0.000 C 
ATOM      8  C   UNL     1      50.202   8.749  12.423  0.00  0.00    +0.000 C 
ATOM      9  C   UNL     1      49.595   8.293  13.767  0.00  0.00    +0.000 C 
ATOM     10  N   UNL     1      48.135   8.144  13.681  0.00  0.00    +0.000 N 
ATOM     11  C   UNL     1      47.448   9.313  13.098  0.00  0.00    +0.000 C 
ATOM     12  C   UNL     1      48.111   9.721  11.763  0.00  0.00    +0.000 C 
ATOM     13  C   UNL     1      47.520  11.030  11.249  0.00  0.00    +0.000 C 
ATOM     14  O   UNL     1      49.531   9.915  11.906  0.00  0.00    +0.000 OA
ENDBRANCH   1  10
BRANCH   3  15
ATOM     15  C   UNL     1      47.612   3.802  15.982  0.00  0.00    +0.000 C 
ATOM     16  F   UNL     1      46.644   3.589  16.916  0.00  0.00    +0.000 F 
ATOM     17  F   UNL     1      47.912   2.571  15.477  0.00  0.00    +0.000 F 
ATOM     18  F   UNL     1      48.717   4.202  16.667  0.00  0.00    +0.000 F 
ENDBRANCH   3  15
BRANCH   5  19
ATOM     19  C   UNL     1      44.355   5.125  12.304  0.00  0.00    +0.000 C 
ATOM     20  C   UNL     1      43.167   5.102  13.283  0.00  0.00    +0.000 C 
ATOM     21  C   UNL     1      44.141   6.245  11.255  0.00  0.00    +0.000 C 
BRANCH  19  22
ATOM     22  C   UNL     1      44.427   3.753  11.555  0.00  0.00    +0.000 C 
BRANCH  22  23
ATOM     23  N   UNL     1      43.917   3.775  10.174  0.00  0.00    +0.000 N 
ATOM     24  H   UNL     1      43.464   4.652   9.930  0.00  0.00    +0.000 HD
BRANCH  23  25
ATOM     25  C   UNL     1      44.840   3.409   9.176  0.00  0.00    +0.000 A 
ATOM     26  C   UNL     1      45.251   2.074   9.080  0.00  0.00    +0.000 A 
ATOM     27  C   UNL     1      46.178   1.692   8.108  0.00  0.00    +0.000 A 
ATOM     28  C   UNL     1      46.703   2.672   7.278  0.00  0.00    +0.000 A 
ATOM     29  N   UNL     1      46.385   3.989   7.369  0.00  0.00    +0.000 NA
ATOM     30  C   UNL     1      45.484   4.312   8.325  0.00  0.00    +0.000 A 
BRANCH  28  31
ATOM     31  C   UNL     1      47.672   2.305   6.200  0.00  0.00    +0.000 C 
ATOM     32  N   UNL     1      47.700   3.152   5.125  0.00  0.00    +0.000 N 
ATOM     33  O   UNL     1      48.385   1.309   6.259  0.00  0.00    +0.000 OA
ATOM     34  H   UNL     1      47.074   3.949   5.105  0.00  0.00    +0.000 HD
ATOM     35  H   UNL     1      48.308   2.952   4.345  0.00  0.00    +0.000 HD
ENDBRANCH  28  31
ENDBRANCH  23  25
ENDBRANCH  22  23
ENDBRANCH  19  22
ENDBRANCH   5  19
TORSDOF 7
ENDMDL
MODEL 2
REMARK VINA RESULT:    -8.382      1.087      1.900
REMARK INTER + INTRA:         -13.132
REMARK INTER:                 -11.981
REMARK INTRA:                  -1.151
REMARK UNBOUND:                -1.320
REMARK  Name = 
REMARK  11 active torsions:
REMARK  status: ('A' for Active; 'I' for Inactive)
REMARK    1  A    between atoms: C_1  and  C_2
REMARK    2  A    between atoms: N_4  and  C_5
REMARK    3  A    between atoms: C_7  and  C_8
REMARK    4  A    between atoms: C_13  and  C_14
REMARK    5  A    between atoms: C_14  and  C_15
REMARK    6  A    between atoms: C_14  and  C_16
REMARK    7  A    between atoms: C_14  and  C_17
REMARK    8  A    between atoms: C_17  and  N_18
REMARK    9  A    between atoms: N_18  and  C_19
REMARK   10  A    between atoms: C_22  and  C_23
REMARK   11  A    between atoms: C_30  and  C_31
REMARK                            x       y       z     vdW  Elec       q    Type
REMARK                         _______ _______ _______ _____ _____    ______ ____
ROOT
ATOM      1  C   UNL     1      47.438   6.614  13.440  0.00  0.00    +0.000 A 
ATOM      2  C   UNL     1      47.857   5.864  14.543  0.00  0.00    +0.000 A 
ATOM      3  C   UNL     1      47.197   4.692  14.933  0.00  0.00    +0.000 A 
ATOM      4  C   UNL     1      46.082   4.259  14.202  0.00  0.00    +0.000 A 
ATOM      5  C   UNL     1      45.579   4.999  13.123  0.00  0.00    +0.000 A 
ATOM      6  C   UNL     1      46.326   6.132  12.730  0.00  0.00    +0.000 A 
ENDROOT
BRANCH   1  10
ATOM      7  C   UNL     1      50.386   8.017  15.287  0.00  0.00    +0.000 C 
ATOM      8  C   UNL     1      49.827   9.073  14.337  0.00  0.00    +0.000 C 
ATOM      9  C   UNL     1      48.326   8.892  14.026  0.00  0.00    +0.000 C 
ATOM     10  N   UNL     1      48.095   7.780  13.093  0.00  0.00    +0.000 N 
ATOM     11  C   UNL     1      48.939   7.829  11.883  0.00  0.00    +0.000 C 
ATOM     12  C   UNL     1      50.424   8.022  12.265  0.00  0.00    +0.000 C 
ATOM     13  C   UNL     1      51.272   8.252  11.019  0.00  0.00    +0.000 C 
ATOM     14  O   UNL     1      50.612   9.157  13.131  0.00  0.00    +0.000 OA
ENDBRANCH   1  10
BRANCH   3  15
ATOM     15  C   UNL     1      47.634   3.928  16.156  0.00  0.00    +0.000 C 
ATOM     16  F   UNL     1      48.052   2.660  15.893  0.00  0.00    +0.000 F 
ATOM     17  F   UNL     1      48.677   4.536  16.789  0.00  0.00    +0.000 F 
ATOM     18  F   UNL     1      46.648   3.816  17.088  0.00  0.00    +0.000 F 
ENDBRANCH   3  15
BRANCH   5  19
ATOM     19  C   UNL     1      44.240   4.617  12.429  0.00  0.00    +0.000 C 
ATOM     20  C   UNL     1      44.115   3.083  12.406  0.00  0.00    +0.000 C 
ATOM     21  C   UNL     1      43.044   5.223  13.207  0.00  0.00    +0.000 C 
BRANCH  19  22
ATOM     22  C   UNL     1      44.199   5.156  10.961  0.00  0.00    +0.000 C 
BRANCH  22  23
ATOM     23  N   UNL     1      43.756   4.176   9.955  0.00  0.00    +0.000 N 
ATOM     24  H   UNL     1      42.969   4.502   9.399  0.00  0.00    +0.000 HD
BRANCH  23  25
ATOM     25  C   UNL     1      44.765   3.664   9.116  0.00  0.00    +0.000 A 
ATOM     26  C   UNL     1      45.521   4.548   8.337  0.00  0.00    +0.000 A 
ATOM     27  C   UNL     1      46.516   4.060   7.487  0.00  0.00    +0.000 A 
ATOM     28  C   UNL     1      46.702   2.688   7.409  0.00  0.00    +0.000 A 
ATOM     29  N   UNL     1      45.955   1.785   8.097  0.00  0.00    +0.000 NA
ATOM     30  C   UNL     1      45.004   2.303   8.906  0.00  0.00    +0.000 A 
BRANCH  28  31
ATOM     31  C   UNL     1      47.778   2.122   6.539  0.00  0.00    +0.000 C 
ATOM     32  N   UNL     1      48.098   2.875   5.441  0.00  0.00    +0.000 N 
ATOM     33  O   UNL     1      48.330   1.054   6.776  0.00  0.00    +0.000 OA
ATOM     34  H   UNL     1      47.597   3.738   5.268  0.00  0.00    +0.000 HD
ATOM     35  H   UNL     1      48.794   2.541   4.791  0.00  0.00    +0.000 HD
ENDBRANCH  28  31
ENDBRANCH  23  25
ENDBRANCH  22  23
ENDBRANCH  19  22
ENDBRANCH   5  19
TORSDOF 7
ENDMDL
MODEL 3
REMARK VINA RESULT:    -8.333      3.435      4.368
REMARK INTER + INTRA:         -13.063
REMARK INTER:                 -11.853
REMARK INTRA:                  -1.209
REMARK UNBOUND:                -1.320
REMARK  Name = 
REMARK  11 active torsions:
REMARK  status: ('A' for Active; 'I' for Inactive)
REMARK    1  A    between atoms: C_1  and  C_2
REMARK    2  A    between atoms: N_4  and  C_5
REMARK    3  A    between atoms: C_7  and  C_8
REMARK    4  A    between atoms: C_13  and  C_14
REMARK    5  A    between atoms: C_14  and  C_15
REMARK    6  A    between atoms: C_14  and  C_16
REMARK    7  A    between atoms: C_14  and  C_17
REMARK    8  A    between atoms: C_17  and  N_18
REMARK    9  A    between atoms: N_18  and  C_19
REMARK   10  A    between atoms: C_22  and  C_23
REMARK   11  A    between atoms: C_30  and  C_31
REMARK                            x       y       z     vdW  Elec       q    Type
REMARK                         _______ _______ _______ _____ _____    ______ ____
ROOT
ATOM      1  C   UNL     1      46.320   8.557  12.327  0.00  0.00    +0.000 A 
ATOM      2  C   UNL     1      45.491   9.480  11.682  0.00  0.00    +0.000 A 
ATOM      3  C   UNL     1      44.224   9.127  11.204  0.00  0.00    +0.000 A 
ATOM      4  C   UNL     1      43.772   7.811  11.370  0.00  0.00    +0.000 A 
ATOM      5  C   UNL     1      44.580   6.826  11.956  0.00  0.00    +0.000 A 
ATOM      6  C   UNL     1      45.818   7.255  12.483  0.00  0.00    +0.000 A 
ENDROOT
BRANCH   1  10
ATOM      7  C   UNL     1      48.453   6.508  14.634  0.00  0.00    +0.000 C 
ATOM      8  C   UNL     1      49.018   7.923  14.535  0.00  0.00    +0.000 C 
ATOM      9  C   UNL     1      47.958   8.988  14.185  0.00  0.00    +0.000 C 
ATOM     10  N   UNL     1      47.576   8.929  12.767  0.00  0.00    +0.000 N 
ATOM     11  C   UNL     1      48.724   8.921  11.838  0.00  0.00    +0.000 C 
ATOM     12  C   UNL     1      49.749   7.842  12.253  0.00  0.00    +0.000 C 
ATOM     13  C   UNL     1      51.013   7.950  11.407  0.00  0.00    +0.000 C 
ATOM     14  O   UNL     1      50.139   7.974  13.632  0.00  0.00    +0.000 OA
ENDBRANCH   1  10
BRANCH   3  15
ATOM     15  C   UNL     1      43.369  10.124  10.465  0.00  0.00    +0.000 C 
ATOM     16  F   UNL     1      42.065   9.753  10.350  0.00  0.00    +0.000 F 
ATOM     17  F   UNL     1      43.352  11.338  11.088  0.00  0.00    +0.000 F 
ATOM     18  F   UNL     1      43.808  10.362   9.200  0.00  0.00    +0.000 F 
ENDBRANCH   3  15
BRANCH   5  19
ATOM     19  C   UNL     1      44.152   5.330  11.975  0.00  0.00    +0.000 C 
ATOM     20  C   UNL     1      45.374   4.471  12.351  0.00  0.00    +0.000 C 
ATOM     21  C   UNL     1      43.025   5.110  13.015  0.00  0.00    +0.000 C 
BRANCH  19  22
ATOM     22  C   UNL     1      43.625   4.883  10.572  0.00  0.00    +0.000 C 
BRANCH  22  23
ATOM     23  N   UNL     1      43.825   3.457  10.261  0.00  0.00    +0.000 N 
ATOM     24  H   UNL     1      42.954   2.958  10.097  0.00  0.00    +0.000 HD
BRANCH  23  25
ATOM     25  C   UNL     1      44.747   3.181   9.233  0.00  0.00    +0.000 A 
ATOM     26  C   UNL     1      45.281   1.892   9.121  0.00  0.00    +0.000 A 
ATOM     27  C   UNL     1      46.208   1.600   8.119  0.00  0.00    +0.000 A 
ATOM     28  C   UNL     1      46.609   2.624   7.274  0.00  0.00    +0.000 A 
ATOM     29  N   UNL     1      46.169   3.905   7.378  0.00  0.00    +0.000 NA
ATOM     30  C   UNL     1      45.273   4.140   8.363  0.00  0.00    +0.000 A 
BRANCH  28  31
ATOM     31  C   UNL     1      47.574   2.351   6.164  0.00  0.00    +0.000 C 
ATOM     32  N   UNL     1      47.530   3.236   5.120  0.00  0.00    +0.000 N 
ATOM     33  O   UNL     1      48.342   1.396   6.174  0.00  0.00    +0.000 OA
ATOM     34  H   UNL     1      46.860   3.995   5.142  0.00  0.00    +0.000 HD
ATOM     35  H   UNL     1      48.132   3.098   4.322  0.00  0.00    +0.000 HD
ENDBRANCH  28  31
ENDBRANCH  23  25
ENDBRANCH  22  23
ENDBRANCH  19  22
ENDBRANCH   5  19
TORSDOF 7
ENDMDL
MODEL 4
REMARK VINA RESULT:    -7.866      3.157      4.303
REMARK INTER + INTRA:         -12.405
REMARK INTER:                 -11.010
REMARK INTRA:                  -1.395
REMARK UNBOUND:                -1.320
REMARK  Name = 
REMARK  11 active torsions:
REMARK  status: ('A' for Active; 'I' for Inactive)
REMARK    1  A    between atoms: C_1  and  C_2
REMARK    2  A    between atoms: N_4  and  C_5
REMARK    3  A    between atoms: C_7  and  C_8
REMARK    4  A    between atoms: C_13  and  C_14
REMARK    5  A    between atoms: C_14  and  C_15
REMARK    6  A    between atoms: C_14  and  C_16
REMARK    7  A    between atoms: C_14  and  C_17
REMARK    8  A    between atoms: C_17  and  N_18
REMARK    9  A    between atoms: N_18  and  C_19
REMARK   10  A    between atoms: C_22  and  C_23
REMARK   11  A    between atoms: C_30  and  C_31
REMARK                            x       y       z     vdW  Elec       q    Type
REMARK                         _______ _______ _______ _____ _____    ______ ____
ROOT
ATOM      1  C   UNL     1      46.772   6.773  13.054  0.00  0.00    +0.000 A 
ATOM      2  C   UNL     1      46.650   8.090  12.603  0.00  0.00    +0.000 A 
ATOM      3  C   UNL     1      45.478   8.560  11.999  0.00  0.00    +0.000 A 
ATOM      4  C   UNL     1      44.395   7.685  11.836  0.00  0.00    +0.000 A 
ATOM      5  C   UNL     1      44.477   6.337  12.215  0.00  0.00    +0.000 A 
ATOM      6  C   UNL     1      45.656   5.938  12.883  0.00  0.00    +0.000 A 
ENDROOT
BRANCH   1  10
ATOM      7  C   UNL     1      48.902   8.815  15.370  0.00  0.00    +0.000 C 
ATOM      8  C   UNL     1      49.685   7.594  14.897  0.00  0.00    +0.000 C 
ATOM      9  C   UNL     1      49.225   7.058  13.525  0.00  0.00    +0.000 C 
ATOM     10  N   UNL     1      47.951   6.332  13.625  0.00  0.00    +0.000 N 
ATOM     11  C   UNL     1      47.928   5.308  14.688  0.00  0.00    +0.000 C 
ATOM     12  C   UNL     1      48.410   5.907  16.028  0.00  0.00    +0.000 C 
ATOM     13  C   UNL     1      48.557   4.815  17.082  0.00  0.00    +0.000 C 
ATOM     14  O   UNL     1      49.688   6.557  15.897  0.00  0.00    +0.000 OA
ENDBRANCH   1  10
BRANCH   3  15
ATOM     15  C   UNL     1      45.388   9.968  11.472  0.00  0.00    +0.000 C 
ATOM     16  F   UNL     1      44.742  10.070  10.278  0.00  0.00    +0.000 F 
ATOM     17  F   UNL     1      44.712  10.788  12.327  0.00  0.00    +0.000 F 
ATOM     18  F   UNL     1      46.608  10.544  11.292  0.00  0.00    +0.000 F 
ENDBRANCH   3  15
BRANCH   5  19
ATOM     19  C   UNL     1      43.346   5.326  11.869  0.00  0.00    +0.000 C 
ATOM     20  C   UNL     1      43.362   4.191  12.909  0.00  0.00    +0.000 C 
ATOM     21  C   UNL     1      41.968   6.035  11.898  0.00  0.00    +0.000 C 
BRANCH  19  22
ATOM     22  C   UNL     1      43.559   4.717  10.443  0.00  0.00    +0.000 C 
BRANCH  22  23
ATOM     23  N   UNL     1      44.150   3.368  10.429  0.00  0.00    +0.000 N 
ATOM     24  H   UNL     1      43.459   2.629  10.528  0.00  0.00    +0.000 HD
BRANCH  23  25
ATOM     25  C   UNL     1      45.010   3.091   9.349  0.00  0.00    +0.000 A 
ATOM     26  C   UNL     1      45.412   4.135   8.508  0.00  0.00    +0.000 A 
ATOM     27  C   UNL     1      46.252   3.880   7.422  0.00  0.00    +0.000 A 
ATOM     28  C   UNL     1      46.637   2.569   7.182  0.00  0.00    +0.000 A 
ATOM     29  N   UNL     1      46.226   1.512   7.929  0.00  0.00    +0.000 NA
ATOM     30  C   UNL     1      45.414   1.808   8.969  0.00  0.00    +0.000 A 
BRANCH  28  31
ATOM     31  C   UNL     1      47.563   2.253   6.051  0.00  0.00    +0.000 C 
ATOM     32  N   UNL     1      47.463   3.079   4.965  0.00  0.00    +0.000 N 
ATOM     33  O   UNL     1      48.349   1.312   6.081  0.00  0.00    +0.000 OA
ATOM     34  H   UNL     1      46.781   3.828   4.972  0.00  0.00    +0.000 HD
ATOM     35  H   UNL     1      48.036   2.909   4.152  0.00  0.00    +0.000 HD
ENDBRANCH  28  31
ENDBRANCH  23  25
ENDBRANCH  22  23
ENDBRANCH  19  22
ENDBRANCH   5  19
TORSDOF 7
ENDMDL
MODEL 5
REMARK VINA RESULT:    -7.830      2.792      4.364
REMARK INTER + INTRA:         -12.354
REMARK INTER:                 -11.259
REMARK INTRA:                  -1.096
REMARK UNBOUND:                -1.320
REMARK  Name = 
REMARK  11 active torsions:
REMARK  status: ('A' for Active; 'I' for Inactive)
REMARK    1  A    between atoms: C_1  and  C_2
REMARK    2  A    between atoms: N_4  and  C_5
REMARK    3  A    between atoms: C_7  and  C_8
REMARK    4  A    between atoms: C_13  and  C_14
REMARK    5  A    between atoms: C_14  and  C_15
REMARK    6  A    between atoms: C_14  and  C_16
REMARK    7  A    between atoms: C_14  and  C_17
REMARK    8  A    between atoms: C_17  and  N_18
REMARK    9  A    between atoms: N_18  and  C_19
REMARK   10  A    between atoms: C_22  and  C_23
REMARK   11  A    between atoms: C_30  and  C_31
REMARK                            x       y       z     vdW  Elec       q    Type
REMARK                         _______ _______ _______ _____ _____    ______ ____
ROOT
ATOM      1  C   UNL     1      47.213   4.926  15.282  0.00  0.00    +0.000 A 
ATOM      2  C   UNL     1      48.176   5.799  14.767  0.00  0.00    +0.000 A 
ATOM      3  C   UNL     1      47.991   6.470  13.553  0.00  0.00    +0.000 A 
ATOM      4  C   UNL     1      46.810   6.260  12.827  0.00  0.00    +0.000 A 
ATOM      5  C   UNL     1      45.834   5.352  13.263  0.00  0.00    +0.000 A 
ATOM      6  C   UNL     1      46.041   4.759  14.528  0.00  0.00    +0.000 A 
ENDROOT
BRANCH   1  10
ATOM      7  C   UNL     1      50.530   4.744  17.026  0.00  0.00    +0.000 C 
ATOM      8  C   UNL     1      49.576   3.717  17.630  0.00  0.00    +0.000 C 
ATOM      9  C   UNL     1      48.480   3.242  16.653  0.00  0.00    +0.000 C 
ATOM     10  N   UNL     1      47.435   4.260  16.472  0.00  0.00    +0.000 N 
ATOM     11  C   UNL     1      46.896   4.794  17.738  0.00  0.00    +0.000 C 
ATOM     12  C   UNL     1      48.044   5.239  18.672  0.00  0.00    +0.000 C 
ATOM     13  C   UNL     1      47.501   5.623  20.044  0.00  0.00    +0.000 C 
ATOM     14  O   UNL     1      49.013   4.192  18.868  0.00  0.00    +0.000 OA
ENDBRANCH   1  10
BRANCH   3  15
ATOM     15  C   UNL     1      49.065   7.366  12.991  0.00  0.00    +0.000 C 
ATOM     16  F   UNL     1      49.504   6.992  11.758  0.00  0.00    +0.000 F 
ATOM     17  F   UNL     1      48.633   8.652  12.853  0.00  0.00    +0.000 F 
ATOM     18  F   UNL     1      50.169   7.428  13.783  0.00  0.00    +0.000 F 
ENDBRANCH   3  15
BRANCH   5  19
ATOM     19  C   UNL     1      44.613   4.983  12.372  0.00  0.00    +0.000 C 
ATOM     20  C   UNL     1      43.358   4.905  13.260  0.00  0.00    +0.000 C 
ATOM     21  C   UNL     1      44.406   6.059  11.276  0.00  0.00    +0.000 C 
BRANCH  19  22
ATOM     22  C   UNL     1      44.831   3.600  11.673  0.00  0.00    +0.000 C 
BRANCH  22  23
ATOM     23  N   UNL     1      44.153   3.449  10.374  0.00  0.00    +0.000 N 
ATOM     24  H   UNL     1      43.523   4.219  10.162  0.00  0.00    +0.000 HD
BRANCH  23  25
ATOM     25  C   UNL     1      44.992   3.188   9.274  0.00  0.00    +0.000 A 
ATOM     26  C   UNL     1      45.473   1.889   9.074  0.00  0.00    +0.000 A 
ATOM     27  C   UNL     1      46.319   1.610   7.999  0.00  0.00    +0.000 A 
ATOM     28  C   UNL     1      46.695   2.656   7.169  0.00  0.00    +0.000 A 
ATOM     29  N   UNL     1      46.306   3.945   7.354  0.00  0.00    +0.000 NA
ATOM     30  C   UNL     1      45.488   4.166   8.408  0.00  0.00    +0.000 A 
BRANCH  28  31
ATOM     31  C   UNL     1      47.571   2.400   5.985  0.00  0.00    +0.000 C 
ATOM     32  N   UNL     1      47.460   3.310   4.967  0.00  0.00    +0.000 N 
ATOM     33  O   UNL     1      48.328   1.438   5.915  0.00  0.00    +0.000 OA
ATOM     34  H   UNL     1      46.802   4.075   5.056  0.00  0.00    +0.000 HD
ATOM     35  H   UNL     1      47.999   3.185   4.123  0.00  0.00    +0.000 HD
ENDBRANCH  28  31
ENDBRANCH  23  25
ENDBRANCH  22  23
ENDBRANCH  19  22
ENDBRANCH   5  19
TORSDOF 7
ENDMDL
MODEL 6
REMARK VINA RESULT:    -7.605      3.084      6.765
REMARK INTER + INTRA:         -12.037
REMARK INTER:                 -10.198
REMARK INTRA:                  -1.838
REMARK UNBOUND:                -1.320
REMARK  Name = 
REMARK  11 active torsions:
REMARK  status: ('A' for Active; 'I' for Inactive)
REMARK    1  A    between atoms: C_1  and  C_2
REMARK    2  A    between atoms: N_4  and  C_5
REMARK    3  A    between atoms: C_7  and  C_8
REMARK    4  A    between atoms: C_13  and  C_14
REMARK    5  A    between atoms: C_14  and  C_15
REMARK    6  A    between atoms: C_14  and  C_16
REMARK    7  A    between atoms: C_14  and  C_17
REMARK    8  A    between atoms: C_17  and  N_18
REMARK    9  A    between atoms: N_18  and  C_19
REMARK   10  A    between atoms: C_22  and  C_23
REMARK   11  A    between atoms: C_30  and  C_31
REMARK                            x       y       z     vdW  Elec       q    Type
REMARK                         _______ _______ _______ _____ _____    ______ ____
ROOT
ATOM      1  C   UNL     1      46.093   4.333  13.065  0.00  0.00    +0.000 A 
ATOM      2  C   UNL     1      46.495   3.756  14.273  0.00  0.00    +0.000 A 
ATOM      3  C   UNL     1      47.342   4.423  15.166  0.00  0.00    +0.000 A 
ATOM      4  C   UNL     1      47.806   5.706  14.840  0.00  0.00    +0.000 A 
ATOM      5  C   UNL     1      47.485   6.313  13.617  0.00  0.00    +0.000 A 
ATOM      6  C   UNL     1      46.571   5.624  12.789  0.00  0.00    +0.000 A 
ENDROOT
BRANCH   1  10
ATOM      7  C   UNL     1      42.736   5.529  11.897  0.00  0.00    +0.000 C 
ATOM      8  C   UNL     1      42.904   4.053  11.547  0.00  0.00    +0.000 C 
ATOM      9  C   UNL     1      43.875   3.303  12.483  0.00  0.00    +0.000 C 
ATOM     10  N   UNL     1      45.276   3.639  12.193  0.00  0.00    +0.000 N 
ATOM     11  C   UNL     1      45.636   3.524  10.766  0.00  0.00    +0.000 C 
ATOM     12  C   UNL     1      44.619   4.286   9.887  0.00  0.00    +0.000 C 
ATOM     13  C   UNL     1      44.883   4.022   8.409  0.00  0.00    +0.000 C 
ATOM     14  O   UNL     1      43.264   3.884  10.162  0.00  0.00    +0.000 OA
ENDBRANCH   1  10
BRANCH   3  15
ATOM     15  C   UNL     1      47.805   3.761  16.438  0.00  0.00    +0.000 C 
ATOM     16  F   UNL     1      46.811   3.558  17.346  0.00  0.00    +0.000 F 
ATOM     17  F   UNL     1      48.344   2.531  16.202  0.00  0.00    +0.000 F 
ATOM     18  F   UNL     1      48.768   4.472  17.084  0.00  0.00    +0.000 F 
ENDBRANCH   3  15
BRANCH   5  19
ATOM     19  C   UNL     1      48.144   7.652  13.178  0.00  0.00    +0.000 C 
ATOM     20  C   UNL     1      49.442   7.852  13.981  0.00  0.00    +0.000 C 
ATOM     21  C   UNL     1      48.472   7.615  11.664  0.00  0.00    +0.000 C 
BRANCH  19  22
ATOM     22  C   UNL     1      47.185   8.860  13.448  0.00  0.00    +0.000 C 
BRANCH  22  23
ATOM     23  N   UNL     1      46.977   9.753  12.295  0.00  0.00    +0.000 N 
ATOM     24  H   UNL     1      47.563   9.518  11.497  0.00  0.00    +0.000 HD
BRANCH  23  25
ATOM     25  C   UNL     1      45.640   9.920  11.887  0.00  0.00    +0.000 A 
ATOM     26  C   UNL     1      44.928   8.814  11.408  0.00  0.00    +0.000 A 
ATOM     27  C   UNL     1      43.606   8.960  10.983  0.00  0.00    +0.000 A 
ATOM     28  C   UNL     1      43.041  10.227  11.011  0.00  0.00    +0.000 A 
ATOM     29  N   UNL     1      43.707  11.342  11.408  0.00  0.00    +0.000 NA
ATOM     30  C   UNL     1      44.985  11.152  11.810  0.00  0.00    +0.000 A 
BRANCH  28  31
ATOM     31  C   UNL     1      41.618  10.426  10.598  0.00  0.00    +0.000 C 
ATOM     32  N   UNL     1      40.697   9.699  11.304  0.00  0.00    +0.000 N 
ATOM     33  O   UNL     1      41.291  11.174   9.684  0.00  0.00    +0.000 OA
ATOM     34  H   UNL     1      41.014   9.072  12.034  0.00  0.00    +0.000 HD
ATOM     35  H   UNL     1      39.719   9.759  11.062  0.00  0.00    +0.000 HD
ENDBRANCH  28  31
ENDBRANCH  23  25
ENDBRANCH  22  23
ENDBRANCH  19  22
ENDBRANCH   5  19
TORSDOF 7
ENDMDL
MODEL 7
REMARK VINA RESULT:    -7.226      4.226      8.020
REMARK INTER + INTRA:         -11.502
REMARK INTER:                 -10.094
REMARK INTRA:                  -1.409
REMARK UNBOUND:                -1.320
REMARK  Name = 
REMARK  11 active torsions:
REMARK  status: ('A' for Active; 'I' for Inactive)
REMARK    1  A    between atoms: C_1  and  C_2
REMARK    2  A    between atoms: N_4  and  C_5
REMARK    3  A    between atoms: C_7  and  C_8
REMARK    4  A    between atoms: C_13  and  C_14
REMARK    5  A    between atoms: C_14  and  C_15
REMARK    6  A    between atoms: C_14  and  C_16
REMARK    7  A    between atoms: C_14  and  C_17
REMARK    8  A    between atoms: C_17  and  N_18
REMARK    9  A    between atoms: N_18  and  C_19
REMARK   10  A    between atoms: C_22  and  C_23
REMARK   11  A    between atoms: C_30  and  C_31
REMARK                            x       y       z     vdW  Elec       q    Type
REMARK                         _______ _______ _______ _____ _____    ______ ____
ROOT
ATOM      1  C   UNL     1      45.554   7.090  11.634  0.00  0.00    +0.000 A 
ATOM      2  C   UNL     1      44.500   7.932  11.268  0.00  0.00    +0.000 A 
ATOM      3  C   UNL     1      44.613   9.326  11.326  0.00  0.00    +0.000 A 
ATOM      4  C   UNL     1      45.815   9.897  11.768  0.00  0.00    +0.000 A 
ATOM      5  C   UNL     1      46.887   9.105  12.203  0.00  0.00    +0.000 A 
ATOM      6  C   UNL     1      46.742   7.708  12.056  0.00  0.00    +0.000 A 
ENDROOT
BRANCH   1  10
ATOM      7  C   UNL     1      42.256   5.310  11.808  0.00  0.00    +0.000 C 
ATOM      8  C   UNL     1      43.390   4.311  12.021  0.00  0.00    +0.000 C 
ATOM      9  C   UNL     1      44.671   4.945  12.603  0.00  0.00    +0.000 C 
ATOM     10  N   UNL     1      45.403   5.717  11.590  0.00  0.00    +0.000 N 
ATOM     11  C   UNL     1      45.637   4.982  10.331  0.00  0.00    +0.000 C 
ATOM     12  C   UNL     1      44.319   4.365   9.811  0.00  0.00    +0.000 C 
ATOM     13  C   UNL     1      44.586   3.459   8.614  0.00  0.00    +0.000 C 
ATOM     14  O   UNL     1      43.665   3.569  10.817  0.00  0.00    +0.000 OA
ENDBRANCH   1  10
BRANCH   3  15
ATOM     15  C   UNL     1      43.447  10.214  10.977  0.00  0.00    +0.000 C 
ATOM     16  F   UNL     1      42.340   9.534  10.568  0.00  0.00    +0.000 F 
ATOM     17  F   UNL     1      43.044  10.965  12.042  0.00  0.00    +0.000 F 
ATOM     18  F   UNL     1      43.735  11.099   9.985  0.00  0.00    +0.000 F 
ENDBRANCH   3  15
BRANCH   5  19
ATOM     19  C   UNL     1      48.148   9.736  12.862  0.00  0.00    +0.000 C 
ATOM     20  C   UNL     1      49.401   9.191  12.154  0.00  0.00    +0.000 C 
ATOM     21  C   UNL     1      48.105  11.279  12.728  0.00  0.00    +0.000 C 
BRANCH  19  22
ATOM     22  C   UNL     1      48.221   9.374  14.383  0.00  0.00    +0.000 C 
BRANCH  22  23
ATOM     23  N   UNL     1      49.292   8.428  14.742  0.00  0.00    +0.000 N 
ATOM     24  H   UNL     1      50.006   8.840  15.337  0.00  0.00    +0.000 HD
BRANCH  23  25
ATOM     25  C   UNL     1      48.864   7.197  15.277  0.00  0.00    +0.000 A 
ATOM     26  C   UNL     1      49.181   6.880  16.603  0.00  0.00    +0.000 A 
ATOM     27  C   UNL     1      48.780   5.658  17.148  0.00  0.00    +0.000 A 
ATOM     28  C   UNL     1      48.102   4.764  16.333  0.00  0.00    +0.000 A 
ATOM     29  N   UNL     1      47.824   4.997  15.024  0.00  0.00    +0.000 NA
ATOM     30  C   UNL     1      48.232   6.192  14.540  0.00  0.00    +0.000 A 
BRANCH  28  31
ATOM     31  C   UNL     1      47.623   3.459  16.883  0.00  0.00    +0.000 C 
ATOM     32  N   UNL     1      48.547   2.448  16.879  0.00  0.00    +0.000 N 
ATOM     33  O   UNL     1      46.482   3.292  17.297  0.00  0.00    +0.000 OA
ATOM     34  H   UNL     1      49.472   2.623  16.503  0.00  0.00    +0.000 HD
ATOM     35  H   UNL     1      48.287   1.531  17.208  0.00  0.00    +0.000 HD
ENDBRANCH  28  31
ENDBRANCH  23  25
ENDBRANCH  22  23
ENDBRANCH  19  22
ENDBRANCH   5  19
TORSDOF 7
ENDMDL
MODEL 8
REMARK VINA RESULT:    -7.113      5.032      8.537
REMARK INTER + INTRA:         -11.343
REMARK INTER:                 -10.205
REMARK INTRA:                  -1.138
REMARK UNBOUND:                -1.320
REMARK  Name = 
REMARK  11 active torsions:
REMARK  status: ('A' for Active; 'I' for Inactive)
REMARK    1  A    between atoms: C_1  and  C_2
REMARK    2  A    between atoms: N_4  and  C_5
REMARK    3  A    between atoms: C_7  and  C_8
REMARK    4  A    between atoms: C_13  and  C_14
REMARK    5  A    between atoms: C_14  and  C_15
REMARK    6  A    between atoms: C_14  and  C_16
REMARK    7  A    between atoms: C_14  and  C_17
REMARK    8  A    between atoms: C_17  and  N_18
REMARK    9  A    between atoms: N_18  and  C_19
REMARK   10  A    between atoms: C_22  and  C_23
REMARK   11  A    between atoms: C_30  and  C_31
REMARK                            x       y       z     vdW  Elec       q    Type
REMARK                         _______ _______ _______ _____ _____    ______ ____
ROOT
ATOM      1  C   UNL     1      46.140   4.915  13.390  0.00  0.00    +0.000 A 
ATOM      2  C   UNL     1      46.622   5.955  12.589  0.00  0.00    +0.000 A 
ATOM      3  C   UNL     1      47.660   6.794  13.012  0.00  0.00    +0.000 A 
ATOM      4  C   UNL     1      48.232   6.591  14.276  0.00  0.00    +0.000 A 
ATOM      5  C   UNL     1      47.753   5.603  15.148  0.00  0.00    +0.000 A 
ATOM      6  C   UNL     1      46.754   4.742  14.641  0.00  0.00    +0.000 A 
ENDROOT
BRANCH   1  10
ATOM      7  C   UNL     1      43.212   6.154  11.399  0.00  0.00    +0.000 C 
ATOM      8  C   UNL     1      42.914   4.755  11.933  0.00  0.00    +0.000 C 
ATOM      9  C   UNL     1      43.682   4.411  13.226  0.00  0.00    +0.000 C 
ATOM     10  N   UNL     1      45.097   4.119  12.955  0.00  0.00    +0.000 N 
ATOM     11  C   UNL     1      45.309   3.139  11.872  0.00  0.00    +0.000 C 
ATOM     12  C   UNL     1      44.504   3.537  10.615  0.00  0.00    +0.000 C 
ATOM     13  C   UNL     1      44.578   2.439   9.560  0.00  0.00    +0.000 C 
ATOM     14  O   UNL     1      43.113   3.756  10.915  0.00  0.00    +0.000 OA
ENDBRANCH   1  10
BRANCH   3  15
ATOM     15  C   UNL     1      48.127   7.941  12.154  0.00  0.00    +0.000 C 
ATOM     16  F   UNL     1      48.710   7.553  10.987  0.00  0.00    +0.000 F 
ATOM     17  F   UNL     1      47.097   8.760  11.797  0.00  0.00    +0.000 F 
ATOM     18  F   UNL     1      49.033   8.736  12.784  0.00  0.00    +0.000 F 
ENDBRANCH   3  15
BRANCH   5  19
ATOM     19  C   UNL     1      48.262   5.497  16.614  0.00  0.00    +0.000 C 
ATOM     20  C   UNL     1      48.206   6.893  17.260  0.00  0.00    +0.000 C 
ATOM     21  C   UNL     1      47.372   4.517  17.420  0.00  0.00    +0.000 C 
BRANCH  19  22
ATOM     22  C   UNL     1      49.737   4.974  16.655  0.00  0.00    +0.000 C 
BRANCH  22  23
ATOM     23  N   UNL     1      50.173   4.456  17.963  0.00  0.00    +0.000 N 
ATOM     24  H   UNL     1      49.400   4.274  18.598  0.00  0.00    +0.000 HD
BRANCH  23  25
ATOM     25  C   UNL     1      51.040   3.347  17.921  0.00  0.00    +0.000 A 
ATOM     26  C   UNL     1      52.367   3.501  18.340  0.00  0.00    +0.000 A 
ATOM     27  C   UNL     1      53.249   2.419  18.292  0.00  0.00    +0.000 A 
ATOM     28  C   UNL     1      52.786   1.214  17.786  0.00  0.00    +0.000 A 
ATOM     29  N   UNL     1      51.527   1.028  17.310  0.00  0.00    +0.000 NA
ATOM     30  C   UNL     1      50.709   2.104  17.376  0.00  0.00    +0.000 A 
BRANCH  28  31
ATOM     31  C   UNL     1      53.684   0.019  17.748  0.00  0.00    +0.000 C 
ATOM     32  N   UNL     1      53.295  -1.030  18.537  0.00  0.00    +0.000 N 
ATOM     33  O   UNL     1      54.706  -0.022  17.072  0.00  0.00    +0.000 OA
ATOM     34  H   UNL     1      52.457  -0.943  19.101  0.00  0.00    +0.000 HD
ATOM     35  H   UNL     1      53.867  -1.860  18.585  0.00  0.00    +0.000 HD
ENDBRANCH  28  31
ENDBRANCH  23  25
ENDBRANCH  22  23
ENDBRANCH  19  22
ENDBRANCH   5  19
TORSDOF 7
ENDMDL
MODEL 9
REMARK VINA RESULT:    -6.982      4.285      6.785
REMARK INTER + INTRA:         -11.159
REMARK INTER:                  -9.413
REMARK INTRA:                  -1.746
REMARK UNBOUND:                -1.320
REMARK  Name = 
REMARK  11 active torsions:
REMARK  status: ('A' for Active; 'I' for Inactive)
REMARK    1  A    between atoms: C_1  and  C_2
REMARK    2  A    between atoms: N_4  and  C_5
REMARK    3  A    between atoms: C_7  and  C_8
REMARK    4  A    between atoms: C_13  and  C_14
REMARK    5  A    between atoms: C_14  and  C_15
REMARK    6  A    between atoms: C_14  and  C_16
REMARK    7  A    between atoms: C_14  and  C_17
REMARK    8  A    between atoms: C_17  and  N_18
REMARK    9  A    between atoms: N_18  and  C_19
REMARK   10  A    between atoms: C_22  and  C_23
REMARK   11  A    between atoms: C_30  and  C_31
REMARK                            x       y       z     vdW  Elec       q    Type
REMARK                         _______ _______ _______ _____ _____    ______ ____
ROOT
ATOM      1  C   UNL     1      48.693   6.675  17.767  0.00  0.00    +0.000 A 
ATOM      2  C   UNL     1      48.217   7.744  18.531  0.00  0.00    +0.000 A 
ATOM      3  C   UNL     1      47.989   9.008  17.974  0.00  0.00    +0.000 A 
ATOM      4  C   UNL     1      48.249   9.212  16.612  0.00  0.00    +0.000 A 
ATOM      5  C   UNL     1      48.783   8.196  15.806  0.00  0.00    +0.000 A 
ATOM      6  C   UNL     1      48.925   6.924  16.404  0.00  0.00    +0.000 A 
ENDROOT
BRANCH   1  10
ATOM      7  C   UNL     1      47.755   3.382  16.235  0.00  0.00    +0.000 C 
ATOM      8  C   UNL     1      48.114   3.180  17.705  0.00  0.00    +0.000 C 
ATOM      9  C   UNL     1      47.888   4.435  18.574  0.00  0.00    +0.000 C 
ATOM     10  N   UNL     1      48.931   5.446  18.351  0.00  0.00    +0.000 N 
ATOM     11  C   UNL     1      50.306   4.916  18.439  0.00  0.00    +0.000 C 
ATOM     12  C   UNL     1      50.460   3.657  17.555  0.00  0.00    +0.000 C 
ATOM     13  C   UNL     1      51.820   3.006  17.781  0.00  0.00    +0.000 C 
ATOM     14  O   UNL     1      49.454   2.670  17.849  0.00  0.00    +0.000 OA
ENDBRANCH   1  10
BRANCH   3  15
ATOM     15  C   UNL     1      47.525  10.160  18.828  0.00  0.00    +0.000 C 
ATOM     16  F   UNL     1      48.484  10.646  19.664  0.00  0.00    +0.000 F 
ATOM     17  F   UNL     1      47.122  11.221  18.074  0.00  0.00    +0.000 F 
ATOM     18  F   UNL     1      46.464   9.839  19.617  0.00  0.00    +0.000 F 
ENDBRANCH   3  15
BRANCH   5  19
ATOM     19  C   UNL     1      49.241   8.473  14.346  0.00  0.00    +0.000 C 
ATOM     20  C   UNL     1      49.140   9.985  14.074  0.00  0.00    +0.000 C 
ATOM     21  C   UNL     1      50.706   8.008  14.148  0.00  0.00    +0.000 C 
BRANCH  19  22
ATOM     22  C   UNL     1      48.337   7.708  13.323  0.00  0.00    +0.000 C 
BRANCH  22  23
ATOM     23  N   UNL     1      46.891   7.807  13.582  0.00  0.00    +0.000 N 
ATOM     24  H   UNL     1      46.485   8.680  13.254  0.00  0.00    +0.000 HD
BRANCH  23  25
ATOM     25  C   UNL     1      46.117   6.715  13.144  0.00  0.00    +0.000 A 
ATOM     26  C   UNL     1      46.580   5.413  13.369  0.00  0.00    +0.000 A 
ATOM     27  C   UNL     1      45.837   4.316  12.929  0.00  0.00    +0.000 A 
ATOM     28  C   UNL     1      44.659   4.555  12.236  0.00  0.00    +0.000 A 
ATOM     29  N   UNL     1      44.196   5.796  11.938  0.00  0.00    +0.000 NA
ATOM     30  C   UNL     1      44.950   6.827  12.383  0.00  0.00    +0.000 A 
BRANCH  28  31
ATOM     31  C   UNL     1      43.812   3.411  11.776  0.00  0.00    +0.000 C 
ATOM     32  N   UNL     1      43.823   2.311  12.591  0.00  0.00    +0.000 N 
ATOM     33  O   UNL     1      43.163   3.443  10.737  0.00  0.00    +0.000 OA
ATOM     34  H   UNL     1      44.395   2.318  13.427  0.00  0.00    +0.000 HD
ATOM     35  H   UNL     1      43.298   1.490  12.329  0.00  0.00    +0.000 HD
ENDBRANCH  28  31
ENDBRANCH  23  25
ENDBRANCH  22  23
ENDBRANCH  19  22
ENDBRANCH   5  19
TORSDOF 7
ENDMDL
