MODEL 1
REMARK VINA RESULT:    -7.627      0.000      0.000
REMARK INTER + INTRA:          -9.866
REMARK INTER:                  -9.411
REMARK INTRA:                  -0.456
REMARK UNBOUND:                -0.456
REMARK  Name = 
REMARK  5 active torsions:
REMARK  status: ('A' for Active; 'I' for Inactive)
REMARK    1  A    between atoms: C_1  and  C_2
REMARK    2  A    between atoms: C_2  and  N_3
REMARK    3  A    between atoms: C_2  and  C_13
REMARK    4  A    between atoms: N_3  and  C_4
REMARK    5  A    between atoms: C_7  and  C_8
REMARK                            x       y       z     vdW  Elec       q    Type
REMARK                         _______ _______ _______ _____ _____    ______ ____
ROOT
ATOM      1  C   UNL     1      44.610   3.932   9.252  0.00  0.00    +0.000 A 
ATOM      2  C   UNL     1      45.618   4.253   8.352  0.00  0.00    +0.000 A 
ATOM      3  N   UNL     1      46.421   3.361   7.730  0.00  0.00    +0.000 NA
ATOM      4  C   UNL     1      46.204   2.067   8.060  0.00  0.00    +0.000 A 
ATOM      5  N   UNL     1      45.297   1.624   8.949  0.00  0.00    +0.000 NA
ATOM      6  C   UNL     1      44.534   2.576   9.528  0.00  0.00    +0.000 A 
ENDROOT
BRANCH   4   7
ATOM      7  C   UNL     1      47.053   1.038   7.346  0.00  0.00    +0.000 C 
ATOM      8  N   UNL     1      46.774  -0.276   7.648  0.00  0.00    +0.000 N 
ATOM      9  O   UNL     1      47.945   1.314   6.551  0.00  0.00    +0.000 OA
ATOM     10  H   UNL     1      46.049  -0.497   8.321  0.00  0.00    +0.000 HD
ATOM     11  H   UNL     1      47.323  -1.006   7.220  0.00  0.00    +0.000 HD
ENDBRANCH   4   7
BRANCH   1  12
ATOM     12  N   UNL     1      43.872   4.948   9.871  0.00  0.00    +0.000 N 
ATOM     13  H   UNL     1      44.269   5.845   9.591  0.00  0.00    +0.000 HD
BRANCH  12  15
ATOM     14  C   UNL     1      42.276   5.539  11.650  0.00  0.00    +0.000 C 
ATOM     15  C   UNL     1      43.631   4.891  11.327  0.00  0.00    +0.000 C 
BRANCH  15  16
ATOM     16  C   UNL     1      44.781   5.594  12.114  0.00  0.00    +0.000 C 
ATOM     17  C   UNL     1      45.555   6.640  11.289  0.00  0.00    +0.000 C 
ATOM     18  C   UNL     1      46.680   7.291  12.094  0.00  0.00    +0.000 C 
ATOM     19  C   UNL     1      47.626   6.250  12.679  0.00  0.00    +0.000 C 
ATOM     20  C   UNL     1      46.867   5.251  13.545  0.00  0.00    +0.000 C 
ATOM     21  C   UNL     1      45.743   4.575  12.762  0.00  0.00    +0.000 C 
ENDBRANCH  15  16
ENDBRANCH  12  15
ENDBRANCH   1  12
TORSDOF 4
ENDMDL
MODEL 2
REMARK VINA RESULT:    -6.605      3.251      5.831
REMARK INTER + INTRA:          -8.605
REMARK INTER:                  -8.531
REMARK INTRA:                  -0.074
REMARK UNBOUND:                -0.456
REMARK  Name = 
REMARK  5 active torsions:
REMARK  status: ('A' for Active; 'I' for Inactive)
REMARK    1  A    between atoms: C_1  and  C_2
REMARK    2  A    between atoms: C_2  and  N_3
REMARK    3  A    between atoms: C_2  and  C_13
REMARK    4  A    between atoms: N_3  and  C_4
REMARK    5  A    between atoms: C_7  and  C_8
REMARK                            x       y       z     vdW  Elec       q    Type
REMARK                         _______ _______ _______ _____ _____    ______ ____
ROOT
ATOM      1  C   UNL     1      45.119   5.357  11.426  0.00  0.00    +0.000 A 
ATOM      2  C   UNL     1      46.194   6.184  11.130  0.00  0.00    +0.000 A 
ATOM      3  N   UNL     1      47.179   6.523  11.991  0.00  0.00    +0.000 NA
ATOM      4  C   UNL     1      47.052   6.008  13.237  0.00  0.00    +0.000 A 
ATOM      5  N   UNL     1      46.040   5.235  13.668  0.00  0.00    +0.000 NA
ATOM      6  C   UNL     1      45.095   4.942  12.748  0.00  0.00    +0.000 A 
ENDROOT
BRANCH   4   7
ATOM      7  C   UNL     1      48.163   6.327  14.213  0.00  0.00    +0.000 C 
ATOM      8  N   UNL     1      47.898   6.031  15.531  0.00  0.00    +0.000 N 
ATOM      9  O   UNL     1      49.238   6.824  13.894  0.00  0.00    +0.000 OA
ATOM     10  H   UNL     1      47.000   5.639  15.792  0.00  0.00    +0.000 HD
ATOM     11  H   UNL     1      48.592   6.243  16.231  0.00  0.00    +0.000 HD
ENDBRANCH   4   7
BRANCH   1  12
ATOM     12  N   UNL     1      44.131   5.115  10.464  0.00  0.00    +0.000 N 
ATOM     13  H   UNL     1      43.248   5.486  10.814  0.00  0.00    +0.000 HD
BRANCH  12  15
ATOM     14  C   UNL     1      43.639   2.774  11.044  0.00  0.00    +0.000 C 
ATOM     15  C   UNL     1      43.968   3.757   9.910  0.00  0.00    +0.000 C 
BRANCH  15  16
ATOM     16  C   UNL     1      45.251   3.305   9.144  0.00  0.00    +0.000 C 
ATOM     17  C   UNL     1      45.579   4.169   7.911  0.00  0.00    +0.000 C 
ATOM     18  C   UNL     1      46.833   3.681   7.184  0.00  0.00    +0.000 C 
ATOM     19  C   UNL     1      46.725   2.210   6.806  0.00  0.00    +0.000 C 
ATOM     20  C   UNL     1      46.461   1.350   8.036  0.00  0.00    +0.000 C 
ATOM     21  C   UNL     1      45.206   1.807   8.777  0.00  0.00    +0.000 C 
ENDBRANCH  15  16
ENDBRANCH  12  15
ENDBRANCH   1  12
TORSDOF 4
ENDMDL
MODEL 3
REMARK VINA RESULT:    -6.324      3.820      6.180
REMARK INTER + INTRA:          -8.258
REMARK INTER:                  -7.788
REMARK INTRA:                  -0.470
REMARK UNBOUND:                -0.456
REMARK  Name = 
REMARK  5 active torsions:
REMARK  status: ('A' for Active; 'I' for Inactive)
REMARK    1  A    between atoms: C_1  and  C_2
REMARK    2  A    between atoms: C_2  and  N_3
REMARK    3  A    between atoms: C_2  and  C_13
REMARK    4  A    between atoms: N_3  and  C_4
REMARK    5  A    between atoms: C_7  and  C_8
REMARK                            x       y       z     vdW  Elec       q    Type
REMARK                         _______ _______ _______ _____ _____    ______ ____
ROOT
ATOM      1  C   UNL     1      45.941   5.315  12.860  0.00  0.00    +0.000 A 
ATOM      2  C   UNL     1      46.395   6.500  12.296  0.00  0.00    +0.000 A 
ATOM      3  N   UNL     1      47.505   7.170  12.676  0.00  0.00    +0.000 NA
ATOM      4  C   UNL     1      48.184   6.615  13.708  0.00  0.00    +0.000 A 
ATOM      5  N   UNL     1      47.830   5.501  14.372  0.00  0.00    +0.000 NA
ATOM      6  C   UNL     1      46.707   4.890  13.933  0.00  0.00    +0.000 A 
ENDROOT
BRANCH   4   7
ATOM      7  C   UNL     1      49.459   7.313  14.128  0.00  0.00    +0.000 C 
ATOM      8  N   UNL     1      50.385   7.510  13.129  0.00  0.00    +0.000 N 
ATOM      9  O   UNL     1      49.694   7.685  15.273  0.00  0.00    +0.000 OA
ATOM     10  H   UNL     1      50.194   7.182  12.189  0.00  0.00    +0.000 HD
ATOM     11  H   UNL     1      51.264   7.950  13.354  0.00  0.00    +0.000 HD
ENDBRANCH   4   7
BRANCH   1  12
ATOM     12  N   UNL     1      44.747   4.736  12.413  0.00  0.00    +0.000 N 
ATOM     13  H   UNL     1      44.889   3.729  12.341  0.00  0.00    +0.000 HD
BRANCH  12  15
ATOM     14  C   UNL     1      42.582   5.473  11.502  0.00  0.00    +0.000 C 
ATOM     15  C   UNL     1      44.078   5.278  11.213  0.00  0.00    +0.000 C 
BRANCH  15  16
ATOM     16  C   UNL     1      44.285   4.338   9.984  0.00  0.00    +0.000 C 
ATOM     17  C   UNL     1      44.380   2.844  10.348  0.00  0.00    +0.000 C 
ATOM     18  C   UNL     1      44.597   1.964   9.116  0.00  0.00    +0.000 C 
ATOM     19  C   UNL     1      45.815   2.409   8.317  0.00  0.00    +0.000 C 
ATOM     20  C   UNL     1      45.691   3.872   7.905  0.00  0.00    +0.000 C 
ATOM     21  C   UNL     1      45.485   4.777   9.118  0.00  0.00    +0.000 C 
ENDBRANCH  15  16
ENDBRANCH  12  15
ENDBRANCH   1  12
TORSDOF 4
ENDMDL
MODEL 4
REMARK VINA RESULT:    -6.288      3.465      5.946
REMARK INTER + INTRA:          -8.214
REMARK INTER:                  -9.146
REMARK INTRA:                   0.932
REMARK UNBOUND:                -0.456
REMARK  Name = 
REMARK  5 active torsions:
REMARK  status: ('A' for Active; 'I' for Inactive)
REMARK    1  A    between atoms: C_1  and  C_2
REMARK    2  A    between atoms: C_2  and  N_3
REMARK    3  A    between atoms: C_2  and  C_13
REMARK    4  A    between atoms: N_3  and  C_4
REMARK    5  A    between atoms: C_7  and  C_8
REMARK                            x       y       z     vdW  Elec       q    Type
REMARK                         _______ _______ _______ _____ _____    ______ ____
ROOT
ATOM      1  C   UNL     1      45.609   5.090  11.584  0.00  0.00    +0.000 A 
ATOM      2  C   UNL     1      46.263   6.118  12.250  0.00  0.00    +0.000 A 
ATOM      3  N   UNL     1      46.840   6.015  13.468  0.00  0.00    +0.000 NA
ATOM      4  C   UNL     1      46.726   4.801  14.055  0.00  0.00    +0.000 A 
ATOM      5  N   UNL     1      46.081   3.738  13.543  0.00  0.00    +0.000 NA
ATOM      6  C   UNL     1      45.529   3.921  12.323  0.00  0.00    +0.000 A 
ENDROOT
BRANCH   4   7
ATOM      7  C   UNL     1      47.403   4.637  15.399  0.00  0.00    +0.000 C 
ATOM      8  N   UNL     1      46.947   3.590  16.168  0.00  0.00    +0.000 N 
ATOM      9  O   UNL     1      48.294   5.369  15.814  0.00  0.00    +0.000 OA
ATOM     10  H   UNL     1      46.196   3.001  15.828  0.00  0.00    +0.000 HD
ATOM     11  H   UNL     1      47.344   3.445  17.084  0.00  0.00    +0.000 HD
ENDBRANCH   4   7
BRANCH   1  12
ATOM     12  N   UNL     1      45.006   5.329  10.343  0.00  0.00    +0.000 N 
ATOM     13  H   UNL     1      44.575   6.253  10.371  0.00  0.00    +0.000 HD
BRANCH  12  15
ATOM     14  C   UNL     1      43.569   3.405  10.886  0.00  0.00    +0.000 C 
ATOM     15  C   UNL     1      44.093   4.321   9.769  0.00  0.00    +0.000 C 
BRANCH  15  16
ATOM     16  C   UNL     1      44.805   3.486   8.659  0.00  0.00    +0.000 C 
ATOM     17  C   UNL     1      45.331   2.121   9.145  0.00  0.00    +0.000 C 
ATOM     18  C   UNL     1      46.034   1.346   8.030  0.00  0.00    +0.000 C 
ATOM     19  C   UNL     1      47.149   2.165   7.393  0.00  0.00    +0.000 C 
ATOM     20  C   UNL     1      46.613   3.488   6.858  0.00  0.00    +0.000 C 
ATOM     21  C   UNL     1      45.916   4.292   7.955  0.00  0.00    +0.000 C 
ENDBRANCH  15  16
ENDBRANCH  12  15
ENDBRANCH   1  12
TORSDOF 4
ENDMDL
MODEL 5
REMARK VINA RESULT:    -6.179      4.153      6.335
REMARK INTER + INTRA:          -8.079
REMARK INTER:                  -8.234
REMARK INTRA:                   0.155
REMARK UNBOUND:                -0.456
REMARK  Name = 
REMARK  5 active torsions:
REMARK  status: ('A' for Active; 'I' for Inactive)
REMARK    1  A    between atoms: C_1  and  C_2
REMARK    2  A    between atoms: C_2  and  N_3
REMARK    3  A    between atoms: C_2  and  C_13
REMARK    4  A    between atoms: N_3  and  C_4
REMARK    5  A    between atoms: C_7  and  C_8
REMARK                            x       y       z     vdW  Elec       q    Type
REMARK                         _______ _______ _______ _____ _____    ______ ____
ROOT
ATOM      1  C   UNL     1      46.842   5.241  13.109  0.00  0.00    +0.000 A 
ATOM      2  C   UNL     1      46.768   3.869  13.311  0.00  0.00    +0.000 A 
ATOM      3  N   UNL     1      47.169   3.223  14.429  0.00  0.00    +0.000 NA
ATOM      4  C   UNL     1      47.697   4.015  15.390  0.00  0.00    +0.000 A 
ATOM      5  N   UNL     1      47.870   5.346  15.304  0.00  0.00    +0.000 NA
ATOM      6  C   UNL     1      47.446   5.917  14.156  0.00  0.00    +0.000 A 
ENDROOT
BRANCH   4   7
ATOM      7  C   UNL     1      48.112   3.331  16.675  0.00  0.00    +0.000 C 
ATOM      8  N   UNL     1      47.081   2.947  17.502  0.00  0.00    +0.000 N 
ATOM      9  O   UNL     1      49.276   3.122  16.998  0.00  0.00    +0.000 OA
ATOM     10  H   UNL     1      46.121   3.141  17.239  0.00  0.00    +0.000 HD
ATOM     11  H   UNL     1      47.296   2.506  18.383  0.00  0.00    +0.000 HD
ENDBRANCH   4   7
BRANCH   1  12
ATOM     12  N   UNL     1      46.440   5.793  11.887  0.00  0.00    +0.000 N 
ATOM     13  H   UNL     1      46.852   6.723  11.807  0.00  0.00    +0.000 HD
BRANCH  12  15
ATOM     14  C   UNL     1      44.161   5.485  12.766  0.00  0.00    +0.000 C 
ATOM     15  C   UNL     1      45.009   5.800  11.524  0.00  0.00    +0.000 C 
BRANCH  15  16
ATOM     16  C   UNL     1      44.714   4.778  10.382  0.00  0.00    +0.000 C 
ATOM     17  C   UNL     1      44.592   3.319  10.864  0.00  0.00    +0.000 C 
ATOM     18  C   UNL     1      44.320   2.353   9.711  0.00  0.00    +0.000 C 
ATOM     19  C   UNL     1      45.369   2.479   8.613  0.00  0.00    +0.000 C 
ATOM     20  C   UNL     1      45.444   3.910   8.095  0.00  0.00    +0.000 C 
ATOM     21  C   UNL     1      45.729   4.898   9.225  0.00  0.00    +0.000 C 
ENDBRANCH  15  16
ENDBRANCH  12  15
ENDBRANCH   1  12
TORSDOF 4
ENDMDL
MODEL 6
REMARK VINA RESULT:    -5.581      3.257      5.215
REMARK INTER + INTRA:          -7.341
REMARK INTER:                  -6.894
REMARK INTRA:                  -0.447
REMARK UNBOUND:                -0.456
REMARK  Name = 
REMARK  5 active torsions:
REMARK  status: ('A' for Active; 'I' for Inactive)
REMARK    1  A    between atoms: C_1  and  C_2
REMARK    2  A    between atoms: C_2  and  N_3
REMARK    3  A    between atoms: C_2  and  C_13
REMARK    4  A    between atoms: N_3  and  C_4
REMARK    5  A    between atoms: C_7  and  C_8
REMARK                            x       y       z     vdW  Elec       q    Type
REMARK                         _______ _______ _______ _____ _____    ______ ____
ROOT
ATOM      1  C   UNL     1      46.358   5.700  13.263  0.00  0.00    +0.000 A 
ATOM      2  C   UNL     1      45.542   6.009  12.184  0.00  0.00    +0.000 A 
ATOM      3  N   UNL     1      44.799   5.119  11.488  0.00  0.00    +0.000 NA
ATOM      4  C   UNL     1      44.911   3.834  11.899  0.00  0.00    +0.000 A 
ATOM      5  N   UNL     1      45.698   3.394  12.896  0.00  0.00    +0.000 NA
ATOM      6  C   UNL     1      46.410   4.344  13.541  0.00  0.00    +0.000 A 
ENDROOT
BRANCH   4   7
ATOM      7  C   UNL     1      44.056   2.818  11.173  0.00  0.00    +0.000 C 
ATOM      8  N   UNL     1      44.600   2.301  10.020  0.00  0.00    +0.000 N 
ATOM      9  O   UNL     1      42.945   2.460  11.549  0.00  0.00    +0.000 OA
ATOM     10  H   UNL     1      45.510   2.616   9.703  0.00  0.00    +0.000 HD
ATOM     11  H   UNL     1      44.067   1.636   9.480  0.00  0.00    +0.000 HD
ENDBRANCH   4   7
BRANCH   1  12
ATOM     12  N   UNL     1      47.120   6.702  13.877  0.00  0.00    +0.000 N 
ATOM     13  H   UNL     1      46.659   7.597  13.714  0.00  0.00    +0.000 HD
BRANCH  12  15
ATOM     14  C   UNL     1      49.311   7.147  14.907  0.00  0.00    +0.000 C 
ATOM     15  C   UNL     1      48.570   6.782  13.612  0.00  0.00    +0.000 C 
BRANCH  15  16
ATOM     16  C   UNL     1      48.879   7.821  12.488  0.00  0.00    +0.000 C 
ATOM     17  C   UNL     1      50.373   8.171  12.354  0.00  0.00    +0.000 C 
ATOM     18  C   UNL     1      50.626   9.202  11.253  0.00  0.00    +0.000 C 
ATOM     19  C   UNL     1      49.788  10.457  11.457  0.00  0.00    +0.000 C 
ATOM     20  C   UNL     1      48.305  10.115  11.528  0.00  0.00    +0.000 C 
ATOM     21  C   UNL     1      48.020   9.095  12.629  0.00  0.00    +0.000 C 
ENDBRANCH  15  16
ENDBRANCH  12  15
ENDBRANCH   1  12
TORSDOF 4
ENDMDL
MODEL 7
REMARK VINA RESULT:    -5.396      4.059      6.691
REMARK INTER + INTRA:          -7.113
REMARK INTER:                  -6.682
REMARK INTRA:                  -0.431
REMARK UNBOUND:                -0.456
REMARK  Name = 
REMARK  5 active torsions:
REMARK  status: ('A' for Active; 'I' for Inactive)
REMARK    1  A    between atoms: C_1  and  C_2
REMARK    2  A    between atoms: C_2  and  N_3
REMARK    3  A    between atoms: C_2  and  C_13
REMARK    4  A    between atoms: N_3  and  C_4
REMARK    5  A    between atoms: C_7  and  C_8
REMARK                            x       y       z     vdW  Elec       q    Type
REMARK                         _______ _______ _______ _____ _____    ______ ____
ROOT
ATOM      1  C   UNL     1      46.114   5.979  13.149  0.00  0.00    +0.000 A 
ATOM      2  C   UNL     1      45.845   7.322  12.924  0.00  0.00    +0.000 A 
ATOM      3  N   UNL     1      46.676   8.345  13.225  0.00  0.00    +0.000 NA
ATOM      4  C   UNL     1      47.842   7.983  13.810  0.00  0.00    +0.000 A 
ATOM      5  N   UNL     1      48.206   6.728  14.126  0.00  0.00    +0.000 NA
ATOM      6  C   UNL     1      47.320   5.762  13.795  0.00  0.00    +0.000 A 
ENDROOT
BRANCH   4   7
ATOM      7  C   UNL     1      48.817   9.099  14.115  0.00  0.00    +0.000 C 
ATOM      8  N   UNL     1      48.315  10.136  14.868  0.00  0.00    +0.000 N 
ATOM      9  O   UNL     1      49.981   9.120  13.729  0.00  0.00    +0.000 OA
ATOM     10  H   UNL     1      47.347  10.123  15.167  0.00  0.00    +0.000 HD
ATOM     11  H   UNL     1      48.913  10.920  15.085  0.00  0.00    +0.000 HD
ENDBRANCH   4   7
BRANCH   1  12
ATOM     12  N   UNL     1      45.153   5.009  12.840  0.00  0.00    +0.000 N 
ATOM     13  H   UNL     1      45.582   4.090  12.949  0.00  0.00    +0.000 HD
BRANCH  12  15
ATOM     14  C   UNL     1      42.939   4.683  11.815  0.00  0.00    +0.000 C 
ATOM     15  C   UNL     1      44.396   5.108  11.577  0.00  0.00    +0.000 C 
BRANCH  15  16
ATOM     16  C   UNL     1      45.050   4.235  10.460  0.00  0.00    +0.000 C 
ATOM     17  C   UNL     1      45.505   5.037   9.226  0.00  0.00    +0.000 C 
ATOM     18  C   UNL     1      46.125   4.141   8.153  0.00  0.00    +0.000 C 
ATOM     19  C   UNL     1      45.183   3.012   7.754  0.00  0.00    +0.000 C 
ATOM     20  C   UNL     1      44.783   2.182   8.968  0.00  0.00    +0.000 C 
ATOM     21  C   UNL     1      44.148   3.051  10.052  0.00  0.00    +0.000 C 
ENDBRANCH  15  16
ENDBRANCH  12  15
ENDBRANCH   1  12
TORSDOF 4
ENDMDL
MODEL 8
REMARK VINA RESULT:    -5.274      4.544      6.517
REMARK INTER + INTRA:          -6.962
REMARK INTER:                  -7.066
REMARK INTRA:                   0.104
REMARK UNBOUND:                -0.456
REMARK  Name = 
REMARK  5 active torsions:
REMARK  status: ('A' for Active; 'I' for Inactive)
REMARK    1  A    between atoms: C_1  and  C_2
REMARK    2  A    between atoms: C_2  and  N_3
REMARK    3  A    between atoms: C_2  and  C_13
REMARK    4  A    between atoms: N_3  and  C_4
REMARK    5  A    between atoms: C_7  and  C_8
REMARK                            x       y       z     vdW  Elec       q    Type
REMARK                         _______ _______ _______ _____ _____    ______ ____
ROOT
ATOM      1  C   UNL     1      47.742   5.709  13.622  0.00  0.00    +0.000 A 
ATOM      2  C   UNL     1      48.150   6.140  14.877  0.00  0.00    +0.000 A 
ATOM      3  N   UNL     1      48.127   5.394  16.004  0.00  0.00    +0.000 NA
ATOM      4  C   UNL     1      47.637   4.142  15.852  0.00  0.00    +0.000 A 
ATOM      5  N   UNL     1      47.165   3.617  14.707  0.00  0.00    +0.000 NA
ATOM      6  C   UNL     1      47.222   4.425  13.626  0.00  0.00    +0.000 A 
ENDROOT
BRANCH   4   7
ATOM      7  C   UNL     1      47.641   3.262  17.083  0.00  0.00    +0.000 C 
ATOM      8  N   UNL     1      48.882   2.986  17.611  0.00  0.00    +0.000 N 
ATOM      9  O   UNL     1      46.630   2.800  17.601  0.00  0.00    +0.000 OA
ATOM     10  H   UNL     1      49.715   3.354  17.166  0.00  0.00    +0.000 HD
ATOM     11  H   UNL     1      48.949   2.386  18.419  0.00  0.00    +0.000 HD
ENDBRANCH   4   7
BRANCH   1  12
ATOM     12  N   UNL     1      47.767   6.590  12.534  0.00  0.00    +0.000 N 
ATOM     13  H   UNL     1      48.377   7.372  12.772  0.00  0.00    +0.000 HD
BRANCH  12  15
ATOM     14  C   UNL     1      45.917   8.195  12.791  0.00  0.00    +0.000 C 
ATOM     15  C   UNL     1      46.497   7.054  11.941  0.00  0.00    +0.000 C 
BRANCH  15  16
ATOM     16  C   UNL     1      45.473   5.881  11.819  0.00  0.00    +0.000 C 
ATOM     17  C   UNL     1      45.156   5.477  10.366  0.00  0.00    +0.000 C 
ATOM     18  C   UNL     1      44.139   4.338  10.295  0.00  0.00    +0.000 C 
ATOM     19  C   UNL     1      42.865   4.674  11.059  0.00  0.00    +0.000 C 
ATOM     20  C   UNL     1      43.175   5.014  12.512  0.00  0.00    +0.000 C 
ATOM     21  C   UNL     1      44.180   6.160  12.614  0.00  0.00    +0.000 C 
ENDBRANCH  15  16
ENDBRANCH  12  15
ENDBRANCH   1  12
TORSDOF 4
ENDMDL
MODEL 9
REMARK VINA RESULT:    -5.199      3.122      5.209
REMARK INTER + INTRA:          -6.871
REMARK INTER:                  -6.446
REMARK INTRA:                  -0.424
REMARK UNBOUND:                -0.456
REMARK  Name = 
REMARK  5 active torsions:
REMARK  status: ('A' for Active; 'I' for Inactive)
REMARK    1  A    between atoms: C_1  and  C_2
REMARK    2  A    between atoms: C_2  and  N_3
REMARK    3  A    between atoms: C_2  and  C_13
REMARK    4  A    between atoms: N_3  and  C_4
REMARK    5  A    between atoms: C_7  and  C_8
REMARK                            x       y       z     vdW  Elec       q    Type
REMARK                         _______ _______ _______ _____ _____    ______ ____
ROOT
ATOM      1  C   UNL     1      46.340   5.914  13.077  0.00  0.00    +0.000 A 
ATOM      2  C   UNL     1      45.926   4.718  13.647  0.00  0.00    +0.000 A 
ATOM      3  N   UNL     1      45.252   3.739  13.003  0.00  0.00    +0.000 NA
ATOM      4  C   UNL     1      44.962   4.000  11.707  0.00  0.00    +0.000 A 
ATOM      5  N   UNL     1      45.261   5.133  11.048  0.00  0.00    +0.000 NA
ATOM      6  C   UNL     1      45.933   6.064  11.761  0.00  0.00    +0.000 A 
ENDROOT
BRANCH   4   7
ATOM      7  C   UNL     1      44.251   2.905  10.942  0.00  0.00    +0.000 C 
ATOM      8  N   UNL     1      43.354   2.158  11.671  0.00  0.00    +0.000 N 
ATOM      9  O   UNL     1      44.439   2.662   9.755  0.00  0.00    +0.000 OA
ATOM     10  H   UNL     1      43.218   2.350  12.657  0.00  0.00    +0.000 HD
ATOM     11  H   UNL     1      42.866   1.399  11.220  0.00  0.00    +0.000 HD
ENDBRANCH   4   7
BRANCH   1  12
ATOM     12  N   UNL     1      46.990   6.877  13.858  0.00  0.00    +0.000 N 
ATOM     13  H   UNL     1      46.614   7.792  13.613  0.00  0.00    +0.000 HD
BRANCH  12  15
ATOM     14  C   UNL     1      48.926   6.640  15.361  0.00  0.00    +0.000 C 
ATOM     15  C   UNL     1      48.465   6.894  13.918  0.00  0.00    +0.000 C 
BRANCH  15  16
ATOM     16  C   UNL     1      49.033   8.248  13.388  0.00  0.00    +0.000 C 
ATOM     17  C   UNL     1      48.378   9.491  14.022  0.00  0.00    +0.000 C 
ATOM     18  C   UNL     1      48.953  10.793  13.463  0.00  0.00    +0.000 C 
ATOM     19  C   UNL     1      48.857  10.841  11.943  0.00  0.00    +0.000 C 
ATOM     20  C   UNL     1      49.558   9.642  11.315  0.00  0.00    +0.000 C 
ATOM     21  C   UNL     1      48.995   8.325  11.847  0.00  0.00    +0.000 C 
ENDBRANCH  15  16
ENDBRANCH  12  15
ENDBRANCH   1  12
TORSDOF 4
ENDMDL
