MODEL 1
REMARK VINA RESULT:    -7.409      0.000      0.000
REMARK INTER + INTRA:          -9.072
REMARK INTER:                  -9.358
REMARK INTRA:                   0.286
REMARK UNBOUND:                 0.286
REMARK  Name = 
REMARK  5 active torsions:
REMARK  status: ('A' for Active; 'I' for Inactive)
REMARK    1  A    between atoms: N_1  and  C_2
REMARK    2  A    between atoms: C_2  and  C_3
REMARK    3  A    between atoms: C_3  and  C_4
REMARK    4  A    between atoms: N_7  and  C_8
REMARK    5  A    between atoms: C_8  and  C_9
REMARK                            x       y       z     vdW  Elec       q    Type
REMARK                         _______ _______ _______ _____ _____    ______ ____
ROOT
ATOM      1  C   UNL     1      44.009   2.439  10.373  0.00  0.00    +0.000 C 
ENDROOT
BRANCH   1   2
ATOM      2  C   UNL     1      44.798   3.197   9.344  0.00  0.00    +0.000 A 
ATOM      3  C   UNL     1      44.813   4.570   9.163  0.00  0.00    +0.000 A 
ATOM      4  N   UNL     1      45.733   4.870   8.197  0.00  0.00    +0.000 N 
ATOM      5  C   UNL     1      46.337   3.723   7.740  0.00  0.00    +0.000 A 
ATOM      6  C   UNL     1      47.379   3.556   6.815  0.00  0.00    +0.000 A 
ATOM      7  C   UNL     1      47.797   2.252   6.527  0.00  0.00    +0.000 A 
ATOM      8  C   UNL     1      47.165   1.158   7.108  0.00  0.00    +0.000 A 
ATOM      9  C   UNL     1      46.128   1.347   8.025  0.00  0.00    +0.000 A 
ATOM     10  F   UNL     1      45.535   0.270   8.559  0.00  0.00    +0.000 F 
ATOM     11  C   UNL     1      45.719   2.648   8.382  0.00  0.00    +0.000 A 
ATOM     12  H   UNL     1      45.963   5.803   7.885  0.00  0.00    +0.000 HD
ENDBRANCH   1   2
BRANCH   1  16
ATOM     13  C   UNL     1      44.481   5.702  13.155  0.00  0.00    +0.000 C 
ATOM     14  C   UNL     1      45.421   4.491  13.254  0.00  0.00    +0.000 C 
ATOM     15  C   UNL     1      45.338   3.580  12.021  0.00  0.00    +0.000 C 
ATOM     16  N   UNL     1      43.967   3.159  11.674  0.00  0.00    +0.000 NA
ATOM     17  C   UNL     1      43.028   4.292  11.628  0.00  0.00    +0.000 C 
ATOM     18  C   UNL     1      43.076   5.152  12.894  0.00  0.00    +0.000 C 
BRANCH  13  19
ATOM     19  C   UNL     1      44.972   6.708  12.087  0.00  0.00    +0.000 C 
BRANCH  19  20
ATOM     20  C   UNL     1      45.857   7.825  12.646  0.00  0.00    +0.000 C 
BRANCH  20  21
ATOM     21  N   UNL     1      45.057   9.025  12.877  0.00  0.00    +0.000 NA
ATOM     22  H   UNL     1      44.068   8.785  12.826  0.00  0.00    +0.000 HD
ATOM     23  H   UNL     1      45.223   9.693  12.122  0.00  0.00    +0.000 HD
ENDBRANCH  20  21
ENDBRANCH  19  20
ENDBRANCH  13  19
ENDBRANCH   1  16
TORSDOF 5
ENDMDL
MODEL 2
REMARK VINA RESULT:    -7.265      1.855      2.446
REMARK INTER + INTRA:          -8.890
REMARK INTER:                  -8.441
REMARK INTRA:                  -0.449
REMARK UNBOUND:                 0.286
REMARK  Name = 
REMARK  5 active torsions:
REMARK  status: ('A' for Active; 'I' for Inactive)
REMARK    1  A    between atoms: N_1  and  C_2
REMARK    2  A    between atoms: C_2  and  C_3
REMARK    3  A    between atoms: C_3  and  C_4
REMARK    4  A    between atoms: N_7  and  C_8
REMARK    5  A    between atoms: C_8  and  C_9
REMARK                            x       y       z     vdW  Elec       q    Type
REMARK                         _______ _______ _______ _____ _____    ______ ____
ROOT
ATOM      1  C   UNL     1      44.349   4.521   9.403  0.00  0.00    +0.000 C 
ENDROOT
BRANCH   1   2
ATOM      2  C   UNL     1      44.895   3.170   9.037  0.00  0.00    +0.000 A 
ATOM      3  C   UNL     1      44.405   1.943   9.452  0.00  0.00    +0.000 A 
ATOM      4  N   UNL     1      45.112   0.957   8.818  0.00  0.00    +0.000 N 
ATOM      5  C   UNL     1      46.055   1.508   7.983  0.00  0.00    +0.000 A 
ATOM      6  C   UNL     1      46.945   0.889   7.091  0.00  0.00    +0.000 A 
ATOM      7  C   UNL     1      47.813   1.707   6.360  0.00  0.00    +0.000 A 
ATOM      8  C   UNL     1      47.821   3.084   6.548  0.00  0.00    +0.000 A 
ATOM      9  C   UNL     1      46.927   3.680   7.442  0.00  0.00    +0.000 A 
ATOM     10  F   UNL     1      46.968   5.010   7.606  0.00  0.00    +0.000 F 
ATOM     11  C   UNL     1      45.999   2.893   8.154  0.00  0.00    +0.000 A 
ATOM     12  H   UNL     1      44.944  -0.033   8.921  0.00  0.00    +0.000 HD
ENDBRANCH   1   2
BRANCH   1  16
ATOM     13  C   UNL     1      45.412   7.288  12.538  0.00  0.00    +0.000 C 
ATOM     14  C   UNL     1      46.526   6.566  11.766  0.00  0.00    +0.000 C 
ATOM     15  C   UNL     1      46.010   5.876  10.496  0.00  0.00    +0.000 C 
ATOM     16  N   UNL     1      44.858   4.980  10.723  0.00  0.00    +0.000 NA
ATOM     17  C   UNL     1      43.795   5.625  11.512  0.00  0.00    +0.000 C 
ATOM     18  C   UNL     1      44.317   6.251  12.807  0.00  0.00    +0.000 C 
BRANCH  13  19
ATOM     19  C   UNL     1      44.918   8.539  11.773  0.00  0.00    +0.000 C 
BRANCH  19  20
ATOM     20  C   UNL     1      45.776   9.786  12.005  0.00  0.00    +0.000 C 
BRANCH  20  21
ATOM     21  N   UNL     1      44.920  10.960  12.151  0.00  0.00    +0.000 NA
ATOM     22  H   UNL     1      45.435  11.693  12.634  0.00  0.00    +0.000 HD
ATOM     23  H   UNL     1      44.128  10.729  12.753  0.00  0.00    +0.000 HD
ENDBRANCH  20  21
ENDBRANCH  19  20
ENDBRANCH  13  19
ENDBRANCH   1  16
TORSDOF 5
ENDMDL
MODEL 3
REMARK VINA RESULT:    -7.255      2.311      3.428
REMARK INTER + INTRA:          -8.878
REMARK INTER:                  -8.723
REMARK INTRA:                  -0.155
REMARK UNBOUND:                 0.286
REMARK  Name = 
REMARK  5 active torsions:
REMARK  status: ('A' for Active; 'I' for Inactive)
REMARK    1  A    between atoms: N_1  and  C_2
REMARK    2  A    between atoms: C_2  and  C_3
REMARK    3  A    between atoms: C_3  and  C_4
REMARK    4  A    between atoms: N_7  and  C_8
REMARK    5  A    between atoms: C_8  and  C_9
REMARK                            x       y       z     vdW  Elec       q    Type
REMARK                         _______ _______ _______ _____ _____    ______ ____
ROOT
ATOM      1  C   UNL     1      43.584   5.782  11.207  0.00  0.00    +0.000 C 
ENDROOT
BRANCH   1   2
ATOM      2  C   UNL     1      43.920   4.359  10.860  0.00  0.00    +0.000 A 
ATOM      3  C   UNL     1      43.416   3.221  11.465  0.00  0.00    +0.000 A 
ATOM      4  N   UNL     1      43.888   2.127  10.792  0.00  0.00    +0.000 N 
ATOM      5  C   UNL     1      44.688   2.519   9.746  0.00  0.00    +0.000 A 
ATOM      6  C   UNL     1      45.321   1.752   8.754  0.00  0.00    +0.000 A 
ATOM      7  C   UNL     1      46.093   2.424   7.801  0.00  0.00    +0.000 A 
ATOM      8  C   UNL     1      46.263   3.802   7.865  0.00  0.00    +0.000 A 
ATOM      9  C   UNL     1      45.625   4.546   8.861  0.00  0.00    +0.000 A 
ATOM     10  F   UNL     1      45.817   5.872   8.899  0.00  0.00    +0.000 F 
ATOM     11  C   UNL     1      44.794   3.910   9.805  0.00  0.00    +0.000 A 
ATOM     12  H   UNL     1      43.657   1.168  11.011  0.00  0.00    +0.000 HD
ENDBRANCH   1   2
BRANCH   1  16
ATOM     13  C   UNL     1      47.219   7.284  12.978  0.00  0.00    +0.000 C 
ATOM     14  C   UNL     1      46.712   5.890  13.376  0.00  0.00    +0.000 C 
ATOM     15  C   UNL     1      45.609   5.377  12.441  0.00  0.00    +0.000 C 
ATOM     16  N   UNL     1      44.484   6.317  12.263  0.00  0.00    +0.000 NA
ATOM     17  C   UNL     1      44.940   7.679  11.937  0.00  0.00    +0.000 C 
ATOM     18  C   UNL     1      45.993   8.201  12.918  0.00  0.00    +0.000 C 
BRANCH  13  19
ATOM     19  C   UNL     1      48.030   7.233  11.662  0.00  0.00    +0.000 C 
BRANCH  19  20
ATOM     20  C   UNL     1      49.454   7.782  11.788  0.00  0.00    +0.000 C 
BRANCH  20  21
ATOM     21  N   UNL     1      50.055   7.323  13.037  0.00  0.00    +0.000 NA
ATOM     22  H   UNL     1      49.372   6.777  13.559  0.00  0.00    +0.000 HD
ATOM     23  H   UNL     1      50.276   8.129  13.623  0.00  0.00    +0.000 HD
ENDBRANCH  20  21
ENDBRANCH  19  20
ENDBRANCH  13  19
ENDBRANCH   1  16
TORSDOF 5
ENDMDL
MODEL 4
REMARK VINA RESULT:    -6.829      2.067      2.607
REMARK INTER + INTRA:          -8.340
REMARK INTER:                  -8.555
REMARK INTRA:                   0.215
REMARK UNBOUND:                 0.286
REMARK  Name = 
REMARK  5 active torsions:
REMARK  status: ('A' for Active; 'I' for Inactive)
REMARK    1  A    between atoms: N_1  and  C_2
REMARK    2  A    between atoms: C_2  and  C_3
REMARK    3  A    between atoms: C_3  and  C_4
REMARK    4  A    between atoms: N_7  and  C_8
REMARK    5  A    between atoms: C_8  and  C_9
REMARK                            x       y       z     vdW  Elec       q    Type
REMARK                         _______ _______ _______ _____ _____    ______ ____
ROOT
ATOM      1  C   UNL     1      44.251   4.715   9.572  0.00  0.00    +0.000 C 
ENDROOT
BRANCH   1   2
ATOM      2  C   UNL     1      44.753   3.335   9.253  0.00  0.00    +0.000 A 
ATOM      3  C   UNL     1      44.219   2.139   9.698  0.00  0.00    +0.000 A 
ATOM      4  N   UNL     1      44.897   1.111   9.101  0.00  0.00    +0.000 N 
ATOM      5  C   UNL     1      45.866   1.604   8.261  0.00  0.00    +0.000 A 
ATOM      6  C   UNL     1      46.744   0.930   7.397  0.00  0.00    +0.000 A 
ATOM      7  C   UNL     1      47.646   1.695   6.651  0.00  0.00    +0.000 A 
ATOM      8  C   UNL     1      47.699   3.077   6.798  0.00  0.00    +0.000 A 
ATOM      9  C   UNL     1      46.817   3.728   7.665  0.00  0.00    +0.000 A 
ATOM     10  F   UNL     1      46.901   5.060   7.789  0.00  0.00    +0.000 F 
ATOM     11  C   UNL     1      45.856   2.995   8.390  0.00  0.00    +0.000 A 
ATOM     12  H   UNL     1      44.695   0.130   9.232  0.00  0.00    +0.000 HD
ENDBRANCH   1   2
BRANCH   1  16
ATOM     13  C   UNL     1      45.953   5.691  13.414  0.00  0.00    +0.000 C 
ATOM     14  C   UNL     1      45.447   4.264  13.159  0.00  0.00    +0.000 C 
ATOM     15  C   UNL     1      45.172   3.993  11.674  0.00  0.00    +0.000 C 
ATOM     16  N   UNL     1      44.290   4.989  11.033  0.00  0.00    +0.000 NA
ATOM     17  C   UNL     1      44.716   6.371  11.307  0.00  0.00    +0.000 C 
ATOM     18  C   UNL     1      44.922   6.643  12.800  0.00  0.00    +0.000 C 
BRANCH  13  19
ATOM     19  C   UNL     1      47.389   5.884  12.869  0.00  0.00    +0.000 C 
BRANCH  19  20
ATOM     20  C   UNL     1      48.289   6.724  13.778  0.00  0.00    +0.000 C 
BRANCH  20  21
ATOM     21  N   UNL     1      48.324   6.145  15.119  0.00  0.00    +0.000 NA
ATOM     22  H   UNL     1      47.530   5.516  15.233  0.00  0.00    +0.000 HD
ATOM     23  H   UNL     1      48.198   6.885  15.811  0.00  0.00    +0.000 HD
ENDBRANCH  20  21
ENDBRANCH  19  20
ENDBRANCH  13  19
ENDBRANCH   1  16
TORSDOF 5
ENDMDL
MODEL 5
REMARK VINA RESULT:    -6.790      3.971      6.151
REMARK INTER + INTRA:          -8.290
REMARK INTER:                  -7.763
REMARK INTRA:                  -0.527
REMARK UNBOUND:                 0.286
REMARK  Name = 
REMARK  5 active torsions:
REMARK  status: ('A' for Active; 'I' for Inactive)
REMARK    1  A    between atoms: N_1  and  C_2
REMARK    2  A    between atoms: C_2  and  C_3
REMARK    3  A    between atoms: C_3  and  C_4
REMARK    4  A    between atoms: N_7  and  C_8
REMARK    5  A    between atoms: C_8  and  C_9
REMARK                            x       y       z     vdW  Elec       q    Type
REMARK                         _______ _______ _______ _____ _____    ______ ____
ROOT
ATOM      1  C   UNL     1      47.665   5.806  13.644  0.00  0.00    +0.000 C 
ENDROOT
BRANCH   1   2
ATOM      2  C   UNL     1      46.322   6.124  13.052  0.00  0.00    +0.000 A 
ATOM      3  C   UNL     1      45.769   7.383  12.889  0.00  0.00    +0.000 A 
ATOM      4  N   UNL     1      44.583   7.252  12.220  0.00  0.00    +0.000 N 
ATOM      5  C   UNL     1      44.343   5.931  11.927  0.00  0.00    +0.000 A 
ATOM      6  C   UNL     1      43.299   5.341  11.197  0.00  0.00    +0.000 A 
ATOM      7  C   UNL     1      43.301   3.949  11.059  0.00  0.00    +0.000 A 
ATOM      8  C   UNL     1      44.283   3.176  11.666  0.00  0.00    +0.000 A 
ATOM      9  C   UNL     1      45.313   3.783  12.390  0.00  0.00    +0.000 A 
ATOM     10  F   UNL     1      46.239   3.007  12.970  0.00  0.00    +0.000 F 
ATOM     11  C   UNL     1      45.375   5.187  12.502  0.00  0.00    +0.000 A 
ATOM     12  H   UNL     1      43.983   8.019  11.948  0.00  0.00    +0.000 HD
ENDBRANCH   1   2
BRANCH   1  16
ATOM     13  C   UNL     1      48.823   4.833  17.685  0.00  0.00    +0.000 C 
ATOM     14  C   UNL     1      47.503   4.279  17.129  0.00  0.00    +0.000 C 
ATOM     15  C   UNL     1      47.389   4.444  15.608  0.00  0.00    +0.000 C 
ATOM     16  N   UNL     1      47.627   5.820  15.131  0.00  0.00    +0.000 NA
ATOM     17  C   UNL     1      48.858   6.402  15.692  0.00  0.00    +0.000 C 
ATOM     18  C   UNL     1      48.925   6.289  17.217  0.00  0.00    +0.000 C 
BRANCH  13  19
ATOM     19  C   UNL     1      50.024   3.952  17.262  0.00  0.00    +0.000 C 
BRANCH  19  20
ATOM     20  C   UNL     1      49.778   2.450  17.426  0.00  0.00    +0.000 C 
BRANCH  20  21
ATOM     21  N   UNL     1      49.866   1.787  16.127  0.00  0.00    +0.000 NA
ATOM     22  H   UNL     1      49.706   0.789  16.248  0.00  0.00    +0.000 HD
ATOM     23  H   UNL     1      50.816   1.878  15.764  0.00  0.00    +0.000 HD
ENDBRANCH  20  21
ENDBRANCH  19  20
ENDBRANCH  13  19
ENDBRANCH   1  16
TORSDOF 5
ENDMDL
MODEL 6
REMARK VINA RESULT:    -6.640      2.632      4.338
REMARK INTER + INTRA:          -8.102
REMARK INTER:                  -7.873
REMARK INTRA:                  -0.228
REMARK UNBOUND:                 0.286
REMARK  Name = 
REMARK  5 active torsions:
REMARK  status: ('A' for Active; 'I' for Inactive)
REMARK    1  A    between atoms: N_1  and  C_2
REMARK    2  A    between atoms: C_2  and  C_3
REMARK    3  A    between atoms: C_3  and  C_4
REMARK    4  A    between atoms: N_7  and  C_8
REMARK    5  A    between atoms: C_8  and  C_9
REMARK                            x       y       z     vdW  Elec       q    Type
REMARK                         _______ _______ _______ _____ _____    ______ ____
ROOT
ATOM      1  C   UNL     1      44.638   6.046  12.557  0.00  0.00    +0.000 C 
ENDROOT
BRANCH   1   2
ATOM      2  C   UNL     1      44.456   4.667  11.991  0.00  0.00    +0.000 A 
ATOM      3  C   UNL     1      43.882   3.581  12.630  0.00  0.00    +0.000 A 
ATOM      4  N   UNL     1      43.810   2.543  11.743  0.00  0.00    +0.000 N 
ATOM      5  C   UNL     1      44.317   2.922  10.523  0.00  0.00    +0.000 A 
ATOM      6  C   UNL     1      44.378   2.217   9.310  0.00  0.00    +0.000 A 
ATOM      7  C   UNL     1      44.964   2.854   8.211  0.00  0.00    +0.000 A 
ATOM      8  C   UNL     1      45.507   4.128   8.334  0.00  0.00    +0.000 A 
ATOM      9  C   UNL     1      45.436   4.812   9.551  0.00  0.00    +0.000 A 
ATOM     10  F   UNL     1      45.977   6.035   9.636  0.00  0.00    +0.000 F 
ATOM     11  C   UNL     1      44.803   4.223  10.664  0.00  0.00    +0.000 A 
ATOM     12  H   UNL     1      43.411   1.636  11.942  0.00  0.00    +0.000 HD
ENDBRANCH   1   2
BRANCH   1  16
ATOM     13  C   UNL     1      48.451   7.916  13.319  0.00  0.00    +0.000 C 
ATOM     14  C   UNL     1      47.392   8.675  12.505  0.00  0.00    +0.000 C 
ATOM     15  C   UNL     1      46.005   8.025  12.591  0.00  0.00    +0.000 C 
ATOM     16  N   UNL     1      45.992   6.586  12.263  0.00  0.00    +0.000 NA
ATOM     17  C   UNL     1      47.035   5.838  12.985  0.00  0.00    +0.000 C 
ATOM     18  C   UNL     1      48.424   6.463  12.833  0.00  0.00    +0.000 C 
BRANCH  13  19
ATOM     19  C   UNL     1      48.211   8.075  14.839  0.00  0.00    +0.000 C 
BRANCH  19  20
ATOM     20  C   UNL     1      49.114   7.194  15.705  0.00  0.00    +0.000 C 
BRANCH  20  21
ATOM     21  N   UNL     1      48.300   6.315  16.540  0.00  0.00    +0.000 NA
ATOM     22  H   UNL     1      47.641   5.808  15.952  0.00  0.00    +0.000 HD
ATOM     23  H   UNL     1      47.733   6.880  17.174  0.00  0.00    +0.000 HD
ENDBRANCH  20  21
ENDBRANCH  19  20
ENDBRANCH  13  19
ENDBRANCH   1  16
TORSDOF 5
ENDMDL
MODEL 7
REMARK VINA RESULT:    -6.315      2.880      6.436
REMARK INTER + INTRA:          -7.691
REMARK INTER:                  -7.399
REMARK INTRA:                  -0.292
REMARK UNBOUND:                 0.286
REMARK  Name = 
REMARK  5 active torsions:
REMARK  status: ('A' for Active; 'I' for Inactive)
REMARK    1  A    between atoms: N_1  and  C_2
REMARK    2  A    between atoms: C_2  and  C_3
REMARK    3  A    between atoms: C_3  and  C_4
REMARK    4  A    between atoms: N_7  and  C_8
REMARK    5  A    between atoms: C_8  and  C_9
REMARK                            x       y       z     vdW  Elec       q    Type
REMARK                         _______ _______ _______ _____ _____    ______ ____
ROOT
ATOM      1  C   UNL     1      46.680   6.056  12.543  0.00  0.00    +0.000 C 
ENDROOT
BRANCH   1   2
ATOM      2  C   UNL     1      46.538   7.551  12.494  0.00  0.00    +0.000 A 
ATOM      3  C   UNL     1      45.422   8.286  12.855  0.00  0.00    +0.000 A 
ATOM      4  N   UNL     1      45.730   9.616  12.765  0.00  0.00    +0.000 N 
ATOM      5  C   UNL     1      47.033   9.777  12.360  0.00  0.00    +0.000 A 
ATOM      6  C   UNL     1      47.794  10.946  12.203  0.00  0.00    +0.000 A 
ATOM      7  C   UNL     1      49.115  10.814  11.764  0.00  0.00    +0.000 A 
ATOM      8  C   UNL     1      49.639   9.566  11.449  0.00  0.00    +0.000 A 
ATOM      9  C   UNL     1      48.864   8.414  11.610  0.00  0.00    +0.000 A 
ATOM     10  F   UNL     1      49.397   7.227  11.289  0.00  0.00    +0.000 F 
ATOM     11  C   UNL     1      47.547   8.504  12.105  0.00  0.00    +0.000 A 
ATOM     12  H   UNL     1      45.102  10.373  12.995  0.00  0.00    +0.000 HD
ENDBRANCH   1   2
BRANCH   1  16
ATOM     13  C   UNL     1      43.939   3.404  10.527  0.00  0.00    +0.000 C 
ATOM     14  C   UNL     1      43.784   4.921  10.346  0.00  0.00    +0.000 C 
ATOM     15  C   UNL     1      45.002   5.702  10.855  0.00  0.00    +0.000 C 
ATOM     16  N   UNL     1      45.395   5.372  12.239  0.00  0.00    +0.000 NA
ATOM     17  C   UNL     1      45.496   3.920  12.461  0.00  0.00    +0.000 C 
ATOM     18  C   UNL     1      44.245   3.163  12.008  0.00  0.00    +0.000 C 
BRANCH  13  19
ATOM     19  C   UNL     1      45.005   2.830   9.564  0.00  0.00    +0.000 C 
BRANCH  19  20
ATOM     20  C   UNL     1      44.809   3.244   8.103  0.00  0.00    +0.000 C 
BRANCH  20  21
ATOM     21  N   UNL     1      45.965   4.009   7.643  0.00  0.00    +0.000 NA
ATOM     22  H   UNL     1      46.303   3.614   6.768  0.00  0.00    +0.000 HD
ATOM     23  H   UNL     1      46.729   3.904   8.313  0.00  0.00    +0.000 HD
ENDBRANCH  20  21
ENDBRANCH  19  20
ENDBRANCH  13  19
ENDBRANCH   1  16
TORSDOF 5
ENDMDL
MODEL 8
REMARK VINA RESULT:    -6.045      3.818      7.237
REMARK INTER + INTRA:          -7.349
REMARK INTER:                  -7.031
REMARK INTRA:                  -0.319
REMARK UNBOUND:                 0.286
REMARK  Name = 
REMARK  5 active torsions:
REMARK  status: ('A' for Active; 'I' for Inactive)
REMARK    1  A    between atoms: N_1  and  C_2
REMARK    2  A    between atoms: C_2  and  C_3
REMARK    3  A    between atoms: C_3  and  C_4
REMARK    4  A    between atoms: N_7  and  C_8
REMARK    5  A    between atoms: C_8  and  C_9
REMARK                            x       y       z     vdW  Elec       q    Type
REMARK                         _______ _______ _______ _____ _____    ______ ____
ROOT
ATOM      1  C   UNL     1      47.446   5.512  13.411  0.00  0.00    +0.000 C 
ENDROOT
BRANCH   1   2
ATOM      2  C   UNL     1      47.978   5.960  14.743  0.00  0.00    +0.000 A 
ATOM      3  C   UNL     1      48.425   7.230  15.067  0.00  0.00    +0.000 A 
ATOM      4  N   UNL     1      48.728   7.255  16.402  0.00  0.00    +0.000 N 
ATOM      5  C   UNL     1      48.482   6.028  16.970  0.00  0.00    +0.000 A 
ATOM      6  C   UNL     1      48.576   5.616  18.308  0.00  0.00    +0.000 A 
ATOM      7  C   UNL     1      48.267   4.285  18.607  0.00  0.00    +0.000 A 
ATOM      8  C   UNL     1      47.922   3.391  17.600  0.00  0.00    +0.000 A 
ATOM      9  C   UNL     1      47.835   3.822  16.273  0.00  0.00    +0.000 A 
ATOM     10  F   UNL     1      47.508   2.932  15.326  0.00  0.00    +0.000 F 
ATOM     11  C   UNL     1      48.085   5.169  15.943  0.00  0.00    +0.000 A 
ATOM     12  H   UNL     1      49.054   8.067  16.906  0.00  0.00    +0.000 HD
ENDBRANCH   1   2
BRANCH   1  16
ATOM     13  C   UNL     1      43.549   5.688  11.569  0.00  0.00    +0.000 C 
ATOM     14  C   UNL     1      44.455   6.928  11.527  0.00  0.00    +0.000 C 
ATOM     15  C   UNL     1      45.901   6.614  11.933  0.00  0.00    +0.000 C 
ATOM     16  N   UNL     1      46.026   5.911  13.225  0.00  0.00    +0.000 NA
ATOM     17  C   UNL     1      45.126   4.750  13.319  0.00  0.00    +0.000 C 
ATOM     18  C   UNL     1      43.675   5.095  12.975  0.00  0.00    +0.000 C 
BRANCH  13  19
ATOM     19  C   UNL     1      43.902   4.696  10.434  0.00  0.00    +0.000 C 
BRANCH  19  20
ATOM     20  C   UNL     1      43.713   3.226  10.816  0.00  0.00    +0.000 C 
BRANCH  20  21
ATOM     21  N   UNL     1      44.871   2.447  10.386  0.00  0.00    +0.000 NA
ATOM     22  H   UNL     1      45.131   2.725   9.441  0.00  0.00    +0.000 HD
ATOM     23  H   UNL     1      44.614   1.461  10.328  0.00  0.00    +0.000 HD
ENDBRANCH  20  21
ENDBRANCH  19  20
ENDBRANCH  13  19
ENDBRANCH   1  16
TORSDOF 5
ENDMDL
