MODEL 1
REMARK VINA RESULT:    -8.004      0.000      0.000
REMARK INTER + INTRA:         -13.600
REMARK INTER:                 -12.450
REMARK INTRA:                  -1.150
REMARK UNBOUND:                -1.150
REMARK  Name = 
REMARK  10 active torsions:
REMARK  status: ('A' for Active; 'I' for Inactive)
REMARK    1  A    between atoms: N_1  and  C_2
REMARK    2  A    between atoms: C_2  and  C_3
REMARK    3  A    between atoms: C_3  and  N_4
REMARK    4  A    between atoms: N_4  and  C_5
REMARK    5  A    between atoms: C_5  and  C_6
REMARK    6  A    between atoms: C_9  and  C_10
REMARK    7  A    between atoms: C_10  and  N_11
REMARK    8  A    between atoms: C_12  and  C_14
REMARK    9  A    between atoms: C_25  and  C_26
REMARK   10  A    between atoms: C_26  and  N_27
REMARK                            x       y       z     vdW  Elec       q    Type
REMARK                         _______ _______ _______ _____ _____    ______ ____
ROOT
ATOM      1  C   UNL     1      45.377   6.630  11.893  0.00  0.00    +0.000 A 
ATOM      2  C   UNL     1      46.454   6.807  12.787  0.00  0.00    +0.000 A 
ATOM      3  C   UNL     1      46.957   5.751  13.547  0.00  0.00    +0.000 A 
ATOM      4  C   UNL     1      46.389   4.481  13.442  0.00  0.00    +0.000 A 
ATOM      5  C   UNL     1      45.301   4.297  12.578  0.00  0.00    +0.000 A 
ATOM      6  C   UNL     1      44.788   5.348  11.784  0.00  0.00    +0.000 A 
ENDROOT
BRANCH   1   7
ATOM      7  C   UNL     1      44.965   7.829  11.060  0.00  0.00    +0.000 C 
BRANCH   7   8
ATOM      8  N   UNL     1      44.107   8.770  11.782  0.00  0.00    +0.000 NA
ATOM      9  H   UNL     1      43.189   8.361  11.927  0.00  0.00    +0.000 HD
BRANCH   8  10
ATOM     10  C   UNL     1      43.963  10.012  11.009  0.00  0.00    +0.000 C 
BRANCH  10  11
ATOM     11  C   UNL     1      42.525  10.193  10.493  0.00  0.00    +0.000 C 
BRANCH  11  12
ATOM     12  N   UNL     1      41.607   9.256  11.142  0.00  0.00    +0.000 NA
ATOM     13  H   UNL     1      40.802   9.104  10.536  0.00  0.00    +0.000 HD
ATOM     14  H   UNL     1      41.245   9.669  12.001  0.00  0.00    +0.000 HD
ENDBRANCH  11  12
ENDBRANCH  10  11
ENDBRANCH   8  10
ENDBRANCH   7   8
ENDBRANCH   1   7
BRANCH   4  15
ATOM     15  C   UNL     1      46.912   3.334  14.263  0.00  0.00    +0.000 C 
BRANCH  15  16
ATOM     16  N   UNL     1      47.811   3.809  15.286  0.00  0.00    +0.000 N 
ATOM     17  C   UNL     1      47.531   3.730  16.622  0.00  0.00    +0.000 C 
ATOM     18  O   UNL     1      46.474   3.269  17.045  0.00  0.00    +0.000 OA
ATOM     19  H   UNL     1      48.651   4.280  14.966  0.00  0.00    +0.000 HD
BRANCH  17  20
ATOM     20  C   UNL     1      48.587   4.178  17.541  0.00  0.00    +0.000 A 
ATOM     21  C   UNL     1      48.355   5.274  18.362  0.00  0.00    +0.000 A 
ATOM     22  S   UNL     1      49.669   5.661  19.377  0.00  0.00    +0.000 S 
ATOM     23  C   UNL     1      50.610   4.401  18.728  0.00  0.00    +0.000 A 
ATOM     24  N   UNL     1      51.886   4.194  19.151  0.00  0.00    +0.000 NA
ATOM     25  C   UNL     1      52.498   3.229  18.551  0.00  0.00    +0.000 A 
ATOM     26  N   UNL     1      51.949   2.441  17.574  0.00  0.00    +0.000 N 
ATOM     27  C   UNL     1      50.640   2.564  17.171  0.00  0.00    +0.000 A 
ATOM     28  O   UNL     1      50.134   1.751  16.405  0.00  0.00    +0.000 OA
ATOM     29  C   UNL     1      49.921   3.673  17.773  0.00  0.00    +0.000 A 
ATOM     30  H   UNL     1      52.468   1.675  17.172  0.00  0.00    +0.000 HD
ENDBRANCH  17  20
ENDBRANCH  15  16
ENDBRANCH   4  15
BRANCH   6  31
ATOM     31  C   UNL     1      43.692   4.991  10.790  0.00  0.00    +0.000 C 
BRANCH  31  32
ATOM     32  N   UNL     1      43.865   3.618  10.382  0.00  0.00    +0.000 N 
ATOM     33  C   UNL     1      44.752   3.346   9.362  0.00  0.00    +0.000 A 
ATOM     34  N   UNL     1      45.261   2.105   9.377  0.00  0.00    +0.000 NA
ATOM     35  C   UNL     1      46.082   1.761   8.361  0.00  0.00    +0.000 A 
ATOM     36  C   UNL     1      46.425   2.614   7.350  0.00  0.00    +0.000 A 
ATOM     37  C   UNL     1      45.874   3.872   7.436  0.00  0.00    +0.000 A 
ATOM     38  N   UNL     1      45.046   4.259   8.427  0.00  0.00    +0.000 NA
ATOM     39  H   UNL     1      44.023   2.944  11.118  0.00  0.00    +0.000 HD
ENDBRANCH  31  32
ENDBRANCH   6  31
TORSDOF 10
ENDMDL
MODEL 2
REMARK VINA RESULT:    -7.916      1.630      2.014
REMARK INTER + INTRA:         -13.463
REMARK INTER:                 -12.264
REMARK INTRA:                  -1.198
REMARK UNBOUND:                -1.150
REMARK  Name = 
REMARK  10 active torsions:
REMARK  status: ('A' for Active; 'I' for Inactive)
REMARK    1  A    between atoms: N_1  and  C_2
REMARK    2  A    between atoms: C_2  and  C_3
REMARK    3  A    between atoms: C_3  and  N_4
REMARK    4  A    between atoms: N_4  and  C_5
REMARK    5  A    between atoms: C_5  and  C_6
REMARK    6  A    between atoms: C_9  and  C_10
REMARK    7  A    between atoms: C_10  and  N_11
REMARK    8  A    between atoms: C_12  and  C_14
REMARK    9  A    between atoms: C_25  and  C_26
REMARK   10  A    between atoms: C_26  and  N_27
REMARK                            x       y       z     vdW  Elec       q    Type
REMARK                         _______ _______ _______ _____ _____    ______ ____
ROOT
ATOM      1  C   UNL     1      45.075   6.683  11.592  0.00  0.00    +0.000 A 
ATOM      2  C   UNL     1      46.028   6.947  12.598  0.00  0.00    +0.000 A 
ATOM      3  C   UNL     1      46.573   5.927  13.378  0.00  0.00    +0.000 A 
ATOM      4  C   UNL     1      46.171   4.606  13.181  0.00  0.00    +0.000 A 
ATOM      5  C   UNL     1      45.205   4.332  12.203  0.00  0.00    +0.000 A 
ATOM      6  C   UNL     1      44.654   5.347  11.388  0.00  0.00    +0.000 A 
ENDROOT
BRANCH   1   7
ATOM      7  C   UNL     1      44.611   7.858  10.752  0.00  0.00    +0.000 C 
BRANCH   7   8
ATOM      8  N   UNL     1      43.285   8.352  11.127  0.00  0.00    +0.000 NA
ATOM      9  H   UNL     1      42.567   7.759  10.723  0.00  0.00    +0.000 HD
BRANCH   8  10
ATOM     10  C   UNL     1      43.105   9.726  10.638  0.00  0.00    +0.000 C 
BRANCH  10  11
ATOM     11  C   UNL     1      41.671  10.229  10.881  0.00  0.00    +0.000 C 
BRANCH  11  12
ATOM     12  N   UNL     1      40.818   9.163  11.406  0.00  0.00    +0.000 NA
ATOM     13  H   UNL     1      40.218   8.816  10.659  0.00  0.00    +0.000 HD
ATOM     14  H   UNL     1      40.195   9.541  12.120  0.00  0.00    +0.000 HD
ENDBRANCH  11  12
ENDBRANCH  10  11
ENDBRANCH   8  10
ENDBRANCH   7   8
ENDBRANCH   1   7
BRANCH   4  15
ATOM     15  C   UNL     1      46.739   3.495  14.021  0.00  0.00    +0.000 C 
BRANCH  15  16
ATOM     16  N   UNL     1      47.178   3.998  15.300  0.00  0.00    +0.000 N 
ATOM     17  C   UNL     1      48.121   3.370  16.065  0.00  0.00    +0.000 C 
ATOM     18  O   UNL     1      48.645   2.313  15.725  0.00  0.00    +0.000 OA
ATOM     19  H   UNL     1      46.697   4.818  15.652  0.00  0.00    +0.000 HD
BRANCH  17  20
ATOM     20  C   UNL     1      48.523   4.054  17.302  0.00  0.00    +0.000 A 
ATOM     21  C   UNL     1      48.342   3.416  18.523  0.00  0.00    +0.000 A 
ATOM     22  S   UNL     1      48.868   4.332  19.861  0.00  0.00    +0.000 S 
ATOM     23  C   UNL     1      49.320   5.632  18.861  0.00  0.00    +0.000 A 
ATOM     24  N   UNL     1      49.831   6.775  19.391  0.00  0.00    +0.000 NA
ATOM     25  C   UNL     1      50.098   7.693  18.524  0.00  0.00    +0.000 A 
ATOM     26  N   UNL     1      49.915   7.570  17.171  0.00  0.00    +0.000 N 
ATOM     27  C   UNL     1      49.477   6.406  16.585  0.00  0.00    +0.000 A 
ATOM     28  O   UNL     1      49.464   6.276  15.366  0.00  0.00    +0.000 OA
ATOM     29  C   UNL     1      49.106   5.359  17.520  0.00  0.00    +0.000 A 
ATOM     30  H   UNL     1      50.183   8.311  16.542  0.00  0.00    +0.000 HD
ENDBRANCH  17  20
ENDBRANCH  15  16
ENDBRANCH   4  15
BRANCH   6  31
ATOM     31  C   UNL     1      43.713   4.907  10.276  0.00  0.00    +0.000 C 
BRANCH  31  32
ATOM     32  N   UNL     1      43.962   3.516   9.983  0.00  0.00    +0.000 N 
ATOM     33  C   UNL     1      44.892   3.210   9.012  0.00  0.00    +0.000 A 
ATOM     34  N   UNL     1      45.457   2.000   9.138  0.00  0.00    +0.000 NA
ATOM     35  C   UNL     1      46.325   1.619   8.176  0.00  0.00    +0.000 A 
ATOM     36  C   UNL     1      46.660   2.407   7.110  0.00  0.00    +0.000 A 
ATOM     37  C   UNL     1      46.049   3.640   7.082  0.00  0.00    +0.000 A 
ATOM     38  N   UNL     1      45.174   4.061   8.017  0.00  0.00    +0.000 NA
ATOM     39  H   UNL     1      44.127   2.910  10.772  0.00  0.00    +0.000 HD
ENDBRANCH  31  32
ENDBRANCH   6  31
TORSDOF 10
ENDMDL
MODEL 3
REMARK VINA RESULT:    -7.792      2.388      3.575
REMARK INTER + INTRA:         -13.270
REMARK INTER:                 -11.498
REMARK INTRA:                  -1.771
REMARK UNBOUND:                -1.150
REMARK  Name = 
REMARK  10 active torsions:
REMARK  status: ('A' for Active; 'I' for Inactive)
REMARK    1  A    between atoms: N_1  and  C_2
REMARK    2  A    between atoms: C_2  and  C_3
REMARK    3  A    between atoms: C_3  and  N_4
REMARK    4  A    between atoms: N_4  and  C_5
REMARK    5  A    between atoms: C_5  and  C_6
REMARK    6  A    between atoms: C_9  and  C_10
REMARK    7  A    between atoms: C_10  and  N_11
REMARK    8  A    between atoms: C_12  and  C_14
REMARK    9  A    between atoms: C_25  and  C_26
REMARK   10  A    between atoms: C_26  and  N_27
REMARK                            x       y       z     vdW  Elec       q    Type
REMARK                         _______ _______ _______ _____ _____    ______ ____
ROOT
ATOM      1  C   UNL     1      44.525   6.253  11.448  0.00  0.00    +0.000 A 
ATOM      2  C   UNL     1      44.767   6.816  12.718  0.00  0.00    +0.000 A 
ATOM      3  C   UNL     1      46.054   7.161  13.135  0.00  0.00    +0.000 A 
ATOM      4  C   UNL     1      47.143   6.941  12.293  0.00  0.00    +0.000 A 
ATOM      5  C   UNL     1      46.921   6.357  11.038  0.00  0.00    +0.000 A 
ATOM      6  C   UNL     1      45.625   6.018  10.588  0.00  0.00    +0.000 A 
ENDROOT
BRANCH   1   7
ATOM      7  C   UNL     1      43.080   5.992  11.070  0.00  0.00    +0.000 C 
BRANCH   7   8
ATOM      8  N   UNL     1      42.444   4.957  11.886  0.00  0.00    +0.000 NA
ATOM      9  H   UNL     1      42.638   5.122  12.869  0.00  0.00    +0.000 HD
BRANCH   8  10
ATOM     10  C   UNL     1      42.961   3.633  11.511  0.00  0.00    +0.000 C 
BRANCH  10  11
ATOM     11  C   UNL     1      43.966   3.103  12.549  0.00  0.00    +0.000 C 
BRANCH  11  12
ATOM     12  N   UNL     1      45.216   2.689  11.913  0.00  0.00    +0.000 NA
ATOM     13  H   UNL     1      45.650   1.957  12.474  0.00  0.00    +0.000 HD
ATOM     14  H   UNL     1      45.873   3.468  11.903  0.00  0.00    +0.000 HD
ENDBRANCH  11  12
ENDBRANCH  10  11
ENDBRANCH   8  10
ENDBRANCH   7   8
ENDBRANCH   1   7
BRANCH   4  15
ATOM     15  C   UNL     1      48.538   7.296  12.731  0.00  0.00    +0.000 C 
BRANCH  15  16
ATOM     16  N   UNL     1      48.850   6.668  13.991  0.00  0.00    +0.000 N 
ATOM     17  C   UNL     1      48.799   7.329  15.188  0.00  0.00    +0.000 C 
ATOM     18  O   UNL     1      48.505   8.518  15.268  0.00  0.00    +0.000 OA
ATOM     19  H   UNL     1      49.187   5.712  13.949  0.00  0.00    +0.000 HD
BRANCH  17  20
ATOM     20  C   UNL     1      49.061   6.527  16.391  0.00  0.00    +0.000 A 
ATOM     21  C   UNL     1      49.965   6.994  17.338  0.00  0.00    +0.000 A 
ATOM     22  S   UNL     1      50.150   5.959  18.679  0.00  0.00    +0.000 S 
ATOM     23  C   UNL     1      49.059   4.829  18.025  0.00  0.00    +0.000 A 
ATOM     24  N   UNL     1      48.784   3.668  18.677  0.00  0.00    +0.000 NA
ATOM     25  C   UNL     1      47.968   2.886  18.054  0.00  0.00    +0.000 A 
ATOM     26  N   UNL     1      47.390   3.162  16.842  0.00  0.00    +0.000 N 
ATOM     27  C   UNL     1      47.578   4.356  16.186  0.00  0.00    +0.000 A 
ATOM     28  O   UNL     1      46.933   4.634  15.181  0.00  0.00    +0.000 OA
ATOM     29  C   UNL     1      48.533   5.250  16.816  0.00  0.00    +0.000 A 
ATOM     30  H   UNL     1      46.728   2.525  16.426  0.00  0.00    +0.000 HD
ENDBRANCH  17  20
ENDBRANCH  15  16
ENDBRANCH   4  15
BRANCH   6  31
ATOM     31  C   UNL     1      45.500   5.513   9.158  0.00  0.00    +0.000 C 
BRANCH  31  32
ATOM     32  N   UNL     1      45.221   4.098   9.189  0.00  0.00    +0.000 N 
ATOM     33  C   UNL     1      45.880   3.283   8.293  0.00  0.00    +0.000 A 
ATOM     34  N   UNL     1      46.002   2.005   8.682  0.00  0.00    +0.000 NA
ATOM     35  C   UNL     1      46.578   1.146   7.814  0.00  0.00    +0.000 A 
ATOM     36  C   UNL     1      47.050   1.520   6.587  0.00  0.00    +0.000 A 
ATOM     37  C   UNL     1      46.903   2.856   6.288  0.00  0.00    +0.000 A 
ATOM     38  N   UNL     1      46.331   3.749   7.121  0.00  0.00    +0.000 NA
ATOM     39  H   UNL     1      45.249   3.651  10.093  0.00  0.00    +0.000 HD
ENDBRANCH  31  32
ENDBRANCH   6  31
TORSDOF 10
ENDMDL
MODEL 4
REMARK VINA RESULT:    -7.717      3.099      6.173
REMARK INTER + INTRA:         -13.153
REMARK INTER:                 -11.155
REMARK INTRA:                  -1.998
REMARK UNBOUND:                -1.150
REMARK  Name = 
REMARK  10 active torsions:
REMARK  status: ('A' for Active; 'I' for Inactive)
REMARK    1  A    between atoms: N_1  and  C_2
REMARK    2  A    between atoms: C_2  and  C_3
REMARK    3  A    between atoms: C_3  and  N_4
REMARK    4  A    between atoms: N_4  and  C_5
REMARK    5  A    between atoms: C_5  and  C_6
REMARK    6  A    between atoms: C_9  and  C_10
REMARK    7  A    between atoms: C_10  and  N_11
REMARK    8  A    between atoms: C_12  and  C_14
REMARK    9  A    between atoms: C_25  and  C_26
REMARK   10  A    between atoms: C_26  and  N_27
REMARK                            x       y       z     vdW  Elec       q    Type
REMARK                         _______ _______ _______ _____ _____    ______ ____
ROOT
ATOM      1  C   UNL     1      44.963   4.670  11.946  0.00  0.00    +0.000 A 
ATOM      2  C   UNL     1      44.340   5.725  11.246  0.00  0.00    +0.000 A 
ATOM      3  C   UNL     1      44.622   7.061  11.530  0.00  0.00    +0.000 A 
ATOM      4  C   UNL     1      45.533   7.385  12.535  0.00  0.00    +0.000 A 
ATOM      5  C   UNL     1      46.140   6.348  13.257  0.00  0.00    +0.000 A 
ATOM      6  C   UNL     1      45.884   4.987  12.973  0.00  0.00    +0.000 A 
ENDROOT
BRANCH   1   7
ATOM      7  C   UNL     1      44.641   3.257  11.499  0.00  0.00    +0.000 C 
BRANCH   7   8
ATOM      8  N   UNL     1      44.062   3.190  10.157  0.00  0.00    +0.000 NA
ATOM      9  H   UNL     1      43.231   2.606  10.167  0.00  0.00    +0.000 HD
BRANCH   8  10
ATOM     10  C   UNL     1      45.038   2.620   9.217  0.00  0.00    +0.000 C 
BRANCH  10  11
ATOM     11  C   UNL     1      45.140   3.457   7.931  0.00  0.00    +0.000 C 
BRANCH  11  12
ATOM     12  N   UNL     1      45.698   4.781   8.204  0.00  0.00    +0.000 NA
ATOM     13  H   UNL     1      46.649   4.677   8.555  0.00  0.00    +0.000 HD
ATOM     14  H   UNL     1      45.167   5.233   8.948  0.00  0.00    +0.000 HD
ENDBRANCH  11  12
ENDBRANCH  10  11
ENDBRANCH   8  10
ENDBRANCH   7   8
ENDBRANCH   1   7
BRANCH   4  15
ATOM     15  C   UNL     1      45.839   8.821  12.862  0.00  0.00    +0.000 C 
BRANCH  15  16
ATOM     16  N   UNL     1      46.815   8.905  13.921  0.00  0.00    +0.000 N 
ATOM     17  C   UNL     1      48.045   9.479  13.758  0.00  0.00    +0.000 C 
ATOM     18  O   UNL     1      48.416   9.944  12.684  0.00  0.00    +0.000 OA
ATOM     19  H   UNL     1      46.575   8.446  14.794  0.00  0.00    +0.000 HD
BRANCH  17  20
ATOM     20  C   UNL     1      48.893   9.564  14.956  0.00  0.00    +0.000 A 
ATOM     21  C   UNL     1      49.109  10.801  15.551  0.00  0.00    +0.000 A 
ATOM     22  S   UNL     1      50.102  10.732  16.935  0.00  0.00    +0.000 S 
ATOM     23  C   UNL     1      50.311   9.052  16.767  0.00  0.00    +0.000 A 
ATOM     24  N   UNL     1      51.095   8.357  17.634  0.00  0.00    +0.000 NA
ATOM     25  C   UNL     1      51.196   7.097  17.371  0.00  0.00    +0.000 A 
ATOM     26  N   UNL     1      50.574   6.463  16.327  0.00  0.00    +0.000 N 
ATOM     27  C   UNL     1      49.712   7.111  15.474  0.00  0.00    +0.000 A 
ATOM     28  O   UNL     1      49.057   6.490  14.644  0.00  0.00    +0.000 OA
ATOM     29  C   UNL     1      49.606   8.543  15.690  0.00  0.00    +0.000 A 
ATOM     30  H   UNL     1      50.661   5.467  16.200  0.00  0.00    +0.000 HD
ENDBRANCH  17  20
ENDBRANCH  15  16
ENDBRANCH   4  15
BRANCH   6  31
ATOM     31  C   UNL     1      46.702   3.956  13.737  0.00  0.00    +0.000 C 
BRANCH  31  32
ATOM     32  N   UNL     1      46.646   4.270  15.144  0.00  0.00    +0.000 N 
ATOM     33  C   UNL     1      47.631   3.765  15.966  0.00  0.00    +0.000 A 
ATOM     34  N   UNL     1      47.844   4.471  17.086  0.00  0.00    +0.000 NA
ATOM     35  C   UNL     1      48.750   3.985  17.961  0.00  0.00    +0.000 A 
ATOM     36  C   UNL     1      49.459   2.836  17.749  0.00  0.00    +0.000 A 
ATOM     37  C   UNL     1      49.191   2.196  16.560  0.00  0.00    +0.000 A 
ATOM     38  N   UNL     1      48.293   2.642  15.659  0.00  0.00    +0.000 NA
ATOM     39  H   UNL     1      46.507   5.240  15.386  0.00  0.00    +0.000 HD
ENDBRANCH  31  32
ENDBRANCH   6  31
TORSDOF 10
ENDMDL
MODEL 5
REMARK VINA RESULT:    -7.295      2.206      3.314
REMARK INTER + INTRA:         -12.496
REMARK INTER:                 -11.354
REMARK INTRA:                  -1.142
REMARK UNBOUND:                -1.150
REMARK  Name = 
REMARK  10 active torsions:
REMARK  status: ('A' for Active; 'I' for Inactive)
REMARK    1  A    between atoms: N_1  and  C_2
REMARK    2  A    between atoms: C_2  and  C_3
REMARK    3  A    between atoms: C_3  and  N_4
REMARK    4  A    between atoms: N_4  and  C_5
REMARK    5  A    between atoms: C_5  and  C_6
REMARK    6  A    between atoms: C_9  and  C_10
REMARK    7  A    between atoms: C_10  and  N_11
REMARK    8  A    between atoms: C_12  and  C_14
REMARK    9  A    between atoms: C_25  and  C_26
REMARK   10  A    between atoms: C_26  and  N_27
REMARK                            x       y       z     vdW  Elec       q    Type
REMARK                         _______ _______ _______ _____ _____    ______ ____
ROOT
ATOM      1  C   UNL     1      45.284   9.109  11.714  0.00  0.00    +0.000 A 
ATOM      2  C   UNL     1      46.154  10.126  12.163  0.00  0.00    +0.000 A 
ATOM      3  C   UNL     1      47.403   9.833  12.711  0.00  0.00    +0.000 A 
ATOM      4  C   UNL     1      47.818   8.508  12.836  0.00  0.00    +0.000 A 
ATOM      5  C   UNL     1      46.954   7.486  12.419  0.00  0.00    +0.000 A 
ATOM      6  C   UNL     1      45.692   7.760  11.844  0.00  0.00    +0.000 A 
ENDROOT
BRANCH   1   7
ATOM      7  C   UNL     1      43.986   9.546  11.063  0.00  0.00    +0.000 C 
BRANCH   7   8
ATOM      8  N   UNL     1      43.134  10.343  11.946  0.00  0.00    +0.000 NA
ATOM      9  H   UNL     1      42.573   9.732  12.532  0.00  0.00    +0.000 HD
BRANCH   8  10
ATOM     10  C   UNL     1      42.240  11.194  11.147  0.00  0.00    +0.000 C 
BRANCH  10  11
ATOM     11  C   UNL     1      40.760  10.872  11.419  0.00  0.00    +0.000 C 
BRANCH  11  12
ATOM     12  N   UNL     1      40.526   9.428  11.436  0.00  0.00    +0.000 NA
ATOM     13  H   UNL     1      40.377   9.125  12.397  0.00  0.00    +0.000 HD
ATOM     14  H   UNL     1      41.359   8.940  11.109  0.00  0.00    +0.000 HD
ENDBRANCH  11  12
ENDBRANCH  10  11
ENDBRANCH   8  10
ENDBRANCH   7   8
ENDBRANCH   1   7
BRANCH   4  15
ATOM     15  C   UNL     1      49.158   8.174  13.436  0.00  0.00    +0.000 C 
BRANCH  15  16
ATOM     16  N   UNL     1      49.000   7.326  14.591  0.00  0.00    +0.000 N 
ATOM     17  C   UNL     1      50.032   7.009  15.431  0.00  0.00    +0.000 C 
ATOM     18  O   UNL     1      51.178   7.409  15.242  0.00  0.00    +0.000 OA
ATOM     19  H   UNL     1      48.087   6.905  14.722  0.00  0.00    +0.000 HD
BRANCH  17  20
ATOM     20  C   UNL     1      49.693   6.205  16.613  0.00  0.00    +0.000 A 
ATOM     21  C   UNL     1      50.339   6.457  17.817  0.00  0.00    +0.000 A 
ATOM     22  S   UNL     1      49.828   5.451  19.094  0.00  0.00    +0.000 S 
ATOM     23  C   UNL     1      48.752   4.615  18.076  0.00  0.00    +0.000 A 
ATOM     24  N   UNL     1      48.004   3.582  18.549  0.00  0.00    +0.000 NA
ATOM     25  C   UNL     1      47.258   3.013  17.662  0.00  0.00    +0.000 A 
ATOM     26  N   UNL     1      47.179   3.389  16.347  0.00  0.00    +0.000 N 
ATOM     27  C   UNL     1      47.857   4.475  15.844  0.00  0.00    +0.000 A 
ATOM     28  O   UNL     1      47.653   4.877  14.704  0.00  0.00    +0.000 OA
ATOM     29  C   UNL     1      48.757   5.117  16.785  0.00  0.00    +0.000 A 
ATOM     30  H   UNL     1      46.545   2.928  15.713  0.00  0.00    +0.000 HD
ENDBRANCH  17  20
ENDBRANCH  15  16
ENDBRANCH   4  15
BRANCH   6  31
ATOM     31  C   UNL     1      44.903   6.572  11.311  0.00  0.00    +0.000 C 
BRANCH  31  32
ATOM     32  N   UNL     1      45.572   6.060  10.140  0.00  0.00    +0.000 N 
ATOM     33  C   UNL     1      45.235   4.799   9.695  0.00  0.00    +0.000 A 
ATOM     34  N   UNL     1      45.456   4.587   8.389  0.00  0.00    +0.000 NA
ATOM     35  C   UNL     1      45.209   3.347   7.913  0.00  0.00    +0.000 A 
ATOM     36  C   UNL     1      44.733   2.326   8.687  0.00  0.00    +0.000 A 
ATOM     37  C   UNL     1      44.513   2.647  10.007  0.00  0.00    +0.000 A 
ATOM     38  N   UNL     1      44.750   3.868  10.527  0.00  0.00    +0.000 NA
ATOM     39  H   UNL     1      45.611   6.671   9.338  0.00  0.00    +0.000 HD
ENDBRANCH  31  32
ENDBRANCH   6  31
TORSDOF 10
ENDMDL
MODEL 6
REMARK VINA RESULT:    -7.245      3.332      5.954
REMARK INTER + INTRA:         -12.419
REMARK INTER:                 -10.414
REMARK INTRA:                  -2.006
REMARK UNBOUND:                -1.150
REMARK  Name = 
REMARK  10 active torsions:
REMARK  status: ('A' for Active; 'I' for Inactive)
REMARK    1  A    between atoms: N_1  and  C_2
REMARK    2  A    between atoms: C_2  and  C_3
REMARK    3  A    between atoms: C_3  and  N_4
REMARK    4  A    between atoms: N_4  and  C_5
REMARK    5  A    between atoms: C_5  and  C_6
REMARK    6  A    between atoms: C_9  and  C_10
REMARK    7  A    between atoms: C_10  and  N_11
REMARK    8  A    between atoms: C_12  and  C_14
REMARK    9  A    between atoms: C_25  and  C_26
REMARK   10  A    between atoms: C_26  and  N_27
REMARK                            x       y       z     vdW  Elec       q    Type
REMARK                         _______ _______ _______ _____ _____    ______ ____
ROOT
ATOM      1  C   UNL     1      45.010   5.998  12.735  0.00  0.00    +0.000 A 
ATOM      2  C   UNL     1      44.877   7.239  12.077  0.00  0.00    +0.000 A 
ATOM      3  C   UNL     1      45.982   8.045  11.802  0.00  0.00    +0.000 A 
ATOM      4  C   UNL     1      47.259   7.638  12.188  0.00  0.00    +0.000 A 
ATOM      5  C   UNL     1      47.403   6.420  12.867  0.00  0.00    +0.000 A 
ATOM      6  C   UNL     1      46.300   5.578  13.139  0.00  0.00    +0.000 A 
ENDROOT
BRANCH   1   7
ATOM      7  C   UNL     1      43.753   5.170  12.911  0.00  0.00    +0.000 C 
BRANCH   7   8
ATOM      8  N   UNL     1      43.148   4.755  11.644  0.00  0.00    +0.000 NA
ATOM      9  H   UNL     1      42.137   4.743  11.730  0.00  0.00    +0.000 HD
BRANCH   8  10
ATOM     10  C   UNL     1      43.616   3.409  11.282  0.00  0.00    +0.000 C 
BRANCH  10  11
ATOM     11  C   UNL     1      44.201   3.378   9.860  0.00  0.00    +0.000 C 
BRANCH  11  12
ATOM     12  N   UNL     1      43.825   4.573   9.105  0.00  0.00    +0.000 NA
ATOM     13  H   UNL     1      44.263   5.389   9.531  0.00  0.00    +0.000 HD
ATOM     14  H   UNL     1      42.818   4.721   9.173  0.00  0.00    +0.000 HD
ENDBRANCH  11  12
ENDBRANCH  10  11
ENDBRANCH   8  10
ENDBRANCH   7   8
ENDBRANCH   1   7
BRANCH   4  15
ATOM     15  C   UNL     1      48.460   8.501  11.910  0.00  0.00    +0.000 C 
BRANCH  15  16
ATOM     16  N   UNL     1      49.586   8.076  12.704  0.00  0.00    +0.000 N 
ATOM     17  C   UNL     1      50.328   8.934  13.468  0.00  0.00    +0.000 C 
ATOM     18  O   UNL     1      50.098  10.140  13.511  0.00  0.00    +0.000 OA
ATOM     19  H   UNL     1      49.859   7.103  12.617  0.00  0.00    +0.000 HD
BRANCH  17  20
ATOM     20  C   UNL     1      51.389   8.333  14.287  0.00  0.00    +0.000 A 
ATOM     21  C   UNL     1      52.715   8.660  14.030  0.00  0.00    +0.000 A 
ATOM     22  S   UNL     1      53.825   7.892  15.071  0.00  0.00    +0.000 S 
ATOM     23  C   UNL     1      52.577   7.063  15.877  0.00  0.00    +0.000 A 
ATOM     24  N   UNL     1      52.855   6.193  16.885  0.00  0.00    +0.000 NA
ATOM     25  C   UNL     1      51.820   5.606  17.385  0.00  0.00    +0.000 A 
ATOM     26  N   UNL     1      50.528   5.817  16.979  0.00  0.00    +0.000 N 
ATOM     27  C   UNL     1      50.194   6.744  16.020  0.00  0.00    +0.000 A 
ATOM     28  O   UNL     1      49.022   7.017  15.784  0.00  0.00    +0.000 OA
ATOM     29  C   UNL     1      51.327   7.392  15.382  0.00  0.00    +0.000 A 
ATOM     30  H   UNL     1      49.758   5.356  17.439  0.00  0.00    +0.000 HD
ENDBRANCH  17  20
ENDBRANCH  15  16
ENDBRANCH   4  15
BRANCH   6  31
ATOM     31  C   UNL     1      46.602   4.224  13.764  0.00  0.00    +0.000 C 
BRANCH  31  32
ATOM     32  N   UNL     1      46.404   4.317  15.190  0.00  0.00    +0.000 N 
ATOM     33  C   UNL     1      47.366   3.782  16.020  0.00  0.00    +0.000 A 
ATOM     34  N   UNL     1      47.418   4.329  17.244  0.00  0.00    +0.000 NA
ATOM     35  C   UNL     1      48.296   3.797  18.122  0.00  0.00    +0.000 A 
ATOM     36  C   UNL     1      49.131   2.759  17.815  0.00  0.00    +0.000 A 
ATOM     37  C   UNL     1      49.023   2.284  16.528  0.00  0.00    +0.000 A 
ATOM     38  N   UNL     1      48.159   2.779  15.620  0.00  0.00    +0.000 NA
ATOM     39  H   UNL     1      46.150   5.224  15.553  0.00  0.00    +0.000 HD
ENDBRANCH  31  32
ENDBRANCH   6  31
TORSDOF 10
ENDMDL
MODEL 7
REMARK VINA RESULT:    -7.198      3.112      9.548
REMARK INTER + INTRA:         -12.346
REMARK INTER:                 -10.852
REMARK INTRA:                  -1.494
REMARK UNBOUND:                -1.150
REMARK  Name = 
REMARK  10 active torsions:
REMARK  status: ('A' for Active; 'I' for Inactive)
REMARK    1  A    between atoms: N_1  and  C_2
REMARK    2  A    between atoms: C_2  and  C_3
REMARK    3  A    between atoms: C_3  and  N_4
REMARK    4  A    between atoms: N_4  and  C_5
REMARK    5  A    between atoms: C_5  and  C_6
REMARK    6  A    between atoms: C_9  and  C_10
REMARK    7  A    between atoms: C_10  and  N_11
REMARK    8  A    between atoms: C_12  and  C_14
REMARK    9  A    between atoms: C_25  and  C_26
REMARK   10  A    between atoms: C_26  and  N_27
REMARK                            x       y       z     vdW  Elec       q    Type
REMARK                         _______ _______ _______ _____ _____    ______ ____
ROOT
ATOM      1  C   UNL     1      51.333   3.439  17.757  0.00  0.00    +0.000 A 
ATOM      2  C   UNL     1      50.681   2.264  17.326  0.00  0.00    +0.000 A 
ATOM      3  C   UNL     1      49.316   2.245  17.042  0.00  0.00    +0.000 A 
ATOM      4  C   UNL     1      48.554   3.404  17.191  0.00  0.00    +0.000 A 
ATOM      5  C   UNL     1      49.182   4.572  17.645  0.00  0.00    +0.000 A 
ATOM      6  C   UNL     1      50.568   4.619  17.920  0.00  0.00    +0.000 A 
ENDROOT
BRANCH   1   7
ATOM      7  C   UNL     1      52.834   3.364  17.960  0.00  0.00    +0.000 C 
BRANCH   7   8
ATOM      8  N   UNL     1      53.232   2.431  19.014  0.00  0.00    +0.000 NA
ATOM      9  H   UNL     1      53.508   2.944  19.846  0.00  0.00    +0.000 HD
BRANCH   8  10
ATOM     10  C   UNL     1      54.363   1.611  18.558  0.00  0.00    +0.000 C 
BRANCH  10  11
ATOM     11  C   UNL     1      53.899   0.469  17.638  0.00  0.00    +0.000 C 
BRANCH  11  12
ATOM     12  N   UNL     1      52.917  -0.384  18.306  0.00  0.00    +0.000 NA
ATOM     13  H   UNL     1      52.589  -1.093  17.650  0.00  0.00    +0.000 HD
ATOM     14  H   UNL     1      52.098   0.168  18.562  0.00  0.00    +0.000 HD
ENDBRANCH  11  12
ENDBRANCH  10  11
ENDBRANCH   8  10
ENDBRANCH   7   8
ENDBRANCH   1   7
BRANCH   4  15
ATOM     15  C   UNL     1      47.078   3.397  16.901  0.00  0.00    +0.000 C 
BRANCH  15  16
ATOM     16  N   UNL     1      46.752   4.381  15.898  0.00  0.00    +0.000 N 
ATOM     17  C   UNL     1      46.819   4.129  14.556  0.00  0.00    +0.000 C 
ATOM     18  O   UNL     1      47.187   3.046  14.109  0.00  0.00    +0.000 OA
ATOM     19  H   UNL     1      46.535   5.314  16.234  0.00  0.00    +0.000 HD
BRANCH  17  20
ATOM     20  C   UNL     1      46.371   5.207  13.663  0.00  0.00    +0.000 A 
ATOM     21  C   UNL     1      47.203   6.298  13.442  0.00  0.00    +0.000 A 
ATOM     22  S   UNL     1      46.549   7.455  12.376  0.00  0.00    +0.000 S 
ATOM     23  C   UNL     1      45.113   6.561  12.202  0.00  0.00    +0.000 A 
ATOM     24  N   UNL     1      44.095   7.020  11.425  0.00  0.00    +0.000 NA
ATOM     25  C   UNL     1      43.051   6.262  11.409  0.00  0.00    +0.000 A 
ATOM     26  N   UNL     1      42.933   5.077  12.088  0.00  0.00    +0.000 N 
ATOM     27  C   UNL     1      43.964   4.536  12.821  0.00  0.00    +0.000 A 
ATOM     28  O   UNL     1      43.881   3.408  13.293  0.00  0.00    +0.000 OA
ATOM     29  C   UNL     1      45.143   5.378  12.920  0.00  0.00    +0.000 A 
ATOM     30  H   UNL     1      42.104   4.510  12.002  0.00  0.00    +0.000 HD
ENDBRANCH  17  20
ENDBRANCH  15  16
ENDBRANCH   4  15
BRANCH   6  31
ATOM     31  C   UNL     1      51.155   5.977  18.278  0.00  0.00    +0.000 C 
BRANCH  31  32
ATOM     32  N   UNL     1      50.365   7.005  17.645  0.00  0.00    +0.000 N 
ATOM     33  C   UNL     1      50.753   7.452  16.400  0.00  0.00    +0.000 A 
ATOM     34  N   UNL     1      49.764   7.973  15.658  0.00  0.00    +0.000 NA
ATOM     35  C   UNL     1      50.098   8.489  14.456  0.00  0.00    +0.000 A 
ATOM     36  C   UNL     1      51.374   8.485  13.964  0.00  0.00    +0.000 A 
ATOM     37  C   UNL     1      52.314   7.906  14.786  0.00  0.00    +0.000 A 
ATOM     38  N   UNL     1      52.028   7.382  15.995  0.00  0.00    +0.000 NA
ATOM     39  H   UNL     1      49.367   6.861  17.626  0.00  0.00    +0.000 HD
ENDBRANCH  31  32
ENDBRANCH   6  31
TORSDOF 10
ENDMDL
MODEL 8
REMARK VINA RESULT:    -6.997      2.643      3.874
REMARK INTER + INTRA:         -12.032
REMARK INTER:                  -9.947
REMARK INTRA:                  -2.085
REMARK UNBOUND:                -1.150
REMARK  Name = 
REMARK  10 active torsions:
REMARK  status: ('A' for Active; 'I' for Inactive)
REMARK    1  A    between atoms: N_1  and  C_2
REMARK    2  A    between atoms: C_2  and  C_3
REMARK    3  A    between atoms: C_3  and  N_4
REMARK    4  A    between atoms: N_4  and  C_5
REMARK    5  A    between atoms: C_5  and  C_6
REMARK    6  A    between atoms: C_9  and  C_10
REMARK    7  A    between atoms: C_10  and  N_11
REMARK    8  A    between atoms: C_12  and  C_14
REMARK    9  A    between atoms: C_25  and  C_26
REMARK   10  A    between atoms: C_26  and  N_27
REMARK                            x       y       z     vdW  Elec       q    Type
REMARK                         _______ _______ _______ _____ _____    ______ ____
ROOT
ATOM      1  C   UNL     1      47.077   9.478  12.321  0.00  0.00    +0.000 A 
ATOM      2  C   UNL     1      48.008  10.347  12.930  0.00  0.00    +0.000 A 
ATOM      3  C   UNL     1      49.198   9.875  13.485  0.00  0.00    +0.000 A 
ATOM      4  C   UNL     1      49.490   8.511  13.457  0.00  0.00    +0.000 A 
ATOM      5  C   UNL     1      48.562   7.633  12.880  0.00  0.00    +0.000 A 
ATOM      6  C   UNL     1      47.360   8.091  12.294  0.00  0.00    +0.000 A 
ENDROOT
BRANCH   1   7
ATOM      7  C   UNL     1      45.857  10.110  11.681  0.00  0.00    +0.000 C 
BRANCH   7   8
ATOM      8  N   UNL     1      44.651  10.009  12.504  0.00  0.00    +0.000 NA
ATOM      9  H   UNL     1      44.495   9.042  12.774  0.00  0.00    +0.000 HD
BRANCH   8  10
ATOM     10  C   UNL     1      43.485  10.491  11.749  0.00  0.00    +0.000 C 
BRANCH  10  11
ATOM     11  C   UNL     1      43.188   9.594  10.535  0.00  0.00    +0.000 C 
BRANCH  11  12
ATOM     12  N   UNL     1      42.775   8.255  10.954  0.00  0.00    +0.000 NA
ATOM     13  H   UNL     1      43.143   8.068  11.887  0.00  0.00    +0.000 HD
ATOM     14  H   UNL     1      43.191   7.557  10.338  0.00  0.00    +0.000 HD
ENDBRANCH  11  12
ENDBRANCH  10  11
ENDBRANCH   8  10
ENDBRANCH   7   8
ENDBRANCH   1   7
BRANCH   4  15
ATOM     15  C   UNL     1      50.763   7.984  14.061  0.00  0.00    +0.000 C 
BRANCH  15  16
ATOM     16  N   UNL     1      50.474   7.027  15.100  0.00  0.00    +0.000 N 
ATOM     17  C   UNL     1      50.105   7.388  16.367  0.00  0.00    +0.000 C 
ATOM     18  O   UNL     1      50.017   8.562  16.715  0.00  0.00    +0.000 OA
ATOM     19  H   UNL     1      50.627   6.050  14.871  0.00  0.00    +0.000 HD
BRANCH  17  20
ATOM     20  C   UNL     1      49.760   6.294  17.286  0.00  0.00    +0.000 A 
ATOM     21  C   UNL     1      50.368   6.237  18.534  0.00  0.00    +0.000 A 
ATOM     22  S   UNL     1      49.855   4.920  19.487  0.00  0.00    +0.000 S 
ATOM     23  C   UNL     1      48.832   4.355  18.251  0.00  0.00    +0.000 A 
ATOM     24  N   UNL     1      48.104   3.218  18.413  0.00  0.00    +0.000 NA
ATOM     25  C   UNL     1      47.397   2.885  17.386  0.00  0.00    +0.000 A 
ATOM     26  N   UNL     1      47.340   3.591  16.212  0.00  0.00    +0.000 N 
ATOM     27  C   UNL     1      47.997   4.785  16.033  0.00  0.00    +0.000 A 
ATOM     28  O   UNL     1      47.809   5.467  15.031  0.00  0.00    +0.000 OA
ATOM     29  C   UNL     1      48.853   5.179  17.138  0.00  0.00    +0.000 A 
ATOM     30  H   UNL     1      46.736   3.298  15.460  0.00  0.00    +0.000 HD
ENDBRANCH  17  20
ENDBRANCH  15  16
ENDBRANCH   4  15
BRANCH   6  31
ATOM     31  C   UNL     1      46.498   7.057  11.584  0.00  0.00    +0.000 C 
BRANCH  31  32
ATOM     32  N   UNL     1      46.190   5.995  12.512  0.00  0.00    +0.000 N 
ATOM     33  C   UNL     1      45.203   5.096  12.170  0.00  0.00    +0.000 A 
ATOM     34  N   UNL     1      45.311   3.895  12.757  0.00  0.00    +0.000 NA
ATOM     35  C   UNL     1      44.332   2.996  12.512  0.00  0.00    +0.000 A 
ATOM     36  C   UNL     1      43.268   3.248  11.692  0.00  0.00    +0.000 A 
ATOM     37  C   UNL     1      43.259   4.498  11.116  0.00  0.00    +0.000 A 
ATOM     38  N   UNL     1      44.210   5.428  11.334  0.00  0.00    +0.000 NA
ATOM     39  H   UNL     1      46.973   5.473  12.878  0.00  0.00    +0.000 HD
ENDBRANCH  31  32
ENDBRANCH   6  31
TORSDOF 10
ENDMDL
MODEL 9
REMARK VINA RESULT:    -6.892      3.188      5.486
REMARK INTER + INTRA:         -11.869
REMARK INTER:                  -9.676
REMARK INTRA:                  -2.193
REMARK UNBOUND:                -1.150
REMARK  Name = 
REMARK  10 active torsions:
REMARK  status: ('A' for Active; 'I' for Inactive)
REMARK    1  A    between atoms: N_1  and  C_2
REMARK    2  A    between atoms: C_2  and  C_3
REMARK    3  A    between atoms: C_3  and  N_4
REMARK    4  A    between atoms: N_4  and  C_5
REMARK    5  A    between atoms: C_5  and  C_6
REMARK    6  A    between atoms: C_9  and  C_10
REMARK    7  A    between atoms: C_10  and  N_11
REMARK    8  A    between atoms: C_12  and  C_14
REMARK    9  A    between atoms: C_25  and  C_26
REMARK   10  A    between atoms: C_26  and  N_27
REMARK                            x       y       z     vdW  Elec       q    Type
REMARK                         _______ _______ _______ _____ _____    ______ ____
ROOT
ATOM      1  C   UNL     1      44.724   8.503  11.496  0.00  0.00    +0.000 A 
ATOM      2  C   UNL     1      43.885   7.374  11.385  0.00  0.00    +0.000 A 
ATOM      3  C   UNL     1      44.226   6.148  11.957  0.00  0.00    +0.000 A 
ATOM      4  C   UNL     1      45.427   6.011  12.653  0.00  0.00    +0.000 A 
ATOM      5  C   UNL     1      46.283   7.117  12.748  0.00  0.00    +0.000 A 
ATOM      6  C   UNL     1      45.949   8.373  12.193  0.00  0.00    +0.000 A 
ENDROOT
BRANCH   1   7
ATOM      7  C   UNL     1      44.216   9.803  10.904  0.00  0.00    +0.000 C 
BRANCH   7   8
ATOM      8  N   UNL     1      43.055   9.630  10.030  0.00  0.00    +0.000 NA
ATOM      9  H   UNL     1      43.357   9.545   9.065  0.00  0.00    +0.000 HD
BRANCH   8  10
ATOM     10  C   UNL     1      42.157  10.787  10.152  0.00  0.00    +0.000 C 
BRANCH  10  11
ATOM     11  C   UNL     1      41.281  10.692  11.413  0.00  0.00    +0.000 C 
BRANCH  11  12
ATOM     12  N   UNL     1      40.469   9.475  11.404  0.00  0.00    +0.000 NA
ATOM     13  H   UNL     1      39.576   9.666  11.856  0.00  0.00    +0.000 HD
ATOM     14  H   UNL     1      40.923   8.754  11.963  0.00  0.00    +0.000 HD
ENDBRANCH  11  12
ENDBRANCH  10  11
ENDBRANCH   8  10
ENDBRANCH   7   8
ENDBRANCH   1   7
BRANCH   4  15
ATOM     15  C   UNL     1      45.816   4.693  13.265  0.00  0.00    +0.000 C 
BRANCH  15  16
ATOM     16  N   UNL     1      46.426   4.892  14.557  0.00  0.00    +0.000 N 
ATOM     17  C   UNL     1      47.269   3.982  15.132  0.00  0.00    +0.000 C 
ATOM     18  O   UNL     1      47.546   2.913  14.596  0.00  0.00    +0.000 OA
ATOM     19  H   UNL     1      46.143   5.722  15.067  0.00  0.00    +0.000 HD
BRANCH  17  20
ATOM     20  C   UNL     1      47.878   4.371  16.412  0.00  0.00    +0.000 A 
ATOM     21  C   UNL     1      47.652   3.590  17.539  0.00  0.00    +0.000 A 
ATOM     22  S   UNL     1      48.435   4.164  18.940  0.00  0.00    +0.000 S 
ATOM     23  C   UNL     1      49.071   5.500  18.102  0.00  0.00    +0.000 A 
ATOM     24  N   UNL     1      49.831   6.428  18.743  0.00  0.00    +0.000 NA
ATOM     25  C   UNL     1      50.219   7.408  17.997  0.00  0.00    +0.000 A 
ATOM     26  N   UNL     1      49.929   7.541  16.664  0.00  0.00    +0.000 N 
ATOM     27  C   UNL     1      49.231   6.589  15.959  0.00  0.00    +0.000 A 
ATOM     28  O   UNL     1      49.115   6.662  14.741  0.00  0.00    +0.000 OA
ATOM     29  C   UNL     1      48.720   5.492  16.762  0.00  0.00    +0.000 A 
ATOM     30  H   UNL     1      50.297   8.311  16.128  0.00  0.00    +0.000 HD
ENDBRANCH  17  20
ENDBRANCH  15  16
ENDBRANCH   4  15
BRANCH   6  31
ATOM     31  C   UNL     1      46.898   9.529  12.477  0.00  0.00    +0.000 C 
BRANCH  31  32
ATOM     32  N   UNL     1      47.512   9.318  13.766  0.00  0.00    +0.000 N 
ATOM     33  C   UNL     1      48.666  10.013  14.061  0.00  0.00    +0.000 A 
ATOM     34  N   UNL     1      48.890  10.198  15.370  0.00  0.00    +0.000 NA
ATOM     35  C   UNL     1      50.040  10.812  15.720  0.00  0.00    +0.000 A 
ATOM     36  C   UNL     1      50.959  11.262  14.813  0.00  0.00    +0.000 A 
ATOM     37  C   UNL     1      50.628  11.050  13.494  0.00  0.00    +0.000 A 
ATOM     38  N   UNL     1      49.494  10.438  13.098  0.00  0.00    +0.000 NA
ATOM     39  H   UNL     1      46.904   9.370  14.570  0.00  0.00    +0.000 HD
ENDBRANCH  31  32
ENDBRANCH   6  31
TORSDOF 10
ENDMDL
