MODEL 1
REMARK VINA RESULT:    -7.204      0.000      0.000
REMARK INTER + INTRA:         -10.541
REMARK INTER:                  -9.731
REMARK INTRA:                  -0.811
REMARK UNBOUND:                -0.811
REMARK  Name = 
REMARK  7 active torsions:
REMARK  status: ('A' for Active; 'I' for Inactive)
REMARK    1  A    between atoms: C_1  and  O_2
REMARK    2  A    between atoms: O_2  and  C_3
REMARK    3  A    between atoms: C_5  and  C_6
REMARK    4  A    between atoms: C_6  and  N_7
REMARK    5  A    between atoms: C_8  and  C_10
REMARK    6  A    between atoms: C_22  and  C_23
REMARK    7  A    between atoms: C_23  and  N_24
REMARK                            x       y       z     vdW  Elec       q    Type
REMARK                         _______ _______ _______ _____ _____    ______ ____
ROOT
ATOM      1  C   UNL     1      47.219   3.416  16.790  0.00  0.00    +0.000 C 
ENDROOT
BRANCH   1   4
ATOM      2  C   UNL     1      50.762   4.654  17.562  0.00  0.00    +0.000 A 
ATOM      3  C   UNL     1      49.373   4.624  17.341  0.00  0.00    +0.000 A 
ATOM      4  C   UNL     1      48.700   3.425  17.065  0.00  0.00    +0.000 A 
ATOM      5  C   UNL     1      49.437   2.242  17.050  0.00  0.00    +0.000 A 
ATOM      6  C   UNL     1      50.807   2.260  17.334  0.00  0.00    +0.000 A 
ATOM      7  C   UNL     1      51.495   3.456  17.630  0.00  0.00    +0.000 A 
BRANCH   2   9
ATOM      8  C   UNL     1      51.700   6.559  16.555  0.00  0.00    +0.000 C 
ATOM      9  O   UNL     1      51.277   5.910  17.753  0.00  0.00    +0.000 OA
ENDBRANCH   2   9
BRANCH   7  10
ATOM     10  C   UNL     1      52.960   3.335  18.017  0.00  0.00    +0.000 C 
BRANCH  10  11
ATOM     11  N   UNL     1      53.388   2.275  18.945  0.00  0.00    +0.000 NA
ATOM     12  C   UNL     1      54.253   2.701  20.044  0.00  0.00    +0.000 C 
ATOM     13  C   UNL     1      55.659   2.422  19.555  0.00  0.00    +0.000 C 
ATOM     14  C   UNL     1      55.493   1.118  18.798  0.00  0.00    +0.000 C 
ATOM     15  C   UNL     1      54.041   1.119  18.324  0.00  0.00    +0.000 C 
ENDBRANCH  10  11
ENDBRANCH   7  10
ENDBRANCH   1   4
BRANCH   1  16
ATOM     16  N   UNL     1      46.835   4.408  15.812  0.00  0.00    +0.000 N 
ATOM     17  C   UNL     1      46.845   4.155  14.465  0.00  0.00    +0.000 C 
ATOM     18  O   UNL     1      47.216   3.078  14.008  0.00  0.00    +0.000 OA
ATOM     19  H   UNL     1      46.676   5.351  16.149  0.00  0.00    +0.000 HD
BRANCH  17  20
ATOM     20  C   UNL     1      46.313   5.210  13.591  0.00  0.00    +0.000 A 
ATOM     21  C   UNL     1      47.091   6.341  13.343  0.00  0.00    +0.000 A 
ATOM     22  S   UNL     1      46.359   7.463  12.287  0.00  0.00    +0.000 S 
ATOM     23  C   UNL     1      44.964   6.500  12.151  0.00  0.00    +0.000 A 
ATOM     24  N   UNL     1      43.906   6.915  11.389  0.00  0.00    +0.000 NA
ATOM     25  C   UNL     1      42.900   6.104  11.394  0.00  0.00    +0.000 A 
ATOM     26  N   UNL     1      42.856   4.920  12.083  0.00  0.00    +0.000 N 
ATOM     27  C   UNL     1      43.913   4.443  12.820  0.00  0.00    +0.000 A 
ATOM     28  O   UNL     1      43.871   3.334  13.346  0.00  0.00    +0.000 OA
ATOM     29  C   UNL     1      45.061   5.328  12.882  0.00  0.00    +0.000 A 
ATOM     30  H   UNL     1      42.045   4.322  12.024  0.00  0.00    +0.000 HD
ENDBRANCH  17  20
ENDBRANCH   1  16
TORSDOF 6
ENDMDL
MODEL 2
REMARK VINA RESULT:    -6.974      2.942      9.132
REMARK INTER + INTRA:         -10.230
REMARK INTER:                  -9.097
REMARK INTRA:                  -1.133
REMARK UNBOUND:                -0.811
REMARK  Name = 
REMARK  7 active torsions:
REMARK  status: ('A' for Active; 'I' for Inactive)
REMARK    1  A    between atoms: C_1  and  O_2
REMARK    2  A    between atoms: O_2  and  C_3
REMARK    3  A    between atoms: C_5  and  C_6
REMARK    4  A    between atoms: C_6  and  N_7
REMARK    5  A    between atoms: C_8  and  C_10
REMARK    6  A    between atoms: C_22  and  C_23
REMARK    7  A    between atoms: C_23  and  N_24
REMARK                            x       y       z     vdW  Elec       q    Type
REMARK                         _______ _______ _______ _____ _____    ______ ____
ROOT
ATOM      1  C   UNL     1      49.160   6.690  16.273  0.00  0.00    +0.000 C 
ENDROOT
BRANCH   1   4
ATOM      2  C   UNL     1      47.098   5.707  13.197  0.00  0.00    +0.000 A 
ATOM      3  C   UNL     1      47.983   6.386  14.054  0.00  0.00    +0.000 A 
ATOM      4  C   UNL     1      48.241   5.928  15.354  0.00  0.00    +0.000 A 
ATOM      5  C   UNL     1      47.624   4.751  15.775  0.00  0.00    +0.000 A 
ATOM      6  C   UNL     1      46.794   4.039  14.902  0.00  0.00    +0.000 A 
ATOM      7  C   UNL     1      46.538   4.477  13.585  0.00  0.00    +0.000 A 
BRANCH   2   9
ATOM      8  C   UNL     1      46.054   7.464  12.035  0.00  0.00    +0.000 C 
ATOM      9  O   UNL     1      46.904   6.319  11.985  0.00  0.00    +0.000 OA
ENDBRANCH   2   9
BRANCH   7  10
ATOM     10  C   UNL     1      45.699   3.568  12.703  0.00  0.00    +0.000 C 
BRANCH  10  11
ATOM     11  N   UNL     1      44.231   3.590  12.814  0.00  0.00    +0.000 NA
ATOM     12  C   UNL     1      43.496   3.125  11.640  0.00  0.00    +0.000 C 
ATOM     13  C   UNL     1      43.154   4.388  10.877  0.00  0.00    +0.000 C 
ATOM     14  C   UNL     1      42.840   5.371  11.988  0.00  0.00    +0.000 C 
ATOM     15  C   UNL     1      43.647   4.880  13.189  0.00  0.00    +0.000 C 
ENDBRANCH  10  11
ENDBRANCH   7  10
ENDBRANCH   1   4
BRANCH   1  16
ATOM     16  N   UNL     1      50.256   5.878  16.751  0.00  0.00    +0.000 N 
ATOM     17  C   UNL     1      50.402   5.543  18.072  0.00  0.00    +0.000 C 
ATOM     18  O   UNL     1      49.624   5.943  18.934  0.00  0.00    +0.000 OA
ATOM     19  H   UNL     1      50.996   5.667  16.091  0.00  0.00    +0.000 HD
BRANCH  17  20
ATOM     20  C   UNL     1      51.491   4.612  18.402  0.00  0.00    +0.000 A 
ATOM     21  C   UNL     1      52.561   5.068  19.170  0.00  0.00    +0.000 A 
ATOM     22  S   UNL     1      53.731   3.871  19.500  0.00  0.00    +0.000 S 
ATOM     23  C   UNL     1      52.871   2.712  18.598  0.00  0.00    +0.000 A 
ATOM     24  N   UNL     1      53.360   1.443  18.455  0.00  0.00    +0.000 NA
ATOM     25  C   UNL     1      52.624   0.672  17.724  0.00  0.00    +0.000 A 
ATOM     26  N   UNL     1      51.448   1.050  17.130  0.00  0.00    +0.000 N 
ATOM     27  C   UNL     1      50.898   2.299  17.288  0.00  0.00    +0.000 A 
ATOM     28  O   UNL     1      49.796   2.571  16.819  0.00  0.00    +0.000 OA
ATOM     29  C   UNL     1      51.698   3.222  18.072  0.00  0.00    +0.000 A 
ATOM     30  H   UNL     1      50.910   0.389  16.590  0.00  0.00    +0.000 HD
ENDBRANCH  17  20
ENDBRANCH   1  16
TORSDOF 6
ENDMDL
MODEL 3
REMARK VINA RESULT:    -6.880      3.893      9.020
REMARK INTER + INTRA:         -10.104
REMARK INTER:                  -9.266
REMARK INTRA:                  -0.838
REMARK UNBOUND:                -0.811
REMARK  Name = 
REMARK  7 active torsions:
REMARK  status: ('A' for Active; 'I' for Inactive)
REMARK    1  A    between atoms: C_1  and  O_2
REMARK    2  A    between atoms: O_2  and  C_3
REMARK    3  A    between atoms: C_5  and  C_6
REMARK    4  A    between atoms: C_6  and  N_7
REMARK    5  A    between atoms: C_8  and  C_10
REMARK    6  A    between atoms: C_22  and  C_23
REMARK    7  A    between atoms: C_23  and  N_24
REMARK                            x       y       z     vdW  Elec       q    Type
REMARK                         _______ _______ _______ _____ _____    ______ ____
ROOT
ATOM      1  C   UNL     1      47.302   7.674  13.627  0.00  0.00    +0.000 C 
ENDROOT
BRANCH   1   4
ATOM      2  C   UNL     1      44.586   5.730  11.749  0.00  0.00    +0.000 A 
ATOM      3  C   UNL     1      45.340   6.782  12.301  0.00  0.00    +0.000 A 
ATOM      4  C   UNL     1      46.528   6.540  13.008  0.00  0.00    +0.000 A 
ATOM      5  C   UNL     1      46.972   5.224  13.123  0.00  0.00    +0.000 A 
ATOM      6  C   UNL     1      46.258   4.183  12.520  0.00  0.00    +0.000 A 
ATOM      7  C   UNL     1      45.071   4.411  11.791  0.00  0.00    +0.000 A 
BRANCH   2   9
ATOM      8  C   UNL     1      42.237   5.661  11.795  0.00  0.00    +0.000 C 
ATOM      9  O   UNL     1      43.420   6.127  11.147  0.00  0.00    +0.000 OA
ENDBRANCH   2   9
BRANCH   7  10
ATOM     10  C   UNL     1      44.440   3.213  11.101  0.00  0.00    +0.000 C 
BRANCH  10  11
ATOM     11  N   UNL     1      44.270   3.214   9.639  0.00  0.00    +0.000 NA
ATOM     12  C   UNL     1      44.441   1.923   8.976  0.00  0.00    +0.000 C 
ATOM     13  C   UNL     1      45.880   1.921   8.505  0.00  0.00    +0.000 C 
ATOM     14  C   UNL     1      46.087   3.359   8.067  0.00  0.00    +0.000 C 
ATOM     15  C   UNL     1      45.105   4.172   8.909  0.00  0.00    +0.000 C 
ENDBRANCH  10  11
ENDBRANCH   7  10
ENDBRANCH   1   4
BRANCH   1  16
ATOM     16  N   UNL     1      47.799   7.348  14.944  0.00  0.00    +0.000 N 
ATOM     17  C   UNL     1      49.117   7.060  15.183  0.00  0.00    +0.000 C 
ATOM     18  O   UNL     1      49.950   7.028  14.281  0.00  0.00    +0.000 OA
ATOM     19  H   UNL     1      47.110   7.212  15.676  0.00  0.00    +0.000 HD
BRANCH  17  20
ATOM     20  C   UNL     1      49.507   6.867  16.587  0.00  0.00    +0.000 A 
ATOM     21  C   UNL     1      50.484   7.696  17.138  0.00  0.00    +0.000 A 
ATOM     22  S   UNL     1      50.810   7.377  18.781  0.00  0.00    +0.000 S 
ATOM     23  C   UNL     1      49.689   6.098  18.808  0.00  0.00    +0.000 A 
ATOM     24  N   UNL     1      49.500   5.365  19.947  0.00  0.00    +0.000 NA
ATOM     25  C   UNL     1      48.641   4.407  19.822  0.00  0.00    +0.000 A 
ATOM     26  N   UNL     1      47.955   4.118  18.672  0.00  0.00    +0.000 N 
ATOM     27  C   UNL     1      48.079   4.859  17.521  0.00  0.00    +0.000 A 
ATOM     28  O   UNL     1      47.378   4.629  16.539  0.00  0.00    +0.000 OA
ATOM     29  C   UNL     1      49.057   5.929  17.588  0.00  0.00    +0.000 A 
ATOM     30  H   UNL     1      47.279   3.369  18.651  0.00  0.00    +0.000 HD
ENDBRANCH  17  20
ENDBRANCH   1  16
TORSDOF 6
ENDMDL
MODEL 4
REMARK VINA RESULT:    -6.859      1.859      3.016
REMARK INTER + INTRA:         -10.075
REMARK INTER:                  -8.991
REMARK INTRA:                  -1.085
REMARK UNBOUND:                -0.811
REMARK  Name = 
REMARK  7 active torsions:
REMARK  status: ('A' for Active; 'I' for Inactive)
REMARK    1  A    between atoms: C_1  and  O_2
REMARK    2  A    between atoms: O_2  and  C_3
REMARK    3  A    between atoms: C_5  and  C_6
REMARK    4  A    between atoms: C_6  and  N_7
REMARK    5  A    between atoms: C_8  and  C_10
REMARK    6  A    between atoms: C_22  and  C_23
REMARK    7  A    between atoms: C_23  and  N_24
REMARK                            x       y       z     vdW  Elec       q    Type
REMARK                         _______ _______ _______ _____ _____    ______ ____
ROOT
ATOM      1  C   UNL     1      47.274   3.540  16.668  0.00  0.00    +0.000 C 
ENDROOT
BRANCH   1   4
ATOM      2  C   UNL     1      50.930   3.553  17.813  0.00  0.00    +0.000 A 
ATOM      3  C   UNL     1      49.719   3.175  17.204  0.00  0.00    +0.000 A 
ATOM      4  C   UNL     1      48.573   3.979  17.292  0.00  0.00    +0.000 A 
ATOM      5  C   UNL     1      48.666   5.192  17.971  0.00  0.00    +0.000 A 
ATOM      6  C   UNL     1      49.886   5.601  18.521  0.00  0.00    +0.000 A 
ATOM      7  C   UNL     1      51.052   4.812  18.427  0.00  0.00    +0.000 A 
BRANCH   2   9
ATOM      8  C   UNL     1      51.482   1.293  17.476  0.00  0.00    +0.000 C 
ATOM      9  O   UNL     1      51.935   2.629  17.691  0.00  0.00    +0.000 OA
ENDBRANCH   2   9
BRANCH   7  10
ATOM     10  C   UNL     1      52.337   5.407  18.980  0.00  0.00    +0.000 C 
BRANCH  10  11
ATOM     11  N   UNL     1      53.203   6.219  18.109  0.00  0.00    +0.000 NA
ATOM     12  C   UNL     1      53.156   7.662  18.330  0.00  0.00    +0.000 C 
ATOM     13  C   UNL     1      52.161   8.175  17.309  0.00  0.00    +0.000 C 
ATOM     14  C   UNL     1      52.456   7.309  16.098  0.00  0.00    +0.000 C 
ATOM     15  C   UNL     1      53.022   6.011  16.669  0.00  0.00    +0.000 C 
ENDBRANCH  10  11
ENDBRANCH   7  10
ENDBRANCH   1   4
BRANCH   1  16
ATOM     16  N   UNL     1      46.774   4.496  15.707  0.00  0.00    +0.000 N 
ATOM     17  C   UNL     1      46.774   4.253  14.358  0.00  0.00    +0.000 C 
ATOM     18  O   UNL     1      47.234   3.218  13.884  0.00  0.00    +0.000 OA
ATOM     19  H   UNL     1      46.535   5.418  16.055  0.00  0.00    +0.000 HD
BRANCH  17  20
ATOM     20  C   UNL     1      46.125   5.258  13.505  0.00  0.00    +0.000 A 
ATOM     21  C   UNL     1      46.797   6.448  13.229  0.00  0.00    +0.000 A 
ATOM     22  S   UNL     1      45.935   7.503  12.202  0.00  0.00    +0.000 S 
ATOM     23  C   UNL     1      44.620   6.428  12.118  0.00  0.00    +0.000 A 
ATOM     24  N   UNL     1      43.504   6.752  11.397  0.00  0.00    +0.000 NA
ATOM     25  C   UNL     1      42.569   5.860  11.440  0.00  0.00    +0.000 A 
ATOM     26  N   UNL     1      42.648   4.679  12.129  0.00  0.00    +0.000 N 
ATOM     27  C   UNL     1      43.768   4.293  12.825  0.00  0.00    +0.000 A 
ATOM     28  O   UNL     1      43.839   3.186  13.352  0.00  0.00    +0.000 OA
ATOM     29  C   UNL     1      44.841   5.270  12.844  0.00  0.00    +0.000 A 
ATOM     30  H   UNL     1      41.889   4.015  12.100  0.00  0.00    +0.000 HD
ENDBRANCH  17  20
ENDBRANCH   1  16
TORSDOF 6
ENDMDL
MODEL 5
REMARK VINA RESULT:    -6.696      3.317      4.659
REMARK INTER + INTRA:          -9.855
REMARK INTER:                  -8.655
REMARK INTRA:                  -1.200
REMARK UNBOUND:                -0.811
REMARK  Name = 
REMARK  7 active torsions:
REMARK  status: ('A' for Active; 'I' for Inactive)
REMARK    1  A    between atoms: C_1  and  O_2
REMARK    2  A    between atoms: O_2  and  C_3
REMARK    3  A    between atoms: C_5  and  C_6
REMARK    4  A    between atoms: C_6  and  N_7
REMARK    5  A    between atoms: C_8  and  C_10
REMARK    6  A    between atoms: C_22  and  C_23
REMARK    7  A    between atoms: C_23  and  N_24
REMARK                            x       y       z     vdW  Elec       q    Type
REMARK                         _______ _______ _______ _____ _____    ______ ____
ROOT
ATOM      1  C   UNL     1      48.521   7.169  13.555  0.00  0.00    +0.000 C 
ENDROOT
BRANCH   1   4
ATOM      2  C   UNL     1      48.320   5.285  16.885  0.00  0.00    +0.000 A 
ATOM      3  C   UNL     1      48.016   5.765  15.598  0.00  0.00    +0.000 A 
ATOM      4  C   UNL     1      48.880   6.634  14.916  0.00  0.00    +0.000 A 
ATOM      5  C   UNL     1      50.080   6.989  15.531  0.00  0.00    +0.000 A 
ATOM      6  C   UNL     1      50.414   6.462  16.783  0.00  0.00    +0.000 A 
ATOM      7  C   UNL     1      49.564   5.574  17.474  0.00  0.00    +0.000 A 
BRANCH   2   9
ATOM      8  C   UNL     1      47.497   3.104  17.185  0.00  0.00    +0.000 C 
ATOM      9  O   UNL     1      47.343   4.499  17.440  0.00  0.00    +0.000 OA
ENDBRANCH   2   9
BRANCH   7  10
ATOM     10  C   UNL     1      50.080   4.995  18.781  0.00  0.00    +0.000 C 
BRANCH  10  11
ATOM     11  N   UNL     1      49.814   5.694  20.048  0.00  0.00    +0.000 NA
ATOM     12  C   UNL     1      48.767   5.114  20.888  0.00  0.00    +0.000 C 
ATOM     13  C   UNL     1      47.520   5.900  20.543  0.00  0.00    +0.000 C 
ATOM     14  C   UNL     1      48.056   7.308  20.358  0.00  0.00    +0.000 C 
ATOM     15  C   UNL     1      49.510   7.123  19.929  0.00  0.00    +0.000 C 
ENDBRANCH  10  11
ENDBRANCH   7  10
ENDBRANCH   1   4
BRANCH   1  16
ATOM     16  N   UNL     1      47.638   6.284  12.830  0.00  0.00    +0.000 N 
ATOM     17  C   UNL     1      46.650   6.747  12.001  0.00  0.00    +0.000 C 
ATOM     18  O   UNL     1      46.436   7.947  11.852  0.00  0.00    +0.000 OA
ATOM     19  H   UNL     1      47.688   5.297  13.055  0.00  0.00    +0.000 HD
BRANCH  17  20
ATOM     20  C   UNL     1      45.906   5.740  11.232  0.00  0.00    +0.000 A 
ATOM     21  C   UNL     1      45.976   5.764   9.840  0.00  0.00    +0.000 A 
ATOM     22  S   UNL     1      45.089   4.517   9.084  0.00  0.00    +0.000 S 
ATOM     23  C   UNL     1      44.551   3.923  10.584  0.00  0.00    +0.000 A 
ATOM     24  N   UNL     1      43.709   2.847  10.642  0.00  0.00    +0.000 NA
ATOM     25  C   UNL     1      43.355   2.516  11.841  0.00  0.00    +0.000 A 
ATOM     26  N   UNL     1      43.767   3.155  12.980  0.00  0.00    +0.000 N 
ATOM     27  C   UNL     1      44.650   4.208  12.970  0.00  0.00    +0.000 A 
ATOM     28  O   UNL     1      45.071   4.695  14.016  0.00  0.00    +0.000 OA
ATOM     29  C   UNL     1      45.057   4.649  11.649  0.00  0.00    +0.000 A 
ATOM     30  H   UNL     1      43.471   2.829  13.888  0.00  0.00    +0.000 HD
ENDBRANCH  17  20
ENDBRANCH   1  16
TORSDOF 6
ENDMDL
MODEL 6
REMARK VINA RESULT:    -6.576      1.608      2.524
REMARK INTER + INTRA:          -9.694
REMARK INTER:                  -8.513
REMARK INTRA:                  -1.181
REMARK UNBOUND:                -0.811
REMARK  Name = 
REMARK  7 active torsions:
REMARK  status: ('A' for Active; 'I' for Inactive)
REMARK    1  A    between atoms: C_1  and  O_2
REMARK    2  A    between atoms: O_2  and  C_3
REMARK    3  A    between atoms: C_5  and  C_6
REMARK    4  A    between atoms: C_6  and  N_7
REMARK    5  A    between atoms: C_8  and  C_10
REMARK    6  A    between atoms: C_22  and  C_23
REMARK    7  A    between atoms: C_23  and  N_24
REMARK                            x       y       z     vdW  Elec       q    Type
REMARK                         _______ _______ _______ _____ _____    ______ ____
ROOT
ATOM      1  C   UNL     1      47.433   3.295  16.806  0.00  0.00    +0.000 C 
ENDROOT
BRANCH   1   4
ATOM      2  C   UNL     1      50.990   4.460  17.628  0.00  0.00    +0.000 A 
ATOM      3  C   UNL     1      49.601   4.456  17.403  0.00  0.00    +0.000 A 
ATOM      4  C   UNL     1      48.914   3.275  17.083  0.00  0.00    +0.000 A 
ATOM      5  C   UNL     1      49.635   2.084  17.028  0.00  0.00    +0.000 A 
ATOM      6  C   UNL     1      51.005   2.075  17.315  0.00  0.00    +0.000 A 
ATOM      7  C   UNL     1      51.708   3.251  17.654  0.00  0.00    +0.000 A 
BRANCH   2   9
ATOM      8  C   UNL     1      51.950   6.389  16.690  0.00  0.00    +0.000 C 
ATOM      9  O   UNL     1      51.520   5.702  17.864  0.00  0.00    +0.000 OA
ENDBRANCH   2   9
BRANCH   7  10
ATOM     10  C   UNL     1      53.170   3.097  18.039  0.00  0.00    +0.000 C 
BRANCH  10  11
ATOM     11  N   UNL     1      53.529   2.481  19.326  0.00  0.00    +0.000 NA
ATOM     12  C   UNL     1      53.679   3.400  20.453  0.00  0.00    +0.000 C 
ATOM     13  C   UNL     1      55.165   3.684  20.520  0.00  0.00    +0.000 C 
ATOM     14  C   UNL     1      55.775   2.338  20.178  0.00  0.00    +0.000 C 
ATOM     15  C   UNL     1      54.729   1.640  19.311  0.00  0.00    +0.000 C 
ENDBRANCH  10  11
ENDBRANCH   7  10
ENDBRANCH   1   4
BRANCH   1  16
ATOM     16  N   UNL     1      47.062   4.332  15.870  0.00  0.00    +0.000 N 
ATOM     17  C   UNL     1      46.943   4.100  14.525  0.00  0.00    +0.000 C 
ATOM     18  O   UNL     1      47.179   3.001  14.031  0.00  0.00    +0.000 OA
ATOM     19  H   UNL     1      47.014   5.280  16.227  0.00  0.00    +0.000 HD
BRANCH  17  20
ATOM     20  C   UNL     1      46.439   5.211  13.705  0.00  0.00    +0.000 A 
ATOM     21  C   UNL     1      45.190   5.091  13.096  0.00  0.00    +0.000 A 
ATOM     22  S   UNL     1      44.724   6.469  12.204  0.00  0.00    +0.000 S 
ATOM     23  C   UNL     1      46.186   7.260  12.566  0.00  0.00    +0.000 A 
ATOM     24  N   UNL     1      46.441   8.507  12.068  0.00  0.00    +0.000 NA
ATOM     25  C   UNL     1      47.598   8.981  12.397  0.00  0.00    +0.000 A 
ATOM     26  N   UNL     1      48.516   8.328  13.176  0.00  0.00    +0.000 N 
ATOM     27  C   UNL     1      48.280   7.096  13.736  0.00  0.00    +0.000 A 
ATOM     28  O   UNL     1      49.088   6.583  14.506  0.00  0.00    +0.000 OA
ATOM     29  C   UNL     1      47.010   6.495  13.374  0.00  0.00    +0.000 A 
ATOM     30  H   UNL     1      49.393   8.767  13.414  0.00  0.00    +0.000 HD
ENDBRANCH  17  20
ENDBRANCH   1  16
TORSDOF 6
ENDMDL
MODEL 7
REMARK VINA RESULT:    -6.545      4.217      5.741
REMARK INTER + INTRA:          -9.652
REMARK INTER:                  -8.408
REMARK INTRA:                  -1.244
REMARK UNBOUND:                -0.811
REMARK  Name = 
REMARK  7 active torsions:
REMARK  status: ('A' for Active; 'I' for Inactive)
REMARK    1  A    between atoms: C_1  and  O_2
REMARK    2  A    between atoms: O_2  and  C_3
REMARK    3  A    between atoms: C_5  and  C_6
REMARK    4  A    between atoms: C_6  and  N_7
REMARK    5  A    between atoms: C_8  and  C_10
REMARK    6  A    between atoms: C_22  and  C_23
REMARK    7  A    between atoms: C_23  and  N_24
REMARK                            x       y       z     vdW  Elec       q    Type
REMARK                         _______ _______ _______ _____ _____    ______ ____
ROOT
ATOM      1  C   UNL     1      47.372   7.652  12.569  0.00  0.00    +0.000 C 
ENDROOT
BRANCH   1   4
ATOM      2  C   UNL     1      48.812   6.395  15.890  0.00  0.00    +0.000 A 
ATOM      3  C   UNL     1      48.307   6.429  14.578  0.00  0.00    +0.000 A 
ATOM      4  C   UNL     1      47.949   7.637  13.961  0.00  0.00    +0.000 A 
ATOM      5  C   UNL     1      48.141   8.822  14.669  0.00  0.00    +0.000 A 
ATOM      6  C   UNL     1      48.704   8.797  15.949  0.00  0.00    +0.000 A 
ATOM      7  C   UNL     1      49.084   7.591  16.577  0.00  0.00    +0.000 A 
BRANCH   2   9
ATOM      8  C   UNL     1      47.873   4.404  16.716  0.00  0.00    +0.000 C 
ATOM      9  O   UNL     1      49.050   5.133  16.371  0.00  0.00    +0.000 OA
ENDBRANCH   2   9
BRANCH   7  10
ATOM     10  C   UNL     1      49.773   7.701  17.927  0.00  0.00    +0.000 C 
BRANCH  10  11
ATOM     11  N   UNL     1      49.042   7.340  19.154  0.00  0.00    +0.000 NA
ATOM     12  C   UNL     1      47.586   7.436  19.079  0.00  0.00    +0.000 C 
ATOM     13  C   UNL     1      47.262   8.801  19.650  0.00  0.00    +0.000 C 
ATOM     14  C   UNL     1      48.264   8.933  20.781  0.00  0.00    +0.000 C 
ATOM     15  C   UNL     1      49.447   8.061  20.363  0.00  0.00    +0.000 C 
ENDBRANCH  10  11
ENDBRANCH   7  10
ENDBRANCH   1   4
BRANCH   1  16
ATOM     16  N   UNL     1      46.719   6.409  12.231  0.00  0.00    +0.000 N 
ATOM     17  C   UNL     1      45.357   6.258  12.274  0.00  0.00    +0.000 C 
ATOM     18  O   UNL     1      44.613   7.164  12.638  0.00  0.00    +0.000 OA
ATOM     19  H   UNL     1      47.313   5.601  12.080  0.00  0.00    +0.000 HD
BRANCH  17  20
ATOM     20  C   UNL     1      44.818   4.980  11.787  0.00  0.00    +0.000 A 
ATOM     21  C   UNL     1      44.071   4.185  12.655  0.00  0.00    +0.000 A 
ATOM     22  S   UNL     1      43.484   2.750  11.943  0.00  0.00    +0.000 S 
ATOM     23  C   UNL     1      44.236   3.119  10.462  0.00  0.00    +0.000 A 
ATOM     24  N   UNL     1      44.144   2.257   9.405  0.00  0.00    +0.000 NA
ATOM     25  C   UNL     1      44.784   2.644   8.350  0.00  0.00    +0.000 A 
ATOM     26  N   UNL     1      45.499   3.809   8.255  0.00  0.00    +0.000 N 
ATOM     27  C   UNL     1      45.577   4.724   9.276  0.00  0.00    +0.000 A 
ATOM     28  O   UNL     1      46.148   5.801   9.122  0.00  0.00    +0.000 OA
ATOM     29  C   UNL     1      44.907   4.329  10.501  0.00  0.00    +0.000 A 
ATOM     30  H   UNL     1      45.956   4.062   7.391  0.00  0.00    +0.000 HD
ENDBRANCH  17  20
ENDBRANCH   1  16
TORSDOF 6
ENDMDL
MODEL 8
REMARK VINA RESULT:    -6.541      3.613      8.972
REMARK INTER + INTRA:          -9.646
REMARK INTER:                  -8.482
REMARK INTRA:                  -1.164
REMARK UNBOUND:                -0.811
REMARK  Name = 
REMARK  7 active torsions:
REMARK  status: ('A' for Active; 'I' for Inactive)
REMARK    1  A    between atoms: C_1  and  O_2
REMARK    2  A    between atoms: O_2  and  C_3
REMARK    3  A    between atoms: C_5  and  C_6
REMARK    4  A    between atoms: C_6  and  N_7
REMARK    5  A    between atoms: C_8  and  C_10
REMARK    6  A    between atoms: C_22  and  C_23
REMARK    7  A    between atoms: C_23  and  N_24
REMARK                            x       y       z     vdW  Elec       q    Type
REMARK                         _______ _______ _______ _____ _____    ______ ____
ROOT
ATOM      1  C   UNL     1      47.901   8.460  13.995  0.00  0.00    +0.000 C 
ENDROOT
BRANCH   1   4
ATOM      2  C   UNL     1      45.035   7.690  11.572  0.00  0.00    +0.000 A 
ATOM      3  C   UNL     1      45.915   8.374  12.430  0.00  0.00    +0.000 A 
ATOM      4  C   UNL     1      46.992   7.722  13.048  0.00  0.00    +0.000 A 
ATOM      5  C   UNL     1      47.198   6.373  12.764  0.00  0.00    +0.000 A 
ATOM      6  C   UNL     1      46.364   5.706  11.861  0.00  0.00    +0.000 A 
ATOM      7  C   UNL     1      45.287   6.352  11.218  0.00  0.00    +0.000 A 
BRANCH   2   9
ATOM      8  C   UNL     1      44.194   9.859  11.239  0.00  0.00    +0.000 C 
ATOM      9  O   UNL     1      43.997   8.453  11.102  0.00  0.00    +0.000 OA
ENDBRANCH   2   9
BRANCH   7  10
ATOM     10  C   UNL     1      44.512   5.549  10.186  0.00  0.00    +0.000 C 
BRANCH  10  11
ATOM     11  N   UNL     1      43.408   4.675  10.615  0.00  0.00    +0.000 NA
ATOM     12  C   UNL     1      42.638   5.141  11.767  0.00  0.00    +0.000 C 
ATOM     13  C   UNL     1      43.258   4.432  12.954  0.00  0.00    +0.000 C 
ATOM     14  C   UNL     1      43.575   3.060  12.391  0.00  0.00    +0.000 C 
ATOM     15  C   UNL     1      43.776   3.284  10.894  0.00  0.00    +0.000 C 
ENDBRANCH  10  11
ENDBRANCH   7  10
ENDBRANCH   1   4
BRANCH   1  16
ATOM     16  N   UNL     1      48.198   7.693  15.184  0.00  0.00    +0.000 N 
ATOM     17  C   UNL     1      49.463   7.259  15.482  0.00  0.00    +0.000 C 
ATOM     18  O   UNL     1      50.415   7.467  14.735  0.00  0.00    +0.000 OA
ATOM     19  H   UNL     1      47.410   7.373  15.735  0.00  0.00    +0.000 HD
BRANCH  17  20
ATOM     20  C   UNL     1      49.646   6.597  16.781  0.00  0.00    +0.000 A 
ATOM     21  C   UNL     1      50.484   7.184  17.728  0.00  0.00    +0.000 A 
ATOM     22  S   UNL     1      50.574   6.321  19.197  0.00  0.00    +0.000 S 
ATOM     23  C   UNL     1      49.527   5.115  18.611  0.00  0.00    +0.000 A 
ATOM     24  N   UNL     1      49.205   4.039  19.390  0.00  0.00    +0.000 NA
ATOM     25  C   UNL     1      48.424   3.184  18.814  0.00  0.00    +0.000 A 
ATOM     26  N   UNL     1      47.936   3.308  17.540  0.00  0.00    +0.000 N 
ATOM     27  C   UNL     1      48.196   4.397  16.742  0.00  0.00    +0.000 A 
ATOM     28  O   UNL     1      47.664   4.519  15.642  0.00  0.00    +0.000 OA
ATOM     29  C   UNL     1      49.097   5.376  17.322  0.00  0.00    +0.000 A 
ATOM     30  H   UNL     1      47.310   2.614  17.160  0.00  0.00    +0.000 HD
ENDBRANCH  17  20
ENDBRANCH   1  16
TORSDOF 6
ENDMDL
MODEL 9
REMARK VINA RESULT:    -6.529      2.993      9.045
REMARK INTER + INTRA:          -9.630
REMARK INTER:                  -8.407
REMARK INTRA:                  -1.223
REMARK UNBOUND:                -0.811
REMARK  Name = 
REMARK  7 active torsions:
REMARK  status: ('A' for Active; 'I' for Inactive)
REMARK    1  A    between atoms: C_1  and  O_2
REMARK    2  A    between atoms: O_2  and  C_3
REMARK    3  A    between atoms: C_5  and  C_6
REMARK    4  A    between atoms: C_6  and  N_7
REMARK    5  A    between atoms: C_8  and  C_10
REMARK    6  A    between atoms: C_22  and  C_23
REMARK    7  A    between atoms: C_23  and  N_24
REMARK                            x       y       z     vdW  Elec       q    Type
REMARK                         _______ _______ _______ _____ _____    ______ ____
ROOT
ATOM      1  C   UNL     1      48.837   7.874  12.792  0.00  0.00    +0.000 C 
ENDROOT
BRANCH   1   4
ATOM      2  C   UNL     1      46.244   5.094  13.268  0.00  0.00    +0.000 A 
ATOM      3  C   UNL     1      47.455   5.809  13.270  0.00  0.00    +0.000 A 
ATOM      4  C   UNL     1      47.524   7.136  12.820  0.00  0.00    +0.000 A 
ATOM      5  C   UNL     1      46.347   7.753  12.400  0.00  0.00    +0.000 A 
ATOM      6  C   UNL     1      45.130   7.066  12.458  0.00  0.00    +0.000 A 
ATOM      7  C   UNL     1      45.041   5.737  12.924  0.00  0.00    +0.000 A 
BRANCH   2   9
ATOM      8  C   UNL     1      47.178   3.604  14.827  0.00  0.00    +0.000 C 
ATOM      9  O   UNL     1      46.357   3.790  13.675  0.00  0.00    +0.000 OA
ENDBRANCH   2   9
BRANCH   7  10
ATOM     10  C   UNL     1      43.651   5.131  13.030  0.00  0.00    +0.000 C 
BRANCH  10  11
ATOM     11  N   UNL     1      43.057   4.451  11.868  0.00  0.00    +0.000 NA
ATOM     12  C   UNL     1      43.364   3.028  11.737  0.00  0.00    +0.000 C 
ATOM     13  C   UNL     1      44.540   2.976  10.784  0.00  0.00    +0.000 C 
ATOM     14  C   UNL     1      44.209   4.072   9.789  0.00  0.00    +0.000 C 
ATOM     15  C   UNL     1      43.342   5.061  10.566  0.00  0.00    +0.000 C 
ENDBRANCH  10  11
ENDBRANCH   7  10
ENDBRANCH   1   4
BRANCH   1  16
ATOM     16  N   UNL     1      49.818   7.286  13.674  0.00  0.00    +0.000 N 
ATOM     17  C   UNL     1      50.539   8.029  14.573  0.00  0.00    +0.000 C 
ATOM     18  O   UNL     1      50.415   9.248  14.656  0.00  0.00    +0.000 OA
ATOM     19  H   UNL     1      50.053   6.312  13.519  0.00  0.00    +0.000 HD
BRANCH  17  20
ATOM     20  C   UNL     1      51.413   7.288  15.493  0.00  0.00    +0.000 A 
ATOM     21  C   UNL     1      52.791   7.482  15.421  0.00  0.00    +0.000 A 
ATOM     22  S   UNL     1      53.674   6.581  16.570  0.00  0.00    +0.000 S 
ATOM     23  C   UNL     1      52.254   5.872  17.180  0.00  0.00    +0.000 A 
ATOM     24  N   UNL     1      52.317   4.955  18.192  0.00  0.00    +0.000 NA
ATOM     25  C   UNL     1      51.168   4.474  18.542  0.00  0.00    +0.000 A 
ATOM     26  N   UNL     1      49.970   4.827  17.978  0.00  0.00    +0.000 N 
ATOM     27  C   UNL     1      49.858   5.779  16.994  0.00  0.00    +0.000 A 
ATOM     28  O   UNL     1      48.759   6.137  16.579  0.00  0.00    +0.000 OA
ATOM     29  C   UNL     1      51.119   6.331  16.534  0.00  0.00    +0.000 A 
ATOM     30  H   UNL     1      49.107   4.429  18.316  0.00  0.00    +0.000 HD
ENDBRANCH  17  20
ENDBRANCH   1  16
TORSDOF 6
ENDMDL
