MODEL 1
REMARK VINA RESULT:    -8.657      0.000      0.000
REMARK INTER + INTRA:         -14.184
REMARK INTER:                 -12.959
REMARK INTRA:                  -1.225
REMARK UNBOUND:                -1.225
REMARK  Name = 
REMARK  9 active torsions:
REMARK  status: ('A' for Active; 'I' for Inactive)
REMARK    1  A    between atoms: C_2  and  C_22
REMARK    2  A    between atoms: N_3  and  C_4
REMARK    3  A    between atoms: C_4  and  C_5
REMARK    4  A    between atoms: C_8  and  C_9
REMARK    5  A    between atoms: C_9  and  C_10
REMARK    6  A    between atoms: C_9  and  C_12
REMARK    7  A    between atoms: C_10  and  O_11
REMARK    8  A    between atoms: C_12  and  C_13
REMARK    9  A    between atoms: C_13  and  C_14
REMARK                            x       y       z     vdW  Elec       q    Type
REMARK                         _______ _______ _______ _____ _____    ______ ____
ROOT
ATOM      1  C   UNL     1      47.260   6.284  13.018  0.00  0.00    +0.000 A 
ATOM      2  C   UNL     1      46.818   6.700  11.769  0.00  0.00    +0.000 A 
ATOM      3  C   UNL     1      45.723   6.067  11.196  0.00  0.00    +0.000 A 
ATOM      4  C   UNL     1      45.101   5.004  11.857  0.00  0.00    +0.000 A 
ATOM      5  C   UNL     1      45.627   4.644  13.096  0.00  0.00    +0.000 A 
ATOM      6  N   UNL     1      46.680   5.255  13.687  0.00  0.00    +0.000 NA
ENDROOT
BRANCH   1   7
ATOM      7  C   UNL     1      48.437   6.976  13.661  0.00  0.00    +0.000 C 
BRANCH   7  10
ATOM      8  O   UNL     1      50.600   6.715  15.459  0.00  0.00    +0.000 OA
ATOM      9  C   UNL     1      49.467   6.876  15.905  0.00  0.00    +0.000 C 
ATOM     10  N   UNL     1      48.364   6.958  15.102  0.00  0.00    +0.000 N 
ATOM     11  H   UNL     1      47.446   7.109  15.502  0.00  0.00    +0.000 HD
BRANCH   9  12
ATOM     12  C   UNL     1      49.215   6.964  17.346  0.00  0.00    +0.000 A 
ATOM     13  C   UNL     1      48.934   8.187  17.935  0.00  0.00    +0.000 A 
ATOM     14  S   UNL     1      48.639   8.083  19.613  0.00  0.00    +0.000 S 
ATOM     15  C   UNL     1      48.837   6.393  19.600  0.00  0.00    +0.000 A 
ATOM     16  N   UNL     1      48.671   5.656  20.731  0.00  0.00    +0.000 NA
ATOM     17  C   UNL     1      48.804   4.384  20.567  0.00  0.00    +0.000 A 
ATOM     18  N   UNL     1      49.104   3.779  19.374  0.00  0.00    +0.000 N 
ATOM     19  C   UNL     1      49.347   4.484  18.222  0.00  0.00    +0.000 A 
ATOM     20  O   UNL     1      49.728   3.914  17.204  0.00  0.00    +0.000 OA
ATOM     21  C   UNL     1      49.158   5.918  18.341  0.00  0.00    +0.000 A 
ATOM     22  H   UNL     1      49.228   2.780  19.317  0.00  0.00    +0.000 HD
ENDBRANCH   9  12
ENDBRANCH   7  10
ENDBRANCH   1   7
BRANCH   4  23
ATOM     23  C   UNL     1      43.880   4.293  11.300  0.00  0.00    +0.000 C 
BRANCH  23  24
ATOM     24  C   UNL     1      42.627   5.174  11.496  0.00  0.00    +0.000 C 
BRANCH  24  25
ATOM     25  O   UNL     1      42.383   5.467  12.869  0.00  0.00    +0.000 OA
ATOM     26  H   UNL     1      41.765   6.218  12.898  0.00  0.00    +0.000 HD
ENDBRANCH  24  25
ENDBRANCH  23  24
BRANCH  23  27
ATOM     27  C   UNL     1      44.001   3.856   9.822  0.00  0.00    +0.000 C 
BRANCH  27  28
ATOM     28  C   UNL     1      44.653   2.479   9.647  0.00  0.00    +0.000 C 
BRANCH  28  29
ATOM     29  C   UNL     1      45.607   2.465   8.477  0.00  0.00    +0.000 A 
ATOM     30  C   UNL     1      45.805   3.617   7.704  0.00  0.00    +0.000 A 
ATOM     31  C   UNL     1      46.692   3.603   6.627  0.00  0.00    +0.000 A 
ATOM     32  C   UNL     1      47.383   2.436   6.309  0.00  0.00    +0.000 A 
ATOM     33  C   UNL     1      47.180   1.279   7.060  0.00  0.00    +0.000 A 
ATOM     34  C   UNL     1      46.292   1.291   8.137  0.00  0.00    +0.000 A 
ENDBRANCH  28  29
ENDBRANCH  27  28
ENDBRANCH  23  27
ENDBRANCH   4  23
TORSDOF 9
ENDMDL
MODEL 2
REMARK VINA RESULT:    -8.211      2.260      2.809
REMARK INTER + INTRA:         -13.516
REMARK INTER:                 -12.443
REMARK INTRA:                  -1.073
REMARK UNBOUND:                -1.225
REMARK  Name = 
REMARK  9 active torsions:
REMARK  status: ('A' for Active; 'I' for Inactive)
REMARK    1  A    between atoms: C_2  and  C_22
REMARK    2  A    between atoms: N_3  and  C_4
REMARK    3  A    between atoms: C_4  and  C_5
REMARK    4  A    between atoms: C_8  and  C_9
REMARK    5  A    between atoms: C_9  and  C_10
REMARK    6  A    between atoms: C_9  and  C_12
REMARK    7  A    between atoms: C_10  and  O_11
REMARK    8  A    between atoms: C_12  and  C_13
REMARK    9  A    between atoms: C_13  and  C_14
REMARK                            x       y       z     vdW  Elec       q    Type
REMARK                         _______ _______ _______ _____ _____    ______ ____
ROOT
ATOM      1  C   UNL     1      47.555   6.149  14.260  0.00  0.00    +0.000 A 
ATOM      2  C   UNL     1      47.162   4.900  14.723  0.00  0.00    +0.000 A 
ATOM      3  C   UNL     1      46.381   4.093  13.906  0.00  0.00    +0.000 A 
ATOM      4  C   UNL     1      45.973   4.551  12.650  0.00  0.00    +0.000 A 
ATOM      5  C   UNL     1      46.400   5.824  12.278  0.00  0.00    +0.000 A 
ATOM      6  N   UNL     1      47.176   6.625  13.046  0.00  0.00    +0.000 NA
ENDROOT
BRANCH   1   7
ATOM      7  C   UNL     1      48.419   7.029  15.129  0.00  0.00    +0.000 C 
BRANCH   7  10
ATOM      8  O   UNL     1      48.709   6.180  17.807  0.00  0.00    +0.000 OA
ATOM      9  C   UNL     1      49.583   5.897  16.992  0.00  0.00    +0.000 C 
ATOM     10  N   UNL     1      49.539   6.316  15.691  0.00  0.00    +0.000 N 
ATOM     11  H   UNL     1      50.268   6.050  15.040  0.00  0.00    +0.000 HD
BRANCH   9  12
ATOM     12  C   UNL     1      50.759   5.107  17.368  0.00  0.00    +0.000 A 
ATOM     13  C   UNL     1      51.895   5.732  17.858  0.00  0.00    +0.000 A 
ATOM     14  S   UNL     1      53.145   4.645  18.269  0.00  0.00    +0.000 S 
ATOM     15  C   UNL     1      52.193   3.300  17.845  0.00  0.00    +0.000 A 
ATOM     16  N   UNL     1      52.657   2.031  17.999  0.00  0.00    +0.000 NA
ATOM     17  C   UNL     1      51.813   1.110  17.683  0.00  0.00    +0.000 A 
ATOM     18  N   UNL     1      50.548   1.340  17.210  0.00  0.00    +0.000 N 
ATOM     19  C   UNL     1      50.059   2.600  16.972  0.00  0.00    +0.000 A 
ATOM     20  O   UNL     1      48.966   2.761  16.437  0.00  0.00    +0.000 OA
ATOM     21  C   UNL     1      50.952   3.675  17.362  0.00  0.00    +0.000 A 
ATOM     22  H   UNL     1      49.946   0.574  16.947  0.00  0.00    +0.000 HD
ENDBRANCH   9  12
ENDBRANCH   7  10
ENDBRANCH   1   7
BRANCH   4  23
ATOM     23  C   UNL     1      45.149   3.704  11.695  0.00  0.00    +0.000 C 
BRANCH  23  24
ATOM     24  C   UNL     1      43.746   3.461  12.292  0.00  0.00    +0.000 C 
BRANCH  24  25
ATOM     25  O   UNL     1      43.508   2.084  12.567  0.00  0.00    +0.000 OA
ATOM     26  H   UNL     1      43.825   1.578  11.798  0.00  0.00    +0.000 HD
ENDBRANCH  24  25
ENDBRANCH  23  24
BRANCH  23  27
ATOM     27  C   UNL     1      45.030   4.271  10.262  0.00  0.00    +0.000 C 
BRANCH  27  28
ATOM     28  C   UNL     1      44.468   3.262   9.254  0.00  0.00    +0.000 C 
BRANCH  28  29
ATOM     29  C   UNL     1      45.535   2.781   8.301  0.00  0.00    +0.000 A 
ATOM     30  C   UNL     1      46.074   3.646   7.338  0.00  0.00    +0.000 A 
ATOM     31  C   UNL     1      47.065   3.201   6.462  0.00  0.00    +0.000 A 
ATOM     32  C   UNL     1      47.521   1.886   6.536  0.00  0.00    +0.000 A 
ATOM     33  C   UNL     1      46.980   1.013   7.478  0.00  0.00    +0.000 A 
ATOM     34  C   UNL     1      45.988   1.456   8.353  0.00  0.00    +0.000 A 
ENDBRANCH  28  29
ENDBRANCH  27  28
ENDBRANCH  23  27
ENDBRANCH   4  23
TORSDOF 9
ENDMDL
MODEL 3
REMARK VINA RESULT:    -7.981      1.911      2.195
REMARK INTER + INTRA:         -13.172
REMARK INTER:                 -11.578
REMARK INTRA:                  -1.594
REMARK UNBOUND:                -1.225
REMARK  Name = 
REMARK  9 active torsions:
REMARK  status: ('A' for Active; 'I' for Inactive)
REMARK    1  A    between atoms: C_2  and  C_22
REMARK    2  A    between atoms: N_3  and  C_4
REMARK    3  A    between atoms: C_4  and  C_5
REMARK    4  A    between atoms: C_8  and  C_9
REMARK    5  A    between atoms: C_9  and  C_10
REMARK    6  A    between atoms: C_9  and  C_12
REMARK    7  A    between atoms: C_10  and  O_11
REMARK    8  A    between atoms: C_12  and  C_13
REMARK    9  A    between atoms: C_13  and  C_14
REMARK                            x       y       z     vdW  Elec       q    Type
REMARK                         _______ _______ _______ _____ _____    ______ ____
ROOT
ATOM      1  C   UNL     1      47.676   6.749  12.872  0.00  0.00    +0.000 A 
ATOM      2  C   UNL     1      47.025   6.870  11.651  0.00  0.00    +0.000 A 
ATOM      3  C   UNL     1      45.991   5.994  11.348  0.00  0.00    +0.000 A 
ATOM      4  C   UNL     1      45.637   4.987  12.251  0.00  0.00    +0.000 A 
ATOM      5  C   UNL     1      46.358   4.930  13.442  0.00  0.00    +0.000 A 
ATOM      6  N   UNL     1      47.358   5.782  13.771  0.00  0.00    +0.000 NA
ENDROOT
BRANCH   1   7
ATOM      7  C   UNL     1      48.788   7.705  13.223  0.00  0.00    +0.000 C 
BRANCH   7  10
ATOM      8  O   UNL     1      50.396   8.991  15.157  0.00  0.00    +0.000 OA
ATOM      9  C   UNL     1      50.505   7.778  15.000  0.00  0.00    +0.000 C 
ATOM     10  N   UNL     1      49.800   7.093  14.050  0.00  0.00    +0.000 N 
ATOM     11  H   UNL     1      49.899   6.089  13.960  0.00  0.00    +0.000 HD
BRANCH   9  12
ATOM     12  C   UNL     1      51.427   6.978  15.811  0.00  0.00    +0.000 A 
ATOM     13  C   UNL     1      52.794   7.199  15.741  0.00  0.00    +0.000 A 
ATOM     14  S   UNL     1      53.700   6.193  16.779  0.00  0.00    +0.000 S 
ATOM     15  C   UNL     1      52.292   5.455  17.386  0.00  0.00    +0.000 A 
ATOM     16  N   UNL     1      52.356   4.510  18.362  0.00  0.00    +0.000 NA
ATOM     17  C   UNL     1      51.211   4.071  18.760  0.00  0.00    +0.000 A 
ATOM     18  N   UNL     1      50.002   4.481  18.260  0.00  0.00    +0.000 N 
ATOM     19  C   UNL     1      49.889   5.380  17.229  0.00  0.00    +0.000 A 
ATOM     20  O   UNL     1      48.795   5.631  16.731  0.00  0.00    +0.000 OA
ATOM     21  C   UNL     1      51.148   5.944  16.780  0.00  0.00    +0.000 A 
ATOM     22  H   UNL     1      49.141   4.074  18.590  0.00  0.00    +0.000 HD
ENDBRANCH   9  12
ENDBRANCH   7  10
ENDBRANCH   1   7
BRANCH   4  23
ATOM     23  C   UNL     1      44.494   4.020  11.994  0.00  0.00    +0.000 C 
BRANCH  23  24
ATOM     24  C   UNL     1      43.317   4.340  12.941  0.00  0.00    +0.000 C 
BRANCH  24  25
ATOM     25  O   UNL     1      42.709   5.592  12.641  0.00  0.00    +0.000 OA
ATOM     26  H   UNL     1      41.762   5.424  12.488  0.00  0.00    +0.000 HD
ENDBRANCH  24  25
ENDBRANCH  23  24
BRANCH  23  27
ATOM     27  C   UNL     1      44.003   3.969  10.529  0.00  0.00    +0.000 C 
BRANCH  27  28
ATOM     28  C   UNL     1      44.229   2.609   9.858  0.00  0.00    +0.000 C 
BRANCH  28  29
ATOM     29  C   UNL     1      45.306   2.686   8.804  0.00  0.00    +0.000 A 
ATOM     30  C   UNL     1      45.618   3.908   8.191  0.00  0.00    +0.000 A 
ATOM     31  C   UNL     1      46.618   3.978   7.220  0.00  0.00    +0.000 A 
ATOM     32  C   UNL     1      47.311   2.827   6.849  0.00  0.00    +0.000 A 
ATOM     33  C   UNL     1      46.997   1.604   7.440  0.00  0.00    +0.000 A 
ATOM     34  C   UNL     1      45.996   1.532   8.410  0.00  0.00    +0.000 A 
ENDBRANCH  28  29
ENDBRANCH  27  28
ENDBRANCH  23  27
ENDBRANCH   4  23
TORSDOF 9
ENDMDL
MODEL 4
REMARK VINA RESULT:    -7.613      2.442      3.164
REMARK INTER + INTRA:         -12.621
REMARK INTER:                 -11.660
REMARK INTRA:                  -0.961
REMARK UNBOUND:                -1.225
REMARK  Name = 
REMARK  9 active torsions:
REMARK  status: ('A' for Active; 'I' for Inactive)
REMARK    1  A    between atoms: C_2  and  C_22
REMARK    2  A    between atoms: N_3  and  C_4
REMARK    3  A    between atoms: C_4  and  C_5
REMARK    4  A    between atoms: C_8  and  C_9
REMARK    5  A    between atoms: C_9  and  C_10
REMARK    6  A    between atoms: C_9  and  C_12
REMARK    7  A    between atoms: C_10  and  O_11
REMARK    8  A    between atoms: C_12  and  C_13
REMARK    9  A    between atoms: C_13  and  C_14
REMARK                            x       y       z     vdW  Elec       q    Type
REMARK                         _______ _______ _______ _____ _____    ______ ____
ROOT
ATOM      1  C   UNL     1      47.293   6.261  13.598  0.00  0.00    +0.000 A 
ATOM      2  C   UNL     1      47.131   5.030  14.221  0.00  0.00    +0.000 A 
ATOM      3  C   UNL     1      46.364   4.055  13.598  0.00  0.00    +0.000 A 
ATOM      4  C   UNL     1      45.740   4.326  12.376  0.00  0.00    +0.000 A 
ATOM      5  C   UNL     1      45.944   5.594  11.837  0.00  0.00    +0.000 A 
ATOM      6  N   UNL     1      46.701   6.557  12.413  0.00  0.00    +0.000 NA
ENDROOT
BRANCH   1   7
ATOM      7  C   UNL     1      48.140   7.323  14.254  0.00  0.00    +0.000 C 
BRANCH   7  10
ATOM      8  O   UNL     1      48.551   7.572  17.037  0.00  0.00    +0.000 OA
ATOM      9  C   UNL     1      49.331   6.891  16.376  0.00  0.00    +0.000 C 
ATOM     10  N   UNL     1      49.228   6.765  15.019  0.00  0.00    +0.000 N 
ATOM     11  H   UNL     1      49.877   6.180  14.506  0.00  0.00    +0.000 HD
BRANCH   9  12
ATOM     12  C   UNL     1      50.452   6.182  17.000  0.00  0.00    +0.000 A 
ATOM     13  C   UNL     1      50.223   5.259  18.008  0.00  0.00    +0.000 A 
ATOM     14  S   UNL     1      51.646   4.517  18.588  0.00  0.00    +0.000 S 
ATOM     15  C   UNL     1      52.612   5.375  17.480  0.00  0.00    +0.000 A 
ATOM     16  N   UNL     1      53.955   5.173  17.413  0.00  0.00    +0.000 NA
ATOM     17  C   UNL     1      54.554   5.855  16.498  0.00  0.00    +0.000 A 
ATOM     18  N   UNL     1      53.935   6.735  15.649  0.00  0.00    +0.000 N 
ATOM     19  C   UNL     1      52.595   7.023  15.723  0.00  0.00    +0.000 A 
ATOM     20  O   UNL     1      52.101   7.904  15.025  0.00  0.00    +0.000 OA
ATOM     21  C   UNL     1      51.864   6.243  16.704  0.00  0.00    +0.000 A 
ATOM     22  H   UNL     1      54.466   7.265  14.975  0.00  0.00    +0.000 HD
ENDBRANCH   9  12
ENDBRANCH   7  10
ENDBRANCH   1   7
BRANCH   4  23
ATOM     23  C   UNL     1      44.916   3.292  11.628  0.00  0.00    +0.000 C 
BRANCH  23  24
ATOM     24  C   UNL     1      43.582   3.053  12.366  0.00  0.00    +0.000 C 
BRANCH  24  25
ATOM     25  O   UNL     1      42.837   1.979  11.800  0.00  0.00    +0.000 OA
ATOM     26  H   UNL     1      42.868   2.085  10.832  0.00  0.00    +0.000 HD
ENDBRANCH  24  25
ENDBRANCH  23  24
BRANCH  23  27
ATOM     27  C   UNL     1      44.653   3.625  10.141  0.00  0.00    +0.000 C 
BRANCH  27  28
ATOM     28  C   UNL     1      44.573   2.383   9.245  0.00  0.00    +0.000 C 
BRANCH  28  29
ATOM     29  C   UNL     1      45.664   2.382   8.203  0.00  0.00    +0.000 A 
ATOM     30  C   UNL     1      45.896   3.516   7.412  0.00  0.00    +0.000 A 
ATOM     31  C   UNL     1      46.910   3.514   6.453  0.00  0.00    +0.000 A 
ATOM     32  C   UNL     1      47.697   2.378   6.272  0.00  0.00    +0.000 A 
ATOM     33  C   UNL     1      47.463   1.240   7.041  0.00  0.00    +0.000 A 
ATOM     34  C   UNL     1      46.449   1.239   7.999  0.00  0.00    +0.000 A 
ENDBRANCH  28  29
ENDBRANCH  27  28
ENDBRANCH  23  27
ENDBRANCH   4  23
TORSDOF 9
ENDMDL
MODEL 5
REMARK VINA RESULT:    -7.291      2.571      3.405
REMARK INTER + INTRA:         -12.138
REMARK INTER:                 -11.083
REMARK INTRA:                  -1.055
REMARK UNBOUND:                -1.225
REMARK  Name = 
REMARK  9 active torsions:
REMARK  status: ('A' for Active; 'I' for Inactive)
REMARK    1  A    between atoms: C_2  and  C_22
REMARK    2  A    between atoms: N_3  and  C_4
REMARK    3  A    between atoms: C_4  and  C_5
REMARK    4  A    between atoms: C_8  and  C_9
REMARK    5  A    between atoms: C_9  and  C_10
REMARK    6  A    between atoms: C_9  and  C_12
REMARK    7  A    between atoms: C_10  and  O_11
REMARK    8  A    between atoms: C_12  and  C_13
REMARK    9  A    between atoms: C_13  and  C_14
REMARK                            x       y       z     vdW  Elec       q    Type
REMARK                         _______ _______ _______ _____ _____    ______ ____
ROOT
ATOM      1  C   UNL     1      47.145   5.210  14.480  0.00  0.00    +0.000 A 
ATOM      2  C   UNL     1      47.065   3.829  14.360  0.00  0.00    +0.000 A 
ATOM      3  C   UNL     1      46.363   3.285  13.293  0.00  0.00    +0.000 A 
ATOM      4  C   UNL     1      45.721   4.121  12.375  0.00  0.00    +0.000 A 
ATOM      5  C   UNL     1      45.840   5.493  12.587  0.00  0.00    +0.000 A 
ATOM      6  N   UNL     1      46.533   6.051  13.608  0.00  0.00    +0.000 NA
ENDROOT
BRANCH   1   7
ATOM      7  C   UNL     1      47.921   5.816  15.624  0.00  0.00    +0.000 C 
BRANCH   7  10
ATOM      8  O   UNL     1      48.265   4.691  18.192  0.00  0.00    +0.000 OA
ATOM      9  C   UNL     1      49.078   4.428  17.310  0.00  0.00    +0.000 C 
ATOM     10  N   UNL     1      49.008   4.973  16.058  0.00  0.00    +0.000 N 
ATOM     11  H   UNL     1      49.684   4.720  15.348  0.00  0.00    +0.000 HD
BRANCH   9  12
ATOM     12  C   UNL     1      50.205   3.522  17.549  0.00  0.00    +0.000 A 
ATOM     13  C   UNL     1      50.164   2.216  17.088  0.00  0.00    +0.000 A 
ATOM     14  S   UNL     1      51.579   1.326  17.436  0.00  0.00    +0.000 S 
ATOM     15  C   UNL     1      52.310   2.672  18.178  0.00  0.00    +0.000 A 
ATOM     16  N   UNL     1      53.577   2.604  18.668  0.00  0.00    +0.000 NA
ATOM     17  C   UNL     1      54.021   3.710  19.160  0.00  0.00    +0.000 A 
ATOM     18  N   UNL     1      53.308   4.878  19.222  0.00  0.00    +0.000 N 
ATOM     19  C   UNL     1      52.004   4.978  18.805  0.00  0.00    +0.000 A 
ATOM     20  O   UNL     1      51.362   6.009  18.986  0.00  0.00    +0.000 OA
ATOM     21  C   UNL     1      51.474   3.774  18.193  0.00  0.00    +0.000 A 
ATOM     22  H   UNL     1      53.700   5.703  19.651  0.00  0.00    +0.000 HD
ENDBRANCH   9  12
ENDBRANCH   7  10
ENDBRANCH   1   7
BRANCH   4  23
ATOM     23  C   UNL     1      44.966   3.590  11.168  0.00  0.00    +0.000 C 
BRANCH  23  24
ATOM     24  C   UNL     1      43.538   3.178  11.585  0.00  0.00    +0.000 C 
BRANCH  24  25
ATOM     25  O   UNL     1      42.642   4.286  11.606  0.00  0.00    +0.000 OA
ATOM     26  H   UNL     1      43.184   5.094  11.649  0.00  0.00    +0.000 HD
ENDBRANCH  24  25
ENDBRANCH  23  24
BRANCH  23  27
ATOM     27  C   UNL     1      44.914   4.553   9.960  0.00  0.00    +0.000 C 
BRANCH  27  28
ATOM     28  C   UNL     1      44.473   3.872   8.659  0.00  0.00    +0.000 C 
BRANCH  28  29
ATOM     29  C   UNL     1      45.586   3.043   8.065  0.00  0.00    +0.000 A 
ATOM     30  C   UNL     1      45.719   1.687   8.394  0.00  0.00    +0.000 A 
ATOM     31  C   UNL     1      46.745   0.921   7.840  0.00  0.00    +0.000 A 
ATOM     32  C   UNL     1      47.651   1.505   6.956  0.00  0.00    +0.000 A 
ATOM     33  C   UNL     1      47.538   2.857   6.636  0.00  0.00    +0.000 A 
ATOM     34  C   UNL     1      46.513   3.624   7.190  0.00  0.00    +0.000 A 
ENDBRANCH  28  29
ENDBRANCH  27  28
ENDBRANCH  23  27
ENDBRANCH   4  23
TORSDOF 9
ENDMDL
MODEL 6
REMARK VINA RESULT:    -7.211      3.451      8.872
REMARK INTER + INTRA:         -12.019
REMARK INTER:                 -10.626
REMARK INTRA:                  -1.393
REMARK UNBOUND:                -1.225
REMARK  Name = 
REMARK  9 active torsions:
REMARK  status: ('A' for Active; 'I' for Inactive)
REMARK    1  A    between atoms: C_2  and  C_22
REMARK    2  A    between atoms: N_3  and  C_4
REMARK    3  A    between atoms: C_4  and  C_5
REMARK    4  A    between atoms: C_8  and  C_9
REMARK    5  A    between atoms: C_9  and  C_10
REMARK    6  A    between atoms: C_9  and  C_12
REMARK    7  A    between atoms: C_10  and  O_11
REMARK    8  A    between atoms: C_12  and  C_13
REMARK    9  A    between atoms: C_13  and  C_14
REMARK                            x       y       z     vdW  Elec       q    Type
REMARK                         _______ _______ _______ _____ _____    ______ ____
ROOT
ATOM      1  C   UNL     1      48.547   6.839  14.623  0.00  0.00    +0.000 A 
ATOM      2  C   UNL     1      49.044   7.773  15.523  0.00  0.00    +0.000 A 
ATOM      3  C   UNL     1      49.184   7.415  16.857  0.00  0.00    +0.000 A 
ATOM      4  C   UNL     1      48.798   6.142  17.287  0.00  0.00    +0.000 A 
ATOM      5  C   UNL     1      48.293   5.279  16.316  0.00  0.00    +0.000 A 
ATOM      6  N   UNL     1      48.162   5.595  15.007  0.00  0.00    +0.000 NA
ENDROOT
BRANCH   1   7
ATOM      7  C   UNL     1      48.407   7.208  13.167  0.00  0.00    +0.000 C 
BRANCH   7  10
ATOM      8  O   UNL     1      46.105   7.904  11.685  0.00  0.00    +0.000 OA
ATOM      9  C   UNL     1      46.463   6.730  11.717  0.00  0.00    +0.000 C 
ATOM     10  N   UNL     1      47.535   6.307  12.453  0.00  0.00    +0.000 N 
ATOM     11  H   UNL     1      47.815   5.334  12.442  0.00  0.00    +0.000 HD
BRANCH   9  12
ATOM     12  C   UNL     1      45.742   5.686  10.983  0.00  0.00    +0.000 A 
ATOM     13  C   UNL     1      45.874   5.579   9.607  0.00  0.00    +0.000 A 
ATOM     14  S   UNL     1      44.984   4.287   8.935  0.00  0.00    +0.000 S 
ATOM     15  C   UNL     1      44.425   3.802  10.468  0.00  0.00    +0.000 A 
ATOM     16  N   UNL     1      43.634   2.706  10.615  0.00  0.00    +0.000 NA
ATOM     17  C   UNL     1      43.324   2.428  11.835  0.00  0.00    +0.000 A 
ATOM     18  N   UNL     1      43.721   3.156  12.926  0.00  0.00    +0.000 N 
ATOM     19  C   UNL     1      44.462   4.306  12.824  0.00  0.00    +0.000 A 
ATOM     20  O   UNL     1      44.697   4.994  13.813  0.00  0.00    +0.000 OA
ATOM     21  C   UNL     1      44.882   4.635  11.474  0.00  0.00    +0.000 A 
ATOM     22  H   UNL     1      43.417   2.905  13.854  0.00  0.00    +0.000 HD
ENDBRANCH   9  12
ENDBRANCH   7  10
ENDBRANCH   1   7
BRANCH   4  23
ATOM     23  C   UNL     1      48.958   5.677  18.725  0.00  0.00    +0.000 C 
BRANCH  23  24
ATOM     24  C   UNL     1      48.012   4.488  18.997  0.00  0.00    +0.000 C 
BRANCH  24  25
ATOM     25  O   UNL     1      48.549   3.581  19.955  0.00  0.00    +0.000 OA
ATOM     26  H   UNL     1      49.303   4.025  20.382  0.00  0.00    +0.000 HD
ENDBRANCH  24  25
ENDBRANCH  23  24
BRANCH  23  27
ATOM     27  C   UNL     1      50.405   5.315  19.132  0.00  0.00    +0.000 C 
BRANCH  27  28
ATOM     28  C   UNL     1      51.326   5.052  17.935  0.00  0.00    +0.000 C 
BRANCH  28  29
ATOM     29  C   UNL     1      51.718   3.597  17.849  0.00  0.00    +0.000 A 
ATOM     30  C   UNL     1      50.802   2.637  17.397  0.00  0.00    +0.000 A 
ATOM     31  C   UNL     1      51.168   1.293  17.313  0.00  0.00    +0.000 A 
ATOM     32  C   UNL     1      52.451   0.896  17.686  0.00  0.00    +0.000 A 
ATOM     33  C   UNL     1      53.364   1.840  18.154  0.00  0.00    +0.000 A 
ATOM     34  C   UNL     1      52.998   3.184  18.240  0.00  0.00    +0.000 A 
ENDBRANCH  28  29
ENDBRANCH  27  28
ENDBRANCH  23  27
ENDBRANCH   4  23
TORSDOF 9
ENDMDL
MODEL 7
REMARK VINA RESULT:    -6.942      3.021      4.236
REMARK INTER + INTRA:         -11.617
REMARK INTER:                 -10.156
REMARK INTRA:                  -1.461
REMARK UNBOUND:                -1.225
REMARK  Name = 
REMARK  9 active torsions:
REMARK  status: ('A' for Active; 'I' for Inactive)
REMARK    1  A    between atoms: C_2  and  C_22
REMARK    2  A    between atoms: N_3  and  C_4
REMARK    3  A    between atoms: C_4  and  C_5
REMARK    4  A    between atoms: C_8  and  C_9
REMARK    5  A    between atoms: C_9  and  C_10
REMARK    6  A    between atoms: C_9  and  C_12
REMARK    7  A    between atoms: C_10  and  O_11
REMARK    8  A    between atoms: C_12  and  C_13
REMARK    9  A    between atoms: C_13  and  C_14
REMARK                            x       y       z     vdW  Elec       q    Type
REMARK                         _______ _______ _______ _____ _____    ______ ____
ROOT
ATOM      1  C   UNL     1      48.512   5.727  16.350  0.00  0.00    +0.000 A 
ATOM      2  C   UNL     1      47.710   4.595  16.411  0.00  0.00    +0.000 A 
ATOM      3  C   UNL     1      46.998   4.212  15.283  0.00  0.00    +0.000 A 
ATOM      4  C   UNL     1      47.066   4.977  14.115  0.00  0.00    +0.000 A 
ATOM      5  C   UNL     1      47.882   6.107  14.153  0.00  0.00    +0.000 A 
ATOM      6  N   UNL     1      48.601   6.494  15.233  0.00  0.00    +0.000 NA
ENDROOT
BRANCH   1   7
ATOM      7  C   UNL     1      49.306   6.145  17.562  0.00  0.00    +0.000 C 
BRANCH   7  10
ATOM      8  O   UNL     1      51.901   6.023  16.454  0.00  0.00    +0.000 OA
ATOM      9  C   UNL     1      51.594   5.235  17.345  0.00  0.00    +0.000 C 
ATOM     10  N   UNL     1      50.343   5.198  17.894  0.00  0.00    +0.000 N 
ATOM     11  H   UNL     1      50.127   4.548  18.641  0.00  0.00    +0.000 HD
BRANCH   9  12
ATOM     12  C   UNL     1      52.549   4.253  17.866  0.00  0.00    +0.000 A 
ATOM     13  C   UNL     1      53.721   4.671  18.475  0.00  0.00    +0.000 A 
ATOM     14  S   UNL     1      54.689   3.385  19.044  0.00  0.00    +0.000 S 
ATOM     15  C   UNL     1      53.552   2.228  18.530  0.00  0.00    +0.000 A 
ATOM     16  N   UNL     1      53.747   0.901  18.755  0.00  0.00    +0.000 NA
ATOM     17  C   UNL     1      52.784   0.142  18.355  0.00  0.00    +0.000 A 
ATOM     18  N   UNL     1      51.646   0.588  17.736  0.00  0.00    +0.000 N 
ATOM     19  C   UNL     1      51.434   1.908  17.426  0.00  0.00    +0.000 A 
ATOM     20  O   UNL     1      50.458   2.252  16.766  0.00  0.00    +0.000 OA
ATOM     21  C   UNL     1      52.466   2.811  17.902  0.00  0.00    +0.000 A 
ATOM     22  H   UNL     1      50.942  -0.061  17.416  0.00  0.00    +0.000 HD
ENDBRANCH   9  12
ENDBRANCH   7  10
ENDBRANCH   1   7
BRANCH   4  23
ATOM     23  C   UNL     1      46.340   4.593  12.837  0.00  0.00    +0.000 C 
BRANCH  23  24
ATOM     24  C   UNL     1      46.102   3.068  12.810  0.00  0.00    +0.000 C 
BRANCH  24  25
ATOM     25  O   UNL     1      44.716   2.739  12.784  0.00  0.00    +0.000 OA
ATOM     26  H   UNL     1      44.383   2.964  11.897  0.00  0.00    +0.000 HD
ENDBRANCH  24  25
ENDBRANCH  23  24
BRANCH  23  27
ATOM     27  C   UNL     1      45.011   5.347  12.595  0.00  0.00    +0.000 C 
BRANCH  27  28
ATOM     28  C   UNL     1      44.998   6.153  11.291  0.00  0.00    +0.000 C 
BRANCH  28  29
ATOM     29  C   UNL     1      45.114   5.253  10.085  0.00  0.00    +0.000 A 
ATOM     30  C   UNL     1      46.127   5.456   9.138  0.00  0.00    +0.000 A 
ATOM     31  C   UNL     1      46.235   4.620   8.026  0.00  0.00    +0.000 A 
ATOM     32  C   UNL     1      45.329   3.577   7.848  0.00  0.00    +0.000 A 
ATOM     33  C   UNL     1      44.307   3.376   8.774  0.00  0.00    +0.000 A 
ATOM     34  C   UNL     1      44.196   4.213   9.886  0.00  0.00    +0.000 A 
ENDBRANCH  28  29
ENDBRANCH  27  28
ENDBRANCH  23  27
ENDBRANCH   4  23
TORSDOF 9
ENDMDL
MODEL 8
REMARK VINA RESULT:    -6.924      4.571      9.680
REMARK INTER + INTRA:         -11.590
REMARK INTER:                 -10.401
REMARK INTRA:                  -1.189
REMARK UNBOUND:                -1.225
REMARK  Name = 
REMARK  9 active torsions:
REMARK  status: ('A' for Active; 'I' for Inactive)
REMARK    1  A    between atoms: C_2  and  C_22
REMARK    2  A    between atoms: N_3  and  C_4
REMARK    3  A    between atoms: C_4  and  C_5
REMARK    4  A    between atoms: C_8  and  C_9
REMARK    5  A    between atoms: C_9  and  C_10
REMARK    6  A    between atoms: C_9  and  C_12
REMARK    7  A    between atoms: C_10  and  O_11
REMARK    8  A    between atoms: C_12  and  C_13
REMARK    9  A    between atoms: C_13  and  C_14
REMARK                            x       y       z     vdW  Elec       q    Type
REMARK                         _______ _______ _______ _____ _____    ______ ____
ROOT
ATOM      1  C   UNL     1      48.670   3.436  17.046  0.00  0.00    +0.000 A 
ATOM      2  C   UNL     1      49.431   2.275  17.003  0.00  0.00    +0.000 A 
ATOM      3  C   UNL     1      50.777   2.339  17.335  0.00  0.00    +0.000 A 
ATOM      4  C   UNL     1      51.359   3.563  17.676  0.00  0.00    +0.000 A 
ATOM      5  C   UNL     1      50.523   4.677  17.674  0.00  0.00    +0.000 A 
ATOM      6  N   UNL     1      49.203   4.641  17.372  0.00  0.00    +0.000 NA
ENDROOT
BRANCH   1   7
ATOM      7  C   UNL     1      47.201   3.379  16.706  0.00  0.00    +0.000 C 
BRANCH   7  10
ATOM      8  O   UNL     1      47.220   3.106  13.895  0.00  0.00    +0.000 OA
ATOM      9  C   UNL     1      46.813   4.152  14.391  0.00  0.00    +0.000 C 
ATOM     10  N   UNL     1      46.821   4.380  15.739  0.00  0.00    +0.000 N 
ATOM     11  H   UNL     1      46.460   5.248  16.117  0.00  0.00    +0.000 HD
BRANCH   9  12
ATOM     12  C   UNL     1      46.311   5.252  13.562  0.00  0.00    +0.000 A 
ATOM     13  C   UNL     1      47.120   6.340  13.275  0.00  0.00    +0.000 A 
ATOM     14  S   UNL     1      46.372   7.500  12.273  0.00  0.00    +0.000 S 
ATOM     15  C   UNL     1      44.954   6.566  12.155  0.00  0.00    +0.000 A 
ATOM     16  N   UNL     1      43.904   6.972  11.391  0.00  0.00    +0.000 NA
ATOM     17  C   UNL     1      42.916   6.146  11.356  0.00  0.00    +0.000 A 
ATOM     18  N   UNL     1      42.872   4.953  12.029  0.00  0.00    +0.000 N 
ATOM     19  C   UNL     1      43.876   4.532  12.865  0.00  0.00    +0.000 A 
ATOM     20  O   UNL     1      43.747   3.515  13.541  0.00  0.00    +0.000 OA
ATOM     21  C   UNL     1      45.036   5.403  12.899  0.00  0.00    +0.000 A 
ATOM     22  H   UNL     1      42.054   4.365  11.987  0.00  0.00    +0.000 HD
ENDBRANCH   9  12
ENDBRANCH   7  10
ENDBRANCH   1   7
BRANCH   4  23
ATOM     23  C   UNL     1      52.818   3.694  18.082  0.00  0.00    +0.000 C 
BRANCH  23  24
ATOM     24  C   UNL     1      52.936   4.624  19.310  0.00  0.00    +0.000 C 
BRANCH  24  25
ATOM     25  O   UNL     1      52.505   3.989  20.510  0.00  0.00    +0.000 OA
ATOM     26  H   UNL     1      53.282   3.915  21.092  0.00  0.00    +0.000 HD
ENDBRANCH  24  25
ENDBRANCH  23  24
BRANCH  23  27
ATOM     27  C   UNL     1      53.538   2.353  18.355  0.00  0.00    +0.000 C 
BRANCH  27  28
ATOM     28  C   UNL     1      54.471   1.922  17.217  0.00  0.00    +0.000 C 
BRANCH  28  29
ATOM     29  C   UNL     1      54.656   0.425  17.193  0.00  0.00    +0.000 A 
ATOM     30  C   UNL     1      54.341  -0.351  18.317  0.00  0.00    +0.000 A 
ATOM     31  C   UNL     1      54.508  -1.737  18.290  0.00  0.00    +0.000 A 
ATOM     32  C   UNL     1      54.997  -2.358  17.143  0.00  0.00    +0.000 A 
ATOM     33  C   UNL     1      55.330  -1.593  16.025  0.00  0.00    +0.000 A 
ATOM     34  C   UNL     1      55.165  -0.208  16.051  0.00  0.00    +0.000 A 
ENDBRANCH  28  29
ENDBRANCH  27  28
ENDBRANCH  23  27
ENDBRANCH   4  23
TORSDOF 9
ENDMDL
MODEL 9
REMARK VINA RESULT:    -6.857      3.821      9.896
REMARK INTER + INTRA:         -11.489
REMARK INTER:                  -9.531
REMARK INTRA:                  -1.958
REMARK UNBOUND:                -1.225
REMARK  Name = 
REMARK  9 active torsions:
REMARK  status: ('A' for Active; 'I' for Inactive)
REMARK    1  A    between atoms: C_2  and  C_22
REMARK    2  A    between atoms: N_3  and  C_4
REMARK    3  A    between atoms: C_4  and  C_5
REMARK    4  A    between atoms: C_8  and  C_9
REMARK    5  A    between atoms: C_9  and  C_10
REMARK    6  A    between atoms: C_9  and  C_12
REMARK    7  A    between atoms: C_10  and  O_11
REMARK    8  A    between atoms: C_12  and  C_13
REMARK    9  A    between atoms: C_13  and  C_14
REMARK                            x       y       z     vdW  Elec       q    Type
REMARK                         _______ _______ _______ _____ _____    ______ ____
ROOT
ATOM      1  C   UNL     1      48.416   4.144  17.479  0.00  0.00    +0.000 A 
ATOM      2  C   UNL     1      48.299   4.265  18.858  0.00  0.00    +0.000 A 
ATOM      3  C   UNL     1      49.358   4.797  19.580  0.00  0.00    +0.000 A 
ATOM      4  C   UNL     1      50.535   5.173  18.927  0.00  0.00    +0.000 A 
ATOM      5  C   UNL     1      50.569   4.997  17.545  0.00  0.00    +0.000 A 
ATOM      6  N   UNL     1      49.545   4.498  16.814  0.00  0.00    +0.000 NA
ENDROOT
BRANCH   1   7
ATOM      7  C   UNL     1      47.266   3.585  16.679  0.00  0.00    +0.000 C 
BRANCH   7  10
ATOM      8  O   UNL     1      47.245   3.190  13.882  0.00  0.00    +0.000 OA
ATOM      9  C   UNL     1      46.770   4.224  14.343  0.00  0.00    +0.000 C 
ATOM     10  N   UNL     1      46.790   4.510  15.680  0.00  0.00    +0.000 N 
ATOM     11  H   UNL     1      46.372   5.365  16.029  0.00  0.00    +0.000 HD
BRANCH   9  12
ATOM     12  C   UNL     1      46.168   5.245  13.481  0.00  0.00    +0.000 A 
ATOM     13  C   UNL     1      46.890   6.372  13.120  0.00  0.00    +0.000 A 
ATOM     14  S   UNL     1      46.033   7.428  12.089  0.00  0.00    +0.000 S 
ATOM     15  C   UNL     1      44.682   6.393  12.059  0.00  0.00    +0.000 A 
ATOM     16  N   UNL     1      43.585   6.687  11.310  0.00  0.00    +0.000 NA
ATOM     17  C   UNL     1      42.658   5.793  11.343  0.00  0.00    +0.000 A 
ATOM     18  N   UNL     1      42.718   4.633  12.071  0.00  0.00    +0.000 N 
ATOM     19  C   UNL     1      43.772   4.324  12.894  0.00  0.00    +0.000 A 
ATOM     20  O   UNL     1      43.735   3.334  13.619  0.00  0.00    +0.000 OA
ATOM     21  C   UNL     1      44.868   5.274  12.852  0.00  0.00    +0.000 A 
ATOM     22  H   UNL     1      41.943   3.988  12.082  0.00  0.00    +0.000 HD
ENDBRANCH   9  12
ENDBRANCH   7  10
ENDBRANCH   1   7
BRANCH   4  23
ATOM     23  C   UNL     1      51.716   5.793  19.655  0.00  0.00    +0.000 C 
BRANCH  23  24
ATOM     24  C   UNL     1      52.946   4.866  19.538  0.00  0.00    +0.000 C 
BRANCH  24  25
ATOM     25  O   UNL     1      52.780   3.656  20.272  0.00  0.00    +0.000 OA
ATOM     26  H   UNL     1      52.886   3.874  21.215  0.00  0.00    +0.000 HD
ENDBRANCH  24  25
ENDBRANCH  23  24
BRANCH  23  27
ATOM     27  C   UNL     1      52.080   7.225  19.199  0.00  0.00    +0.000 C 
BRANCH  27  28
ATOM     28  C   UNL     1      51.397   8.319  20.028  0.00  0.00    +0.000 C 
BRANCH  28  29
ATOM     29  C   UNL     1      49.926   8.417  19.706  0.00  0.00    +0.000 A 
ATOM     30  C   UNL     1      49.497   8.625  18.387  0.00  0.00    +0.000 A 
ATOM     31  C   UNL     1      48.136   8.711  18.091  0.00  0.00    +0.000 A 
ATOM     32  C   UNL     1      47.192   8.596  19.110  0.00  0.00    +0.000 A 
ATOM     33  C   UNL     1      47.609   8.407  20.426  0.00  0.00    +0.000 A 
ATOM     34  C   UNL     1      48.969   8.323  20.725  0.00  0.00    +0.000 A 
ENDBRANCH  28  29
ENDBRANCH  27  28
ENDBRANCH  23  27
ENDBRANCH   4  23
TORSDOF 9
ENDMDL
