MODEL 1
REMARK VINA RESULT:    -8.114      0.000      0.000
REMARK INTER + INTRA:         -10.062
REMARK INTER:                  -9.537
REMARK INTRA:                  -0.524
REMARK UNBOUND:                -0.524
REMARK  Name = 
REMARK  3 active torsions:
REMARK  status: ('A' for Active; 'I' for Inactive)
REMARK    1  A    between atoms: C_2  and  C_4
REMARK    2  A    between atoms: N_8  and  C_9
REMARK    3  A    between atoms: C_9  and  C_10
REMARK                            x       y       z     vdW  Elec       q    Type
REMARK                         _______ _______ _______ _____ _____    ______ ____
ROOT
ATOM      1  C   UNL     1      49.578   7.772  12.563  0.00  0.00    +0.000 A 
ATOM      2  C   UNL     1      48.524   7.877  11.662  0.00  0.00    +0.000 A 
ATOM      3  C   UNL     1      47.315   7.245  11.956  0.00  0.00    +0.000 A 
ATOM      4  C   UNL     1      47.173   6.531  13.140  0.00  0.00    +0.000 A 
ATOM      5  N   UNL     1      46.023   5.907  13.520  0.00  0.00    +0.000 N 
ATOM      6  N   UNL     1      48.202   6.397  14.002  0.00  0.00    +0.000 NA
ATOM      7  C   UNL     1      49.378   7.006  13.699  0.00  0.00    +0.000 A 
ATOM      8  H   UNL     1      46.091   5.433  14.413  0.00  0.00    +0.000 HD
ENDROOT
BRANCH   1  10
ATOM      9  N   UNL     1      51.881   8.126  13.237  0.00  0.00    +0.000 N 
ATOM     10  C   UNL     1      50.883   8.426  12.350  0.00  0.00    +0.000 C 
ATOM     11  O   UNL     1      51.080   9.174  11.403  0.00  0.00    +0.000 OA
ATOM     12  H   UNL     1      52.798   8.496  13.019  0.00  0.00    +0.000 HD
ATOM     13  H   UNL     1      51.835   7.340  13.867  0.00  0.00    +0.000 HD
ENDBRANCH   1  10
BRANCH   5  14
ATOM     14  C   UNL     1      44.739   5.984  12.867  0.00  0.00    +0.000 C 
BRANCH  14  15
ATOM     15  C   UNL     1      44.390   4.739  12.089  0.00  0.00    +0.000 A 
ATOM     16  C   UNL     1      43.418   3.823  12.487  0.00  0.00    +0.000 A 
ATOM     17  C   UNL     1      43.196   2.710  11.694  0.00  0.00    +0.000 A 
ATOM     18  N   UNL     1      43.868   2.444  10.553  0.00  0.00    +0.000 NA
ATOM     19  C   UNL     1      44.807   3.325  10.153  0.00  0.00    +0.000 A 
ATOM     20  N   UNL     1      45.601   3.058   9.028  0.00  0.00    +0.000 N 
ATOM     21  C   UNL     1      45.631   1.641   8.651  0.00  0.00    +0.000 C 
ATOM     22  C   UNL     1      46.808   1.435   7.695  0.00  0.00    +0.000 C 
ATOM     23  C   UNL     1      46.714   2.363   6.483  0.00  0.00    +0.000 C 
ATOM     24  C   UNL     1      46.485   3.818   6.899  0.00  0.00    +0.000 C 
ATOM     25  C   UNL     1      45.329   3.948   7.893  0.00  0.00    +0.000 C 
ATOM     26  C   UNL     1      45.077   4.477  10.896  0.00  0.00    +0.000 A 
ENDBRANCH  14  15
ENDBRANCH   5  14
TORSDOF 3
ENDMDL
MODEL 2
REMARK VINA RESULT:    -7.899      2.605      6.984
REMARK INTER + INTRA:          -9.808
REMARK INTER:                  -9.282
REMARK INTRA:                  -0.527
REMARK UNBOUND:                -0.524
REMARK  Name = 
REMARK  3 active torsions:
REMARK  status: ('A' for Active; 'I' for Inactive)
REMARK    1  A    between atoms: C_2  and  C_4
REMARK    2  A    between atoms: N_8  and  C_9
REMARK    3  A    between atoms: C_9  and  C_10
REMARK                            x       y       z     vdW  Elec       q    Type
REMARK                         _______ _______ _______ _____ _____    ______ ____
ROOT
ATOM      1  C   UNL     1      46.626   2.742   7.333  0.00  0.00    +0.000 A 
ATOM      2  C   UNL     1      46.500   4.077   7.702  0.00  0.00    +0.000 A 
ATOM      3  C   UNL     1      45.697   4.405   8.796  0.00  0.00    +0.000 A 
ATOM      4  C   UNL     1      45.044   3.404   9.504  0.00  0.00    +0.000 A 
ATOM      5  N   UNL     1      44.263   3.631  10.598  0.00  0.00    +0.000 N 
ATOM      6  N   UNL     1      45.134   2.111   9.131  0.00  0.00    +0.000 NA
ATOM      7  C   UNL     1      45.909   1.805   8.057  0.00  0.00    +0.000 A 
ATOM      8  H   UNL     1      43.863   2.789  10.996  0.00  0.00    +0.000 HD
ENDROOT
BRANCH   1  10
ATOM      9  N   UNL     1      47.332   2.965   5.023  0.00  0.00    +0.000 N 
ATOM     10  C   UNL     1      47.471   2.297   6.209  0.00  0.00    +0.000 C 
ATOM     11  O   UNL     1      48.289   1.397   6.338  0.00  0.00    +0.000 OA
ATOM     12  H   UNL     1      47.990   2.722   4.294  0.00  0.00    +0.000 HD
ATOM     13  H   UNL     1      46.863   3.855   4.949  0.00  0.00    +0.000 HD
ENDBRANCH   1  10
BRANCH   5  14
ATOM     14  C   UNL     1      44.087   4.883  11.293  0.00  0.00    +0.000 C 
BRANCH  14  15
ATOM     15  C   UNL     1      45.185   5.172  12.287  0.00  0.00    +0.000 A 
ATOM     16  C   UNL     1      45.508   4.332  13.351  0.00  0.00    +0.000 A 
ATOM     17  C   UNL     1      46.530   4.711  14.204  0.00  0.00    +0.000 A 
ATOM     18  N   UNL     1      47.240   5.854  14.079  0.00  0.00    +0.000 NA
ATOM     19  C   UNL     1      46.942   6.672  13.050  0.00  0.00    +0.000 A 
ATOM     20  N   UNL     1      47.579   7.915  12.920  0.00  0.00    +0.000 N 
ATOM     21  C   UNL     1      48.193   8.395  14.163  0.00  0.00    +0.000 C 
ATOM     22  C   UNL     1      48.491   9.886  13.994  0.00  0.00    +0.000 C 
ATOM     23  C   UNL     1      49.367  10.146  12.768  0.00  0.00    +0.000 C 
ATOM     24  C   UNL     1      48.807   9.468  11.516  0.00  0.00    +0.000 C 
ATOM     25  C   UNL     1      48.483   7.994  11.767  0.00  0.00    +0.000 C 
ATOM     26  C   UNL     1      45.930   6.349  12.141  0.00  0.00    +0.000 A 
ENDBRANCH  14  15
ENDBRANCH   5  14
TORSDOF 3
ENDMDL
MODEL 3
REMARK VINA RESULT:    -7.169      2.592      6.560
REMARK INTER + INTRA:          -8.951
REMARK INTER:                  -8.918
REMARK INTRA:                  -0.033
REMARK UNBOUND:                -0.524
REMARK  Name = 
REMARK  3 active torsions:
REMARK  status: ('A' for Active; 'I' for Inactive)
REMARK    1  A    between atoms: C_2  and  C_4
REMARK    2  A    between atoms: N_8  and  C_9
REMARK    3  A    between atoms: C_9  and  C_10
REMARK                            x       y       z     vdW  Elec       q    Type
REMARK                         _______ _______ _______ _____ _____    ______ ____
ROOT
ATOM      1  C   UNL     1      46.317   2.737   7.182  0.00  0.00    +0.000 A 
ATOM      2  C   UNL     1      45.324   3.662   7.489  0.00  0.00    +0.000 A 
ATOM      3  C   UNL     1      44.587   3.501   8.663  0.00  0.00    +0.000 A 
ATOM      4  C   UNL     1      44.854   2.433   9.511  0.00  0.00    +0.000 A 
ATOM      5  N   UNL     1      44.203   2.214  10.688  0.00  0.00    +0.000 N 
ATOM      6  N   UNL     1      45.792   1.514   9.203  0.00  0.00    +0.000 NA
ATOM      7  C   UNL     1      46.495   1.674   8.051  0.00  0.00    +0.000 A 
ATOM      8  H   UNL     1      44.523   1.390  11.185  0.00  0.00    +0.000 HD
ENDROOT
BRANCH   1  10
ATOM      9  N   UNL     1      48.501   2.597   6.136  0.00  0.00    +0.000 N 
ATOM     10  C   UNL     1      47.164   2.840   5.979  0.00  0.00    +0.000 C 
ATOM     11  O   UNL     1      46.690   3.092   4.880  0.00  0.00    +0.000 OA
ATOM     12  H   UNL     1      49.052   2.566   5.288  0.00  0.00    +0.000 HD
ATOM     13  H   UNL     1      48.883   2.150   6.956  0.00  0.00    +0.000 HD
ENDBRANCH   1  10
BRANCH   5  14
ATOM     14  C   UNL     1      43.252   3.090  11.329  0.00  0.00    +0.000 C 
BRANCH  14  15
ATOM     15  C   UNL     1      43.719   4.523  11.404  0.00  0.00    +0.000 A 
ATOM     16  C   UNL     1      42.952   5.610  10.991  0.00  0.00    +0.000 A 
ATOM     17  C   UNL     1      43.493   6.879  11.099  0.00  0.00    +0.000 A 
ATOM     18  N   UNL     1      44.730   7.139  11.576  0.00  0.00    +0.000 NA
ATOM     19  C   UNL     1      45.480   6.096  11.985  0.00  0.00    +0.000 A 
ATOM     20  N   UNL     1      46.805   6.292  12.404  0.00  0.00    +0.000 N 
ATOM     21  C   UNL     1      47.388   7.556  11.940  0.00  0.00    +0.000 C 
ATOM     22  C   UNL     1      48.905   7.464  12.115  0.00  0.00    +0.000 C 
ATOM     23  C   UNL     1      49.283   7.139  13.561  0.00  0.00    +0.000 C 
ATOM     24  C   UNL     1      48.512   5.928  14.090  0.00  0.00    +0.000 C 
ATOM     25  C   UNL     1      47.008   6.059  13.838  0.00  0.00    +0.000 C 
ATOM     26  C   UNL     1      44.995   4.787  11.917  0.00  0.00    +0.000 A 
ENDBRANCH  14  15
ENDBRANCH   5  14
TORSDOF 3
ENDMDL
MODEL 4
REMARK VINA RESULT:    -6.653      2.524      3.034
REMARK INTER + INTRA:          -8.344
REMARK INTER:                  -8.255
REMARK INTRA:                  -0.089
REMARK UNBOUND:                -0.524
REMARK  Name = 
REMARK  3 active torsions:
REMARK  status: ('A' for Active; 'I' for Inactive)
REMARK    1  A    between atoms: C_2  and  C_4
REMARK    2  A    between atoms: N_8  and  C_9
REMARK    3  A    between atoms: C_9  and  C_10
REMARK                            x       y       z     vdW  Elec       q    Type
REMARK                         _______ _______ _______ _____ _____    ______ ____
ROOT
ATOM      1  C   UNL     1      47.590   5.013  15.040  0.00  0.00    +0.000 A 
ATOM      2  C   UNL     1      46.291   4.622  14.730  0.00  0.00    +0.000 A 
ATOM      3  C   UNL     1      45.641   5.225  13.653  0.00  0.00    +0.000 A 
ATOM      4  C   UNL     1      46.293   6.197  12.902  0.00  0.00    +0.000 A 
ATOM      5  N   UNL     1      45.745   6.818  11.820  0.00  0.00    +0.000 N 
ATOM      6  N   UNL     1      47.539   6.605  13.219  0.00  0.00    +0.000 NA
ATOM      7  C   UNL     1      48.158   6.019  14.277  0.00  0.00    +0.000 A 
ATOM      8  H   UNL     1      46.357   7.499  11.387  0.00  0.00    +0.000 HD
ENDROOT
BRANCH   1  10
ATOM      9  N   UNL     1      48.986   5.275  17.007  0.00  0.00    +0.000 N 
ATOM     10  C   UNL     1      48.365   4.414  16.143  0.00  0.00    +0.000 C 
ATOM     11  O   UNL     1      48.422   3.203  16.304  0.00  0.00    +0.000 OA
ATOM     12  H   UNL     1      49.424   4.856  17.817  0.00  0.00    +0.000 HD
ATOM     13  H   UNL     1      48.761   6.257  17.056  0.00  0.00    +0.000 HD
ENDBRANCH   1  10
BRANCH   5  14
ATOM     14  C   UNL     1      44.491   6.499  11.180  0.00  0.00    +0.000 C 
BRANCH  14  15
ATOM     15  C   UNL     1      44.393   5.057  10.748  0.00  0.00    +0.000 A 
ATOM     16  C   UNL     1      43.581   4.114  11.375  0.00  0.00    +0.000 A 
ATOM     17  C   UNL     1      43.584   2.816  10.893  0.00  0.00    +0.000 A 
ATOM     18  N   UNL     1      44.333   2.394   9.851  0.00  0.00    +0.000 NA
ATOM     19  C   UNL     1      45.119   3.298   9.232  0.00  0.00    +0.000 A 
ATOM     20  N   UNL     1      45.988   2.902   8.205  0.00  0.00    +0.000 N 
ATOM     21  C   UNL     1      46.277   1.463   8.200  0.00  0.00    +0.000 C 
ATOM     22  C   UNL     1      47.505   1.235   7.317  0.00  0.00    +0.000 C 
ATOM     23  C   UNL     1      47.296   1.796   5.910  0.00  0.00    +0.000 C 
ATOM     24  C   UNL     1      46.803   3.245   5.944  0.00  0.00    +0.000 C 
ATOM     25  C   UNL     1      45.607   3.414   6.883  0.00  0.00    +0.000 C 
ATOM     26  C   UNL     1      45.158   4.629   9.655  0.00  0.00    +0.000 A 
ENDBRANCH  14  15
ENDBRANCH   5  14
TORSDOF 3
ENDMDL
MODEL 5
REMARK VINA RESULT:    -6.493      3.667      7.919
REMARK INTER + INTRA:          -8.156
REMARK INTER:                  -7.691
REMARK INTRA:                  -0.465
REMARK UNBOUND:                -0.524
REMARK  Name = 
REMARK  3 active torsions:
REMARK  status: ('A' for Active; 'I' for Inactive)
REMARK    1  A    between atoms: C_2  and  C_4
REMARK    2  A    between atoms: N_8  and  C_9
REMARK    3  A    between atoms: C_9  and  C_10
REMARK                            x       y       z     vdW  Elec       q    Type
REMARK                         _______ _______ _______ _____ _____    ______ ____
ROOT
ATOM      1  C   UNL     1      44.704   5.259  10.937  0.00  0.00    +0.000 A 
ATOM      2  C   UNL     1      45.953   5.752  10.572  0.00  0.00    +0.000 A 
ATOM      3  C   UNL     1      46.578   6.690  11.395  0.00  0.00    +0.000 A 
ATOM      4  C   UNL     1      45.957   7.112  12.565  0.00  0.00    +0.000 A 
ATOM      5  N   UNL     1      46.506   8.003  13.439  0.00  0.00    +0.000 N 
ATOM      6  N   UNL     1      44.732   6.664  12.907  0.00  0.00    +0.000 NA
ATOM      7  C   UNL     1      44.128   5.760  12.092  0.00  0.00    +0.000 A 
ATOM      8  H   UNL     1      45.920   8.200  14.242  0.00  0.00    +0.000 HD
ENDROOT
BRANCH   1  10
ATOM      9  N   UNL     1      44.043   4.361   8.783  0.00  0.00    +0.000 N 
ATOM     10  C   UNL     1      43.979   4.247  10.145  0.00  0.00    +0.000 C 
ATOM     11  O   UNL     1      43.378   3.325  10.677  0.00  0.00    +0.000 OA
ATOM     12  H   UNL     1      43.633   3.603   8.252  0.00  0.00    +0.000 HD
ATOM     13  H   UNL     1      44.719   4.944   8.314  0.00  0.00    +0.000 HD
ENDBRANCH   1  10
BRANCH   5  14
ATOM     14  C   UNL     1      47.841   8.547  13.399  0.00  0.00    +0.000 C 
BRANCH  14  15
ATOM     15  C   UNL     1      48.689   8.132  14.577  0.00  0.00    +0.000 A 
ATOM     16  C   UNL     1      49.713   8.914  15.107  0.00  0.00    +0.000 A 
ATOM     17  C   UNL     1      50.430   8.421  16.184  0.00  0.00    +0.000 A 
ATOM     18  N   UNL     1      50.207   7.219  16.758  0.00  0.00    +0.000 NA
ATOM     19  C   UNL     1      49.215   6.455  16.258  0.00  0.00    +0.000 A 
ATOM     20  N   UNL     1      48.995   5.160  16.751  0.00  0.00    +0.000 N 
ATOM     21  C   UNL     1      50.148   4.597  17.462  0.00  0.00    +0.000 C 
ATOM     22  C   UNL     1      49.929   3.088  17.590  0.00  0.00    +0.000 C 
ATOM     23  C   UNL     1      48.601   2.772  18.280  0.00  0.00    +0.000 C 
ATOM     24  C   UNL     1      47.435   3.527  17.640  0.00  0.00    +0.000 C 
ATOM     25  C   UNL     1      47.738   5.020  17.495  0.00  0.00    +0.000 C 
ATOM     26  C   UNL     1      48.441   6.893  15.180  0.00  0.00    +0.000 A 
ENDBRANCH  14  15
ENDBRANCH   5  14
TORSDOF 3
ENDMDL
MODEL 6
REMARK VINA RESULT:    -6.374      3.279      8.145
REMARK INTER + INTRA:          -8.017
REMARK INTER:                  -7.475
REMARK INTRA:                  -0.541
REMARK UNBOUND:                -0.524
REMARK  Name = 
REMARK  3 active torsions:
REMARK  status: ('A' for Active; 'I' for Inactive)
REMARK    1  A    between atoms: C_2  and  C_4
REMARK    2  A    between atoms: N_8  and  C_9
REMARK    3  A    between atoms: C_9  and  C_10
REMARK                            x       y       z     vdW  Elec       q    Type
REMARK                         _______ _______ _______ _____ _____    ______ ____
ROOT
ATOM      1  C   UNL     1      44.249   4.169  11.468  0.00  0.00    +0.000 A 
ATOM      2  C   UNL     1      45.160   4.926  10.739  0.00  0.00    +0.000 A 
ATOM      3  C   UNL     1      45.520   6.190  11.207  0.00  0.00    +0.000 A 
ATOM      4  C   UNL     1      44.975   6.674  12.392  0.00  0.00    +0.000 A 
ATOM      5  N   UNL     1      45.290   7.883  12.936  0.00  0.00    +0.000 N 
ATOM      6  N   UNL     1      44.066   5.959  13.085  0.00  0.00    +0.000 NA
ATOM      7  C   UNL     1      43.714   4.735  12.613  0.00  0.00    +0.000 A 
ATOM      8  H   UNL     1      44.803   8.079  13.803  0.00  0.00    +0.000 HD
ENDROOT
BRANCH   1  10
ATOM      9  N   UNL     1      44.489   2.245  10.010  0.00  0.00    +0.000 N 
ATOM     10  C   UNL     1      43.829   2.813  11.065  0.00  0.00    +0.000 C 
ATOM     11  O   UNL     1      42.955   2.206  11.668  0.00  0.00    +0.000 OA
ATOM     12  H   UNL     1      44.266   1.278   9.812  0.00  0.00    +0.000 HD
ATOM     13  H   UNL     1      45.363   2.602   9.656  0.00  0.00    +0.000 HD
ENDBRANCH   1  10
BRANCH   5  14
ATOM     14  C   UNL     1      46.313   8.796  12.488  0.00  0.00    +0.000 C 
BRANCH  14  15
ATOM     15  C   UNL     1      47.682   8.470  13.031  0.00  0.00    +0.000 A 
ATOM     16  C   UNL     1      48.859   8.602  12.297  0.00  0.00    +0.000 A 
ATOM     17  C   UNL     1      50.057   8.260  12.902  0.00  0.00    +0.000 A 
ATOM     18  N   UNL     1      50.163   7.795  14.165  0.00  0.00    +0.000 NA
ATOM     19  C   UNL     1      49.033   7.667  14.888  0.00  0.00    +0.000 A 
ATOM     20  N   UNL     1      49.068   7.102  16.172  0.00  0.00    +0.000 N 
ATOM     21  C   UNL     1      50.270   6.302  16.431  0.00  0.00    +0.000 C 
ATOM     22  C   UNL     1      50.005   5.445  17.670  0.00  0.00    +0.000 C 
ATOM     23  C   UNL     1      49.602   6.304  18.869  0.00  0.00    +0.000 C 
ATOM     24  C   UNL     1      48.471   7.273  18.519  0.00  0.00    +0.000 C 
ATOM     25  C   UNL     1      48.776   8.062  17.244  0.00  0.00    +0.000 C 
ATOM     26  C   UNL     1      47.789   8.005  14.348  0.00  0.00    +0.000 A 
ENDBRANCH  14  15
ENDBRANCH   5  14
TORSDOF 3
ENDMDL
MODEL 7
REMARK VINA RESULT:    -6.132      3.978      8.520
REMARK INTER + INTRA:          -7.732
REMARK INTER:                  -7.411
REMARK INTRA:                  -0.321
REMARK UNBOUND:                -0.524
REMARK  Name = 
REMARK  3 active torsions:
REMARK  status: ('A' for Active; 'I' for Inactive)
REMARK    1  A    between atoms: C_2  and  C_4
REMARK    2  A    between atoms: N_8  and  C_9
REMARK    3  A    between atoms: C_9  and  C_10
REMARK                            x       y       z     vdW  Elec       q    Type
REMARK                         _______ _______ _______ _____ _____    ______ ____
ROOT
ATOM      1  C   UNL     1      44.978   4.583  11.004  0.00  0.00    +0.000 A 
ATOM      2  C   UNL     1      45.647   5.772  10.731  0.00  0.00    +0.000 A 
ATOM      3  C   UNL     1      46.348   6.407  11.757  0.00  0.00    +0.000 A 
ATOM      4  C   UNL     1      46.378   5.846  13.029  0.00  0.00    +0.000 A 
ATOM      5  N   UNL     1      47.058   6.383  14.081  0.00  0.00    +0.000 N 
ATOM      6  N   UNL     1      45.704   4.712  13.309  0.00  0.00    +0.000 NA
ATOM      7  C   UNL     1      45.015   4.110  12.305  0.00  0.00    +0.000 A 
ATOM      8  H   UNL     1      46.976   5.846  14.937  0.00  0.00    +0.000 HD
ENDROOT
BRANCH   1  10
ATOM      9  N   UNL     1      44.142   4.392   8.735  0.00  0.00    +0.000 N 
ATOM     10  C   UNL     1      44.233   3.828   9.978  0.00  0.00    +0.000 C 
ATOM     11  O   UNL     1      43.750   2.730  10.214  0.00  0.00    +0.000 OA
ATOM     12  H   UNL     1      43.723   3.818   8.014  0.00  0.00    +0.000 HD
ATOM     13  H   UNL     1      44.727   5.158   8.438  0.00  0.00    +0.000 HD
ENDBRANCH   1  10
BRANCH   5  14
ATOM     14  C   UNL     1      47.960   7.508  14.048  0.00  0.00    +0.000 C 
BRANCH  14  15
ATOM     15  C   UNL     1      48.833   7.609  15.274  0.00  0.00    +0.000 A 
ATOM     16  C   UNL     1      48.981   8.773  16.027  0.00  0.00    +0.000 A 
ATOM     17  C   UNL     1      49.820   8.745  17.127  0.00  0.00    +0.000 A 
ATOM     18  N   UNL     1      50.519   7.659  17.523  0.00  0.00    +0.000 NA
ATOM     19  C   UNL     1      50.380   6.524  16.807  0.00  0.00    +0.000 A 
ATOM     20  N   UNL     1      51.148   5.391  17.112  0.00  0.00    +0.000 N 
ATOM     21  C   UNL     1      52.347   5.687  17.904  0.00  0.00    +0.000 C 
ATOM     22  C   UNL     1      53.273   4.472  17.826  0.00  0.00    +0.000 C 
ATOM     23  C   UNL     1      52.565   3.198  18.287  0.00  0.00    +0.000 C 
ATOM     24  C   UNL     1      51.218   3.011  17.585  0.00  0.00    +0.000 C 
ATOM     25  C   UNL     1      50.362   4.278  17.656  0.00  0.00    +0.000 C 
ATOM     26  C   UNL     1      49.540   6.474  15.691  0.00  0.00    +0.000 A 
ENDBRANCH  14  15
ENDBRANCH   5  14
TORSDOF 3
ENDMDL
MODEL 8
REMARK VINA RESULT:    -6.072      4.770      8.821
REMARK INTER + INTRA:          -7.661
REMARK INTER:                  -7.315
REMARK INTRA:                  -0.347
REMARK UNBOUND:                -0.524
REMARK  Name = 
REMARK  3 active torsions:
REMARK  status: ('A' for Active; 'I' for Inactive)
REMARK    1  A    between atoms: C_2  and  C_4
REMARK    2  A    between atoms: N_8  and  C_9
REMARK    3  A    between atoms: C_9  and  C_10
REMARK                            x       y       z     vdW  Elec       q    Type
REMARK                         _______ _______ _______ _____ _____    ______ ____
ROOT
ATOM      1  C   UNL     1      45.614   4.985  11.406  0.00  0.00    +0.000 A 
ATOM      2  C   UNL     1      46.395   5.936  12.054  0.00  0.00    +0.000 A 
ATOM      3  C   UNL     1      46.758   5.723  13.385  0.00  0.00    +0.000 A 
ATOM      4  C   UNL     1      46.347   4.569  14.042  0.00  0.00    +0.000 A 
ATOM      5  N   UNL     1      46.676   4.267  15.329  0.00  0.00    +0.000 N 
ATOM      6  N   UNL     1      45.561   3.659  13.429  0.00  0.00    +0.000 NA
ATOM      7  C   UNL     1      45.204   3.884  12.138  0.00  0.00    +0.000 A 
ATOM      8  H   UNL     1      46.294   3.386  15.652  0.00  0.00    +0.000 HD
ENDROOT
BRANCH   1  10
ATOM      9  N   UNL     1      43.886   4.885   9.707  0.00  0.00    +0.000 N 
ATOM     10  C   UNL     1      45.204   5.112   9.995  0.00  0.00    +0.000 C 
ATOM     11  O   UNL     1      45.996   5.442   9.123  0.00  0.00    +0.000 OA
ATOM     12  H   UNL     1      43.596   5.079   8.757  0.00  0.00    +0.000 HD
ATOM     13  H   UNL     1      43.168   4.859  10.416  0.00  0.00    +0.000 HD
ENDBRANCH   1  10
BRANCH   5  14
ATOM     14  C   UNL     1      47.597   4.983  16.179  0.00  0.00    +0.000 C 
BRANCH  14  15
ATOM     15  C   UNL     1      48.742   4.130  16.668  0.00  0.00    +0.000 A 
ATOM     16  C   UNL     1      48.738   2.737  16.638  0.00  0.00    +0.000 A 
ATOM     17  C   UNL     1      49.845   2.063  17.126  0.00  0.00    +0.000 A 
ATOM     18  N   UNL     1      50.937   2.669  17.640  0.00  0.00    +0.000 NA
ATOM     19  C   UNL     1      50.956   4.017  17.670  0.00  0.00    +0.000 A 
ATOM     20  N   UNL     1      52.020   4.702  18.276  0.00  0.00    +0.000 N 
ATOM     21  C   UNL     1      52.796   3.877  19.207  0.00  0.00    +0.000 C 
ATOM     22  C   UNL     1      53.642   4.816  20.071  0.00  0.00    +0.000 C 
ATOM     23  C   UNL     1      54.525   5.722  19.213  0.00  0.00    +0.000 C 
ATOM     24  C   UNL     1      53.721   6.426  18.117  0.00  0.00    +0.000 C 
ATOM     25  C   UNL     1      52.860   5.440  17.325  0.00  0.00    +0.000 C 
ATOM     26  C   UNL     1      49.879   4.764  17.183  0.00  0.00    +0.000 A 
ENDBRANCH  14  15
ENDBRANCH   5  14
TORSDOF 3
ENDMDL
MODEL 9
REMARK VINA RESULT:    -5.827      3.185      7.540
REMARK INTER + INTRA:          -7.374
REMARK INTER:                  -6.991
REMARK INTRA:                  -0.383
REMARK UNBOUND:                -0.524
REMARK  Name = 
REMARK  3 active torsions:
REMARK  status: ('A' for Active; 'I' for Inactive)
REMARK    1  A    between atoms: C_2  and  C_4
REMARK    2  A    between atoms: N_8  and  C_9
REMARK    3  A    between atoms: C_9  and  C_10
REMARK                            x       y       z     vdW  Elec       q    Type
REMARK                         _______ _______ _______ _____ _____    ______ ____
ROOT
ATOM      1  C   UNL     1      44.619   4.199  11.532  0.00  0.00    +0.000 A 
ATOM      2  C   UNL     1      44.790   5.323  10.730  0.00  0.00    +0.000 A 
ATOM      3  C   UNL     1      45.384   6.461  11.276  0.00  0.00    +0.000 A 
ATOM      4  C   UNL     1      45.805   6.459  12.601  0.00  0.00    +0.000 A 
ATOM      5  N   UNL     1      46.418   7.514  13.207  0.00  0.00    +0.000 N 
ATOM      6  N   UNL     1      45.611   5.384  13.393  0.00  0.00    +0.000 NA
ATOM      7  C   UNL     1      45.020   4.286  12.854  0.00  0.00    +0.000 A 
ATOM      8  H   UNL     1      46.660   7.344  14.176  0.00  0.00    +0.000 HD
ENDROOT
BRANCH   1  10
ATOM      9  N   UNL     1      44.686   2.299  10.026  0.00  0.00    +0.000 N 
ATOM     10  C   UNL     1      44.025   2.943  11.036  0.00  0.00    +0.000 C 
ATOM     11  O   UNL     1      43.008   2.476  11.528  0.00  0.00    +0.000 OA
ATOM     12  H   UNL     1      44.328   1.387   9.768  0.00  0.00    +0.000 HD
ATOM     13  H   UNL     1      45.638   2.513   9.771  0.00  0.00    +0.000 HD
ENDBRANCH   1  10
BRANCH   5  14
ATOM     14  C   UNL     1      46.863   8.735  12.580  0.00  0.00    +0.000 C 
BRANCH  14  15
ATOM     15  C   UNL     1      48.331   9.014  12.796  0.00  0.00    +0.000 A 
ATOM     16  C   UNL     1      48.851   9.562  13.967  0.00  0.00    +0.000 A 
ATOM     17  C   UNL     1      50.216   9.782  14.043  0.00  0.00    +0.000 A 
ATOM     18  N   UNL     1      51.086   9.507  13.047  0.00  0.00    +0.000 NA
ATOM     19  C   UNL     1      50.596   8.972  11.910  0.00  0.00    +0.000 A 
ATOM     20  N   UNL     1      51.434   8.750  10.807  0.00  0.00    +0.000 N 
ATOM     21  C   UNL     1      52.676   9.531  10.846  0.00  0.00    +0.000 C 
ATOM     22  C   UNL     1      53.289   9.505   9.445  0.00  0.00    +0.000 C 
ATOM     23  C   UNL     1      53.510   8.073   8.956  0.00  0.00    +0.000 C 
ATOM     24  C   UNL     1      52.249   7.220   9.109  0.00  0.00    +0.000 C 
ATOM     25  C   UNL     1      51.658   7.330  10.516  0.00  0.00    +0.000 C 
ATOM     26  C   UNL     1      49.231   8.710  11.767  0.00  0.00    +0.000 A 
ENDBRANCH  14  15
ENDBRANCH   5  14
TORSDOF 3
ENDMDL
