MODEL 1
REMARK VINA RESULT:    -7.812      0.000      0.000
REMARK INTER + INTRA:         -10.156
REMARK INTER:                  -9.639
REMARK INTRA:                  -0.517
REMARK UNBOUND:                -0.517
REMARK  Name = 
REMARK  5 active torsions:
REMARK  status: ('A' for Active; 'I' for Inactive)
REMARK    1  A    between atoms: C_1  and  C_2
REMARK    2  A    between atoms: C_2  and  C_3
REMARK    3  A    between atoms: C_2  and  C_14
REMARK    4  A    between atoms: C_3  and  N_4
REMARK    5  A    between atoms: C_8  and  C_9
REMARK                            x       y       z     vdW  Elec       q    Type
REMARK                         _______ _______ _______ _____ _____    ______ ____
ROOT
ATOM      1  N   UNL     1      43.889   4.752   9.876  0.00  0.00    +0.000 N 
ATOM      2  C   UNL     1      44.737   3.882   9.164  0.00  0.00    +0.000 A 
ATOM      3  C   UNL     1      45.462   4.396   8.094  0.00  0.00    +0.000 A 
ATOM      4  C   UNL     1      46.322   3.560   7.377  0.00  0.00    +0.000 A 
ATOM      5  C   UNL     1      46.441   2.219   7.738  0.00  0.00    +0.000 A 
ATOM      6  C   UNL     1      45.661   1.784   8.795  0.00  0.00    +0.000 A 
ATOM      7  N   UNL     1      44.819   2.580   9.503  0.00  0.00    +0.000 NA
ATOM      8  H   UNL     1      44.442   5.546  10.190  0.00  0.00    +0.000 HD
ENDROOT
BRANCH   5   9
ATOM      9  C   UNL     1      47.378   1.345   6.993  0.00  0.00    +0.000 C 
ATOM     10  N   UNL     1      48.460   1.902   6.368  0.00  0.00    +0.000 N 
ATOM     11  O   UNL     1      47.192   0.135   6.918  0.00  0.00    +0.000 OA
ATOM     12  H   UNL     1      48.696   2.882   6.344  0.00  0.00    +0.000 HD
ATOM     13  H   UNL     1      49.057   1.269   5.853  0.00  0.00    +0.000 HD
ENDBRANCH   5   9
BRANCH   1  14
ATOM     14  C   UNL     1      43.193   4.108  10.995  0.00  0.00    +0.000 C 
BRANCH  14  16
ATOM     15  C   UNL     1      42.199   6.184  12.096  0.00  0.00    +0.000 C 
ATOM     16  C   UNL     1      43.161   4.998  12.258  0.00  0.00    +0.000 C 
BRANCH  16  17
ATOM     17  C   UNL     1      44.550   5.397  12.745  0.00  0.00    +0.000 A 
ATOM     18  C   UNL     1      45.441   4.477  13.318  0.00  0.00    +0.000 A 
ATOM     19  C   UNL     1      46.727   4.865  13.700  0.00  0.00    +0.000 A 
ATOM     20  C   UNL     1      47.141   6.184  13.526  0.00  0.00    +0.000 A 
ATOM     21  C   UNL     1      46.258   7.114  12.984  0.00  0.00    +0.000 A 
ATOM     22 CL   UNL     1      46.764   8.745  12.772  0.00  0.00    +0.000 Cl
ATOM     23  C   UNL     1      44.972   6.731  12.601  0.00  0.00    +0.000 A 
ENDBRANCH  16  17
ENDBRANCH  14  16
ENDBRANCH   1  14
TORSDOF 4
ENDMDL
MODEL 2
REMARK VINA RESULT:    -7.759      1.583      2.082
REMARK INTER + INTRA:         -10.090
REMARK INTER:                  -9.491
REMARK INTRA:                  -0.599
REMARK UNBOUND:                -0.517
REMARK  Name = 
REMARK  5 active torsions:
REMARK  status: ('A' for Active; 'I' for Inactive)
REMARK    1  A    between atoms: C_1  and  C_2
REMARK    2  A    between atoms: C_2  and  C_3
REMARK    3  A    between atoms: C_2  and  C_14
REMARK    4  A    between atoms: C_3  and  N_4
REMARK    5  A    between atoms: C_8  and  C_9
REMARK                            x       y       z     vdW  Elec       q    Type
REMARK                         _______ _______ _______ _____ _____    ______ ____
ROOT
ATOM      1  N   UNL     1      43.954   3.252  10.152  0.00  0.00    +0.000 N 
ATOM      2  C   UNL     1      44.902   3.052   9.131  0.00  0.00    +0.000 A 
ATOM      3  C   UNL     1      45.415   1.771   8.949  0.00  0.00    +0.000 A 
ATOM      4  C   UNL     1      46.348   1.539   7.935  0.00  0.00    +0.000 A 
ATOM      5  C   UNL     1      46.759   2.593   7.119  0.00  0.00    +0.000 A 
ATOM      6  C   UNL     1      46.220   3.839   7.389  0.00  0.00    +0.000 A 
ATOM      7  N   UNL     1      45.314   4.086   8.371  0.00  0.00    +0.000 NA
ATOM      8  H   UNL     1      43.189   2.596  10.007  0.00  0.00    +0.000 HD
ENDROOT
BRANCH   5   9
ATOM      9  C   UNL     1      47.725   2.334   6.026  0.00  0.00    +0.000 C 
ATOM     10  N   UNL     1      47.742   3.162   4.937  0.00  0.00    +0.000 N 
ATOM     11  O   UNL     1      48.497   1.383   6.076  0.00  0.00    +0.000 OA
ATOM     12  H   UNL     1      47.140   3.955   4.780  0.00  0.00    +0.000 HD
ATOM     13  H   UNL     1      48.403   2.929   4.207  0.00  0.00    +0.000 HD
ENDBRANCH   5   9
BRANCH   1  14
ATOM     14  C   UNL     1      43.465   4.633  10.238  0.00  0.00    +0.000 C 
BRANCH  14  16
ATOM     15  C   UNL     1      42.580   6.378  11.874  0.00  0.00    +0.000 C 
ATOM     16  C   UNL     1      43.534   5.192  11.676  0.00  0.00    +0.000 C 
BRANCH  16  17
ATOM     17  C   UNL     1      44.959   5.466  12.145  0.00  0.00    +0.000 A 
ATOM     18  C   UNL     1      45.821   6.339  11.465  0.00  0.00    +0.000 A 
ATOM     19  C   UNL     1      47.101   6.612  11.954  0.00  0.00    +0.000 A 
ATOM     20  C   UNL     1      47.545   6.006  13.128  0.00  0.00    +0.000 A 
ATOM     21  C   UNL     1      46.710   5.117  13.799  0.00  0.00    +0.000 A 
ATOM     22 CL   UNL     1      47.256   4.363  15.247  0.00  0.00    +0.000 Cl
ATOM     23  C   UNL     1      45.430   4.841  13.313  0.00  0.00    +0.000 A 
ENDBRANCH  16  17
ENDBRANCH  14  16
ENDBRANCH   1  14
TORSDOF 4
ENDMDL
MODEL 3
REMARK VINA RESULT:    -7.594      1.448      2.135
REMARK INTER + INTRA:          -9.887
REMARK INTER:                  -9.382
REMARK INTRA:                  -0.505
REMARK UNBOUND:                -0.517
REMARK  Name = 
REMARK  5 active torsions:
REMARK  status: ('A' for Active; 'I' for Inactive)
REMARK    1  A    between atoms: C_1  and  C_2
REMARK    2  A    between atoms: C_2  and  C_3
REMARK    3  A    between atoms: C_2  and  C_14
REMARK    4  A    between atoms: C_3  and  N_4
REMARK    5  A    between atoms: C_8  and  C_9
REMARK                            x       y       z     vdW  Elec       q    Type
REMARK                         _______ _______ _______ _____ _____    ______ ____
ROOT
ATOM      1  N   UNL     1      43.866   3.184  10.439  0.00  0.00    +0.000 N 
ATOM      2  C   UNL     1      44.802   3.013   9.401  0.00  0.00    +0.000 A 
ATOM      3  C   UNL     1      45.131   1.717   9.016  0.00  0.00    +0.000 A 
ATOM      4  C   UNL     1      46.046   1.516   7.980  0.00  0.00    +0.000 A 
ATOM      5  C   UNL     1      46.625   2.615   7.346  0.00  0.00    +0.000 A 
ATOM      6  C   UNL     1      46.264   3.867   7.811  0.00  0.00    +0.000 A 
ATOM      7  N   UNL     1      45.377   4.083   8.817  0.00  0.00    +0.000 NA
ATOM      8  H   UNL     1      43.019   2.678  10.188  0.00  0.00    +0.000 HD
ENDROOT
BRANCH   5   9
ATOM      9  C   UNL     1      47.571   2.394   6.227  0.00  0.00    +0.000 C 
ATOM     10  N   UNL     1      47.467   3.163   5.101  0.00  0.00    +0.000 N 
ATOM     11  O   UNL     1      48.435   1.526   6.291  0.00  0.00    +0.000 OA
ATOM     12  H   UNL     1      46.784   3.885   4.931  0.00  0.00    +0.000 HD
ATOM     13  H   UNL     1      48.120   2.959   4.355  0.00  0.00    +0.000 HD
ENDBRANCH   5   9
BRANCH   1  14
ATOM     14  C   UNL     1      43.578   4.590  10.744  0.00  0.00    +0.000 C 
BRANCH  14  16
ATOM     15  C   UNL     1      42.960   5.183  13.147  0.00  0.00    +0.000 C 
ATOM     16  C   UNL     1      44.102   5.008  12.136  0.00  0.00    +0.000 C 
BRANCH  16  17
ATOM     17  C   UNL     1      45.061   6.192  12.085  0.00  0.00    +0.000 A 
ATOM     18  C   UNL     1      44.629   7.503  11.834  0.00  0.00    +0.000 A 
ATOM     19  C   UNL     1      45.527   8.572  11.851  0.00  0.00    +0.000 A 
ATOM     20  C   UNL     1      46.878   8.347  12.109  0.00  0.00    +0.000 A 
ATOM     21  C   UNL     1      47.326   7.048  12.333  0.00  0.00    +0.000 A 
ATOM     22 CL   UNL     1      48.994   6.766  12.649  0.00  0.00    +0.000 Cl
ATOM     23  C   UNL     1      46.432   5.977  12.317  0.00  0.00    +0.000 A 
ENDBRANCH  16  17
ENDBRANCH  14  16
ENDBRANCH   1  14
TORSDOF 4
ENDMDL
MODEL 4
REMARK VINA RESULT:    -7.235      4.195      6.709
REMARK INTER + INTRA:          -9.443
REMARK INTER:                  -8.954
REMARK INTRA:                  -0.489
REMARK UNBOUND:                -0.517
REMARK  Name = 
REMARK  5 active torsions:
REMARK  status: ('A' for Active; 'I' for Inactive)
REMARK    1  A    between atoms: C_1  and  C_2
REMARK    2  A    between atoms: C_2  and  C_3
REMARK    3  A    between atoms: C_2  and  C_14
REMARK    4  A    between atoms: C_3  and  N_4
REMARK    5  A    between atoms: C_8  and  C_9
REMARK                            x       y       z     vdW  Elec       q    Type
REMARK                         _______ _______ _______ _____ _____    ______ ____
ROOT
ATOM      1  N   UNL     1      45.091   4.859  12.125  0.00  0.00    +0.000 N 
ATOM      2  C   UNL     1      46.210   5.668  12.403  0.00  0.00    +0.000 A 
ATOM      3  C   UNL     1      46.861   5.499  13.620  0.00  0.00    +0.000 A 
ATOM      4  C   UNL     1      47.982   6.278  13.918  0.00  0.00    +0.000 A 
ATOM      5  C   UNL     1      48.434   7.220  12.994  0.00  0.00    +0.000 A 
ATOM      6  C   UNL     1      47.710   7.343  11.821  0.00  0.00    +0.000 A 
ATOM      7  N   UNL     1      46.617   6.597  11.514  0.00  0.00    +0.000 NA
ATOM      8  H   UNL     1      45.371   3.886  12.230  0.00  0.00    +0.000 HD
ENDROOT
BRANCH   5   9
ATOM      9  C   UNL     1      49.642   8.021  13.303  0.00  0.00    +0.000 C 
ATOM     10  N   UNL     1      50.843   7.658  12.758  0.00  0.00    +0.000 N 
ATOM     11  O   UNL     1      49.584   8.993  14.048  0.00  0.00    +0.000 OA
ATOM     12  H   UNL     1      51.011   6.868  12.155  0.00  0.00    +0.000 HD
ATOM     13  H   UNL     1      51.643   8.222  13.018  0.00  0.00    +0.000 HD
ENDBRANCH   5   9
BRANCH   1  14
ATOM     14  C   UNL     1      44.500   5.107  10.806  0.00  0.00    +0.000 C 
BRANCH  14  16
ATOM     15  C   UNL     1      43.738   2.689  11.085  0.00  0.00    +0.000 C 
ATOM     16  C   UNL     1      44.095   3.800  10.088  0.00  0.00    +0.000 C 
BRANCH  16  17
ATOM     17  C   UNL     1      45.093   3.369   9.020  0.00  0.00    +0.000 A 
ATOM     18  C   UNL     1      45.769   4.289   8.204  0.00  0.00    +0.000 A 
ATOM     19  C   UNL     1      46.721   3.862   7.275  0.00  0.00    +0.000 A 
ATOM     20  C   UNL     1      47.006   2.505   7.138  0.00  0.00    +0.000 A 
ATOM     21  C   UNL     1      46.324   1.579   7.923  0.00  0.00    +0.000 A 
ATOM     22 CL   UNL     1      46.670  -0.099   7.754  0.00  0.00    +0.000 Cl
ATOM     23  C   UNL     1      45.372   2.001   8.852  0.00  0.00    +0.000 A 
ENDBRANCH  16  17
ENDBRANCH  14  16
ENDBRANCH   1  14
TORSDOF 4
ENDMDL
MODEL 5
REMARK VINA RESULT:    -7.221      1.524      2.059
REMARK INTER + INTRA:          -9.427
REMARK INTER:                  -9.005
REMARK INTRA:                  -0.422
REMARK UNBOUND:                -0.517
REMARK  Name = 
REMARK  5 active torsions:
REMARK  status: ('A' for Active; 'I' for Inactive)
REMARK    1  A    between atoms: C_1  and  C_2
REMARK    2  A    between atoms: C_2  and  C_3
REMARK    3  A    between atoms: C_2  and  C_14
REMARK    4  A    between atoms: C_3  and  N_4
REMARK    5  A    between atoms: C_8  and  C_9
REMARK                            x       y       z     vdW  Elec       q    Type
REMARK                         _______ _______ _______ _____ _____    ______ ____
ROOT
ATOM      1  N   UNL     1      43.938   3.301  10.462  0.00  0.00    +0.000 N 
ATOM      2  C   UNL     1      44.842   3.177   9.390  0.00  0.00    +0.000 A 
ATOM      3  C   UNL     1      45.209   1.898   8.980  0.00  0.00    +0.000 A 
ATOM      4  C   UNL     1      46.093   1.743   7.910  0.00  0.00    +0.000 A 
ATOM      5  C   UNL     1      46.604   2.870   7.266  0.00  0.00    +0.000 A 
ATOM      6  C   UNL     1      46.210   4.102   7.757  0.00  0.00    +0.000 A 
ATOM      7  N   UNL     1      45.352   4.274   8.796  0.00  0.00    +0.000 NA
ATOM      8  H   UNL     1      43.104   2.763  10.237  0.00  0.00    +0.000 HD
ENDROOT
BRANCH   5   9
ATOM      9  C   UNL     1      47.517   2.697   6.112  0.00  0.00    +0.000 C 
ATOM     10  N   UNL     1      48.837   2.418   6.338  0.00  0.00    +0.000 N 
ATOM     11  O   UNL     1      47.111   2.814   4.961  0.00  0.00    +0.000 OA
ATOM     12  H   UNL     1      49.281   2.325   7.238  0.00  0.00    +0.000 HD
ATOM     13  H   UNL     1      49.425   2.334   5.519  0.00  0.00    +0.000 HD
ENDBRANCH   5   9
BRANCH   1  14
ATOM     14  C   UNL     1      43.606   4.691  10.791  0.00  0.00    +0.000 C 
BRANCH  14  16
ATOM     15  C   UNL     1      42.873   5.051  13.208  0.00  0.00    +0.000 C 
ATOM     16  C   UNL     1      44.048   5.079  12.220  0.00  0.00    +0.000 C 
BRANCH  16  17
ATOM     17  C   UNL     1      44.859   6.369  12.268  0.00  0.00    +0.000 A 
ATOM     18  C   UNL     1      46.127   6.440  12.865  0.00  0.00    +0.000 A 
ATOM     19  C   UNL     1      46.867   7.625  12.840  0.00  0.00    +0.000 A 
ATOM     20  C   UNL     1      46.347   8.762  12.225  0.00  0.00    +0.000 A 
ATOM     21  C   UNL     1      45.080   8.713  11.651  0.00  0.00    +0.000 A 
ATOM     22 CL   UNL     1      44.432  10.116  10.895  0.00  0.00    +0.000 Cl
ATOM     23  C   UNL     1      44.336   7.532  11.675  0.00  0.00    +0.000 A 
ENDBRANCH  16  17
ENDBRANCH  14  16
ENDBRANCH   1  14
TORSDOF 4
ENDMDL
MODEL 6
REMARK VINA RESULT:    -6.523      4.621      6.320
REMARK INTER + INTRA:          -8.565
REMARK INTER:                  -8.203
REMARK INTRA:                  -0.362
REMARK UNBOUND:                -0.517
REMARK  Name = 
REMARK  5 active torsions:
REMARK  status: ('A' for Active; 'I' for Inactive)
REMARK    1  A    between atoms: C_1  and  C_2
REMARK    2  A    between atoms: C_2  and  C_3
REMARK    3  A    between atoms: C_2  and  C_14
REMARK    4  A    between atoms: C_3  and  N_4
REMARK    5  A    between atoms: C_8  and  C_9
REMARK                            x       y       z     vdW  Elec       q    Type
REMARK                         _______ _______ _______ _____ _____    ______ ____
ROOT
ATOM      1  N   UNL     1      47.254   5.436  14.802  0.00  0.00    +0.000 N 
ATOM      2  C   UNL     1      46.521   5.015  13.675  0.00  0.00    +0.000 A 
ATOM      3  C   UNL     1      46.300   5.930  12.652  0.00  0.00    +0.000 A 
ATOM      4  C   UNL     1      45.589   5.537  11.515  0.00  0.00    +0.000 A 
ATOM      5  C   UNL     1      45.104   4.233  11.420  0.00  0.00    +0.000 A 
ATOM      6  C   UNL     1      45.344   3.397  12.496  0.00  0.00    +0.000 A 
ATOM      7  N   UNL     1      46.032   3.760  13.610  0.00  0.00    +0.000 NA
ATOM      8  H   UNL     1      48.145   5.808  14.480  0.00  0.00    +0.000 HD
ENDROOT
BRANCH   5   9
ATOM      9  C   UNL     1      44.377   3.814  10.199  0.00  0.00    +0.000 C 
ATOM     10  N   UNL     1      44.265   4.689   9.153  0.00  0.00    +0.000 N 
ATOM     11  O   UNL     1      43.865   2.703  10.117  0.00  0.00    +0.000 OA
ATOM     12  H   UNL     1      44.624   5.630   9.121  0.00  0.00    +0.000 HD
ATOM     13  H   UNL     1      43.740   4.365   8.351  0.00  0.00    +0.000 HD
ENDBRANCH   5   9
BRANCH   1  14
ATOM     14  C   UNL     1      47.446   4.383  15.805  0.00  0.00    +0.000 C 
BRANCH  14  16
ATOM     15  C   UNL     1      48.693   6.335  16.872  0.00  0.00    +0.000 C 
ATOM     16  C   UNL     1      48.324   4.850  16.987  0.00  0.00    +0.000 C 
BRANCH  16  17
ATOM     17  C   UNL     1      49.520   3.939  17.241  0.00  0.00    +0.000 A 
ATOM     18  C   UNL     1      49.466   2.551  17.042  0.00  0.00    +0.000 A 
ATOM     19  C   UNL     1      50.598   1.754  17.228  0.00  0.00    +0.000 A 
ATOM     20  C   UNL     1      51.802   2.330  17.629  0.00  0.00    +0.000 A 
ATOM     21  C   UNL     1      51.863   3.702  17.856  0.00  0.00    +0.000 A 
ATOM     22 CL   UNL     1      53.347   4.418  18.355  0.00  0.00    +0.000 Cl
ATOM     23  C   UNL     1      50.735   4.503  17.671  0.00  0.00    +0.000 A 
ENDBRANCH  16  17
ENDBRANCH  14  16
ENDBRANCH   1  14
TORSDOF 4
ENDMDL
MODEL 7
REMARK VINA RESULT:    -6.391      4.535      7.120
REMARK INTER + INTRA:          -8.402
REMARK INTER:                  -7.875
REMARK INTRA:                  -0.526
REMARK UNBOUND:                -0.517
REMARK  Name = 
REMARK  5 active torsions:
REMARK  status: ('A' for Active; 'I' for Inactive)
REMARK    1  A    between atoms: C_1  and  C_2
REMARK    2  A    between atoms: C_2  and  C_3
REMARK    3  A    between atoms: C_2  and  C_14
REMARK    4  A    between atoms: C_3  and  N_4
REMARK    5  A    between atoms: C_8  and  C_9
REMARK                            x       y       z     vdW  Elec       q    Type
REMARK                         _______ _______ _______ _____ _____    ______ ____
ROOT
ATOM      1  N   UNL     1      48.429   7.174  13.654  0.00  0.00    +0.000 N 
ATOM      2  C   UNL     1      48.191   6.206  14.648  0.00  0.00    +0.000 A 
ATOM      3  C   UNL     1      48.624   6.471  15.944  0.00  0.00    +0.000 A 
ATOM      4  C   UNL     1      48.389   5.536  16.955  0.00  0.00    +0.000 A 
ATOM      5  C   UNL     1      47.727   4.345  16.655  0.00  0.00    +0.000 A 
ATOM      6  C   UNL     1      47.357   4.151  15.336  0.00  0.00    +0.000 A 
ATOM      7  N   UNL     1      47.578   5.046  14.338  0.00  0.00    +0.000 NA
ATOM      8  H   UNL     1      48.036   8.058  13.970  0.00  0.00    +0.000 HD
ENDROOT
BRANCH   5   9
ATOM      9  C   UNL     1      47.454   3.372  17.738  0.00  0.00    +0.000 C 
ATOM     10  N   UNL     1      48.194   3.423  18.887  0.00  0.00    +0.000 N 
ATOM     11  O   UNL     1      46.585   2.515  17.615  0.00  0.00    +0.000 OA
ATOM     12  H   UNL     1      48.945   4.066  19.085  0.00  0.00    +0.000 HD
ATOM     13  H   UNL     1      47.986   2.723  19.587  0.00  0.00    +0.000 HD
ENDBRANCH   5   9
BRANCH   1  14
ATOM     14  C   UNL     1      47.910   6.800  12.334  0.00  0.00    +0.000 C 
BRANCH  14  16
ATOM     15  C   UNL     1      46.158   8.497  13.083  0.00  0.00    +0.000 C 
ATOM     16  C   UNL     1      46.525   7.424  12.049  0.00  0.00    +0.000 C 
BRANCH  16  17
ATOM     17  C   UNL     1      45.433   6.383  11.831  0.00  0.00    +0.000 A 
ATOM     18  C   UNL     1      44.461   6.095  12.802  0.00  0.00    +0.000 A 
ATOM     19  C   UNL     1      43.440   5.177  12.547  0.00  0.00    +0.000 A 
ATOM     20  C   UNL     1      43.379   4.521  11.319  0.00  0.00    +0.000 A 
ATOM     21  C   UNL     1      44.352   4.776  10.356  0.00  0.00    +0.000 A 
ATOM     22 CL   UNL     1      44.283   3.965   8.840  0.00  0.00    +0.000 Cl
ATOM     23  C   UNL     1      45.374   5.693  10.607  0.00  0.00    +0.000 A 
ENDBRANCH  16  17
ENDBRANCH  14  16
ENDBRANCH   1  14
TORSDOF 4
ENDMDL
MODEL 8
REMARK VINA RESULT:    -6.092      5.286      7.870
REMARK INTER + INTRA:          -8.033
REMARK INTER:                  -7.672
REMARK INTRA:                  -0.361
REMARK UNBOUND:                -0.517
REMARK  Name = 
REMARK  5 active torsions:
REMARK  status: ('A' for Active; 'I' for Inactive)
REMARK    1  A    between atoms: C_1  and  C_2
REMARK    2  A    between atoms: C_2  and  C_3
REMARK    3  A    between atoms: C_2  and  C_14
REMARK    4  A    between atoms: C_3  and  N_4
REMARK    5  A    between atoms: C_8  and  C_9
REMARK                            x       y       z     vdW  Elec       q    Type
REMARK                         _______ _______ _______ _____ _____    ______ ____
ROOT
ATOM      1  N   UNL     1      47.103   5.014  13.928  0.00  0.00    +0.000 N 
ATOM      2  C   UNL     1      47.582   4.933  15.249  0.00  0.00    +0.000 A 
ATOM      3  C   UNL     1      47.086   3.926  16.071  0.00  0.00    +0.000 A 
ATOM      4  C   UNL     1      47.553   3.813  17.383  0.00  0.00    +0.000 A 
ATOM      5  C   UNL     1      48.508   4.711  17.857  0.00  0.00    +0.000 A 
ATOM      6  C   UNL     1      48.926   5.699  16.982  0.00  0.00    +0.000 A 
ATOM      7  N   UNL     1      48.483   5.828  15.704  0.00  0.00    +0.000 NA
ATOM      8  H   UNL     1      47.246   4.110  13.483  0.00  0.00    +0.000 HD
ENDROOT
BRANCH   5   9
ATOM      9  C   UNL     1      49.022   4.565  19.239  0.00  0.00    +0.000 C 
ATOM     10  N   UNL     1      48.506   3.589  20.046  0.00  0.00    +0.000 N 
ATOM     11  O   UNL     1      49.891   5.314  19.673  0.00  0.00    +0.000 OA
ATOM     12  H   UNL     1      47.777   2.937  19.802  0.00  0.00    +0.000 HD
ATOM     13  H   UNL     1      48.872   3.545  20.988  0.00  0.00    +0.000 HD
ENDBRANCH   5   9
BRANCH   1  14
ATOM     14  C   UNL     1      47.712   6.097  13.147  0.00  0.00    +0.000 C 
BRANCH  14  16
ATOM     15  C   UNL     1      46.286   8.212  13.160  0.00  0.00    +0.000 C 
ATOM     16  C   UNL     1      46.661   6.939  12.389  0.00  0.00    +0.000 C 
BRANCH  16  17
ATOM     17  C   UNL     1      45.458   6.122  11.930  0.00  0.00    +0.000 A 
ATOM     18  C   UNL     1      44.273   6.041  12.677  0.00  0.00    +0.000 A 
ATOM     19  C   UNL     1      43.169   5.331  12.198  0.00  0.00    +0.000 A 
ATOM     20  C   UNL     1      43.236   4.680  10.968  0.00  0.00    +0.000 A 
ATOM     21  C   UNL     1      44.414   4.730  10.229  0.00  0.00    +0.000 A 
ATOM     22 CL   UNL     1      44.502   3.923   8.711  0.00  0.00    +0.000 Cl
ATOM     23  C   UNL     1      45.520   5.438  10.703  0.00  0.00    +0.000 A 
ENDBRANCH  16  17
ENDBRANCH  14  16
ENDBRANCH   1  14
TORSDOF 4
ENDMDL
MODEL 9
REMARK VINA RESULT:    -5.524      3.461      5.755
REMARK INTER + INTRA:          -7.332
REMARK INTER:                  -6.866
REMARK INTRA:                  -0.466
REMARK UNBOUND:                -0.517
REMARK  Name = 
REMARK  5 active torsions:
REMARK  status: ('A' for Active; 'I' for Inactive)
REMARK    1  A    between atoms: C_1  and  C_2
REMARK    2  A    between atoms: C_2  and  C_3
REMARK    3  A    between atoms: C_2  and  C_14
REMARK    4  A    between atoms: C_3  and  N_4
REMARK    5  A    between atoms: C_8  and  C_9
REMARK                            x       y       z     vdW  Elec       q    Type
REMARK                         _______ _______ _______ _____ _____    ______ ____
ROOT
ATOM      1  N   UNL     1      47.671   5.984  14.367  0.00  0.00    +0.000 N 
ATOM      2  C   UNL     1      46.760   5.479  13.420  0.00  0.00    +0.000 A 
ATOM      3  C   UNL     1      46.476   4.117  13.438  0.00  0.00    +0.000 A 
ATOM      4  C   UNL     1      45.565   3.590  12.518  0.00  0.00    +0.000 A 
ATOM      5  C   UNL     1      44.954   4.432  11.590  0.00  0.00    +0.000 A 
ATOM      6  C   UNL     1      45.316   5.767  11.624  0.00  0.00    +0.000 A 
ATOM      7  N   UNL     1      46.200   6.299  12.508  0.00  0.00    +0.000 NA
ATOM      8  H   UNL     1      47.345   5.716  15.294  0.00  0.00    +0.000 HD
ENDROOT
BRANCH   5   9
ATOM      9  C   UNL     1      43.966   3.871  10.639  0.00  0.00    +0.000 C 
ATOM     10  N   UNL     1      43.831   4.439   9.401  0.00  0.00    +0.000 N 
ATOM     11  O   UNL     1      43.261   2.917  10.948  0.00  0.00    +0.000 OA
ATOM     12  H   UNL     1      44.339   5.236   9.052  0.00  0.00    +0.000 HD
ATOM     13  H   UNL     1      43.127   4.036   8.797  0.00  0.00    +0.000 HD
ENDBRANCH   5   9
BRANCH   1  14
ATOM     14  C   UNL     1      47.876   7.433  14.271  0.00  0.00    +0.000 C 
BRANCH  14  16
ATOM     15  C   UNL     1      50.388   7.872  14.222  0.00  0.00    +0.000 C 
ATOM     16  C   UNL     1      49.096   7.797  13.397  0.00  0.00    +0.000 C 
BRANCH  16  17
ATOM     17  C   UNL     1      48.859   9.020  12.517  0.00  0.00    +0.000 A 
ATOM     18  C   UNL     1      49.871   9.588  11.728  0.00  0.00    +0.000 A 
ATOM     19  C   UNL     1      49.604  10.673  10.889  0.00  0.00    +0.000 A 
ATOM     20  C   UNL     1      48.322  11.216  10.833  0.00  0.00    +0.000 A 
ATOM     21  C   UNL     1      47.315  10.679  11.631  0.00  0.00    +0.000 A 
ATOM     22 CL   UNL     1      45.731  11.350  11.568  0.00  0.00    +0.000 Cl
ATOM     23  C   UNL     1      47.577   9.595  12.471  0.00  0.00    +0.000 A 
ENDBRANCH  16  17
ENDBRANCH  14  16
ENDBRANCH   1  14
TORSDOF 4
ENDMDL
