MODEL 1
REMARK VINA RESULT:    -8.429      0.000      0.000
REMARK INTER + INTRA:         -12.667
REMARK INTER:                 -11.385
REMARK INTRA:                  -1.282
REMARK UNBOUND:                -1.282
REMARK  Name = 
REMARK  9 active torsions:
REMARK  status: ('A' for Active; 'I' for Inactive)
REMARK    1  A    between atoms: C_1  and  C_2
REMARK    2  A    between atoms: C_4  and  C_5
REMARK    3  A    between atoms: C_9  and  C_10
REMARK    4  A    between atoms: C_10  and  C_11
REMARK    5  A    between atoms: C_10  and  C_12
REMARK    6  A    between atoms: C_10  and  C_13
REMARK    7  A    between atoms: C_13  and  N_14
REMARK    8  A    between atoms: N_14  and  C_15
REMARK    9  A    between atoms: C_18  and  C_19
REMARK                            x       y       z     vdW  Elec       q    Type
REMARK                         _______ _______ _______ _____ _____    ______ ____
ROOT
ATOM      1  C   UNL     1      43.856   4.685  12.076  0.00  0.00    +0.000 C 
ATOM      2  C   UNL     1      44.021   3.256  12.654  0.00  0.00    +0.000 C 
ATOM      3  C   UNL     1      42.713   5.414  12.814  0.00  0.00    +0.000 C 
ENDROOT
BRANCH   1   8
ATOM      4  C   UNL     1      47.142   5.844  13.768  0.00  0.00    +0.000 A 
ATOM      5  C   UNL     1      47.750   6.542  12.716  0.00  0.00    +0.000 A 
ATOM      6  C   UNL     1      47.092   6.738  11.504  0.00  0.00    +0.000 A 
ATOM      7  C   UNL     1      45.825   6.192  11.297  0.00  0.00    +0.000 A 
ATOM      8  C   UNL     1      45.186   5.447  12.298  0.00  0.00    +0.000 A 
ATOM      9  C   UNL     1      45.845   5.341  13.540  0.00  0.00    +0.000 A 
BRANCH   4  13
ATOM     10  C   UNL     1      47.890   3.099  17.910  0.00  0.00    +0.000 C 
ATOM     11  C   UNL     1      48.213   4.280  17.047  0.00  0.00    +0.000 A 
ATOM     12  C   UNL     1      47.546   4.480  15.842  0.00  0.00    +0.000 A 
ATOM     13  C   UNL     1      47.838   5.606  15.049  0.00  0.00    +0.000 A 
ATOM     14  C   UNL     1      48.826   6.473  15.527  0.00  0.00    +0.000 A 
ATOM     15  C   UNL     1      49.453   6.194  16.729  0.00  0.00    +0.000 A 
ATOM     16  N   UNL     1      49.165   5.124  17.498  0.00  0.00    +0.000 NA
ENDBRANCH   4  13
ENDBRANCH   1   8
BRANCH   1  17
ATOM     17  C   UNL     1      43.513   4.555  10.562  0.00  0.00    +0.000 C 
BRANCH  17  18
ATOM     18  N   UNL     1      43.669   3.195  10.026  0.00  0.00    +0.000 N 
ATOM     19  H   UNL     1      42.786   2.777   9.745  0.00  0.00    +0.000 HD
BRANCH  18  20
ATOM     20  C   UNL     1      44.646   3.014   9.037  0.00  0.00    +0.000 A 
ATOM     21  C   UNL     1      45.157   4.064   8.268  0.00  0.00    +0.000 A 
ATOM     22  C   UNL     1      46.186   3.841   7.356  0.00  0.00    +0.000 A 
ATOM     23  C   UNL     1      46.706   2.563   7.254  0.00  0.00    +0.000 A 
ATOM     24  N   UNL     1      46.273   1.505   7.994  0.00  0.00    +0.000 NA
ATOM     25  C   UNL     1      45.272   1.771   8.870  0.00  0.00    +0.000 A 
BRANCH  23  26
ATOM     26  C   UNL     1      47.831   2.308   6.304  0.00  0.00    +0.000 C 
ATOM     27  N   UNL     1      47.816   3.058   5.159  0.00  0.00    +0.000 N 
ATOM     28  O   UNL     1      48.708   1.482   6.521  0.00  0.00    +0.000 OA
ATOM     29  H   UNL     1      47.054   3.711   5.003  0.00  0.00    +0.000 HD
ATOM     30  H   UNL     1      48.524   2.910   4.459  0.00  0.00    +0.000 HD
ENDBRANCH  23  26
ENDBRANCH  18  20
ENDBRANCH  17  18
ENDBRANCH   1  17
TORSDOF 6
ENDMDL
MODEL 2
REMARK VINA RESULT:    -7.983      2.469      3.954
REMARK INTER + INTRA:         -12.065
REMARK INTER:                 -10.942
REMARK INTRA:                  -1.123
REMARK UNBOUND:                -1.282
REMARK  Name = 
REMARK  9 active torsions:
REMARK  status: ('A' for Active; 'I' for Inactive)
REMARK    1  A    between atoms: C_1  and  C_2
REMARK    2  A    between atoms: C_4  and  C_5
REMARK    3  A    between atoms: C_9  and  C_10
REMARK    4  A    between atoms: C_10  and  C_11
REMARK    5  A    between atoms: C_10  and  C_12
REMARK    6  A    between atoms: C_10  and  C_13
REMARK    7  A    between atoms: C_13  and  N_14
REMARK    8  A    between atoms: N_14  and  C_15
REMARK    9  A    between atoms: C_18  and  C_19
REMARK                            x       y       z     vdW  Elec       q    Type
REMARK                         _______ _______ _______ _____ _____    ______ ____
ROOT
ATOM      1  C   UNL     1      43.986   5.007  12.112  0.00  0.00    +0.000 C 
ATOM      2  C   UNL     1      43.046   4.976  13.346  0.00  0.00    +0.000 C 
ATOM      3  C   UNL     1      43.439   6.004  11.069  0.00  0.00    +0.000 C 
ENDROOT
BRANCH   1   8
ATOM      4  C   UNL     1      47.089   7.270  12.615  0.00  0.00    +0.000 A 
ATOM      5  C   UNL     1      47.778   6.558  13.608  0.00  0.00    +0.000 A 
ATOM      6  C   UNL     1      47.325   5.318  14.052  0.00  0.00    +0.000 A 
ATOM      7  C   UNL     1      46.140   4.783  13.551  0.00  0.00    +0.000 A 
ATOM      8  C   UNL     1      45.385   5.470  12.589  0.00  0.00    +0.000 A 
ATOM      9  C   UNL     1      45.917   6.681  12.101  0.00  0.00    +0.000 A 
BRANCH   4  13
ATOM     10  C   UNL     1      50.707  10.332  10.947  0.00  0.00    +0.000 C 
ATOM     11  C   UNL     1      49.282  10.080  11.336  0.00  0.00    +0.000 A 
ATOM     12  C   UNL     1      48.877   8.819  11.765  0.00  0.00    +0.000 A 
ATOM     13  C   UNL     1      47.543   8.598  12.153  0.00  0.00    +0.000 A 
ATOM     14  C   UNL     1      46.672   9.689  12.064  0.00  0.00    +0.000 A 
ATOM     15  C   UNL     1      47.151  10.907  11.614  0.00  0.00    +0.000 A 
ATOM     16  N   UNL     1      48.433  11.125  11.254  0.00  0.00    +0.000 NA
ENDBRANCH   4  13
ENDBRANCH   1   8
BRANCH   1  17
ATOM     17  C   UNL     1      44.031   3.573  11.505  0.00  0.00    +0.000 C 
BRANCH  17  18
ATOM     18  N   UNL     1      43.566   3.497  10.113  0.00  0.00    +0.000 N 
ATOM     19  H   UNL     1      43.001   4.296   9.840  0.00  0.00    +0.000 HD
BRANCH  18  20
ATOM     20  C   UNL     1      44.534   3.212   9.139  0.00  0.00    +0.000 A 
ATOM     21  C   UNL     1      45.088   4.189   8.306  0.00  0.00    +0.000 A 
ATOM     22  C   UNL     1      46.106   3.865   7.411  0.00  0.00    +0.000 A 
ATOM     23  C   UNL     1      46.571   2.562   7.391  0.00  0.00    +0.000 A 
ATOM     24  N   UNL     1      46.093   1.572   8.196  0.00  0.00    +0.000 NA
ATOM     25  C   UNL     1      45.106   1.936   9.051  0.00  0.00    +0.000 A 
BRANCH  23  26
ATOM     26  C   UNL     1      47.682   2.200   6.461  0.00  0.00    +0.000 C 
ATOM     27  N   UNL     1      47.859   3.043   5.397  0.00  0.00    +0.000 N 
ATOM     28  O   UNL     1      48.390   1.214   6.625  0.00  0.00    +0.000 OA
ATOM     29  H   UNL     1      47.231   3.833   5.280  0.00  0.00    +0.000 HD
ATOM     30  H   UNL     1      48.566   2.836   4.712  0.00  0.00    +0.000 HD
ENDBRANCH  23  26
ENDBRANCH  18  20
ENDBRANCH  17  18
ENDBRANCH   1  17
TORSDOF 6
ENDMDL
MODEL 3
REMARK VINA RESULT:    -7.731      1.797      2.745
REMARK INTER + INTRA:         -11.725
REMARK INTER:                 -10.873
REMARK INTRA:                  -0.852
REMARK UNBOUND:                -1.282
REMARK  Name = 
REMARK  9 active torsions:
REMARK  status: ('A' for Active; 'I' for Inactive)
REMARK    1  A    between atoms: C_1  and  C_2
REMARK    2  A    between atoms: C_4  and  C_5
REMARK    3  A    between atoms: C_9  and  C_10
REMARK    4  A    between atoms: C_10  and  C_11
REMARK    5  A    between atoms: C_10  and  C_12
REMARK    6  A    between atoms: C_10  and  C_13
REMARK    7  A    between atoms: C_13  and  N_14
REMARK    8  A    between atoms: N_14  and  C_15
REMARK    9  A    between atoms: C_18  and  C_19
REMARK                            x       y       z     vdW  Elec       q    Type
REMARK                         _______ _______ _______ _____ _____    ______ ____
ROOT
ATOM      1  C   UNL     1      44.200   5.014  12.158  0.00  0.00    +0.000 C 
ATOM      2  C   UNL     1      45.210   3.892  12.512  0.00  0.00    +0.000 C 
ATOM      3  C   UNL     1      43.019   4.979  13.152  0.00  0.00    +0.000 C 
ENDROOT
BRANCH   1   8
ATOM      4  C   UNL     1      46.976   7.585  12.986  0.00  0.00    +0.000 A 
ATOM      5  C   UNL     1      46.506   8.714  12.300  0.00  0.00    +0.000 A 
ATOM      6  C   UNL     1      45.270   8.704  11.658  0.00  0.00    +0.000 A 
ATOM      7  C   UNL     1      44.496   7.545  11.642  0.00  0.00    +0.000 A 
ATOM      8  C   UNL     1      44.935   6.372  12.275  0.00  0.00    +0.000 A 
ATOM      9  C   UNL     1      46.150   6.443  12.985  0.00  0.00    +0.000 A 
BRANCH   4  13
ATOM     10  C   UNL     1      51.851   8.801  13.075  0.00  0.00    +0.000 C 
ATOM     11  C   UNL     1      50.649   8.166  13.704  0.00  0.00    +0.000 A 
ATOM     12  C   UNL     1      49.415   8.194  13.062  0.00  0.00    +0.000 A 
ATOM     13  C   UNL     1      48.297   7.572  13.649  0.00  0.00    +0.000 A 
ATOM     14  C   UNL     1      48.497   6.960  14.890  0.00  0.00    +0.000 A 
ATOM     15  C   UNL     1      49.754   6.988  15.469  0.00  0.00    +0.000 A 
ATOM     16  N   UNL     1      50.830   7.571  14.902  0.00  0.00    +0.000 NA
ENDBRANCH   4  13
ENDBRANCH   1   8
BRANCH   1  17
ATOM     17  C   UNL     1      43.685   4.760  10.710  0.00  0.00    +0.000 C 
BRANCH  17  18
ATOM     18  N   UNL     1      43.799   3.363  10.270  0.00  0.00    +0.000 N 
ATOM     19  H   UNL     1      42.905   2.958  10.002  0.00  0.00    +0.000 HD
BRANCH  18  20
ATOM     20  C   UNL     1      44.783   3.080   9.312  0.00  0.00    +0.000 A 
ATOM     21  C   UNL     1      45.278   1.792   9.084  0.00  0.00    +0.000 A 
ATOM     22  C   UNL     1      46.196   1.554   8.064  0.00  0.00    +0.000 A 
ATOM     23  C   UNL     1      46.581   2.618   7.268  0.00  0.00    +0.000 A 
ATOM     24  N   UNL     1      46.115   3.889   7.420  0.00  0.00    +0.000 NA
ATOM     25  C   UNL     1      45.222   4.070   8.423  0.00  0.00    +0.000 A 
BRANCH  23  26
ATOM     26  C   UNL     1      47.543   2.380   6.149  0.00  0.00    +0.000 C 
ATOM     27  N   UNL     1      47.491   3.287   5.125  0.00  0.00    +0.000 N 
ATOM     28  O   UNL     1      48.324   1.437   6.135  0.00  0.00    +0.000 OA
ATOM     29  H   UNL     1      46.808   4.038   5.160  0.00  0.00    +0.000 HD
ATOM     30  H   UNL     1      48.086   3.164   4.323  0.00  0.00    +0.000 HD
ENDBRANCH  23  26
ENDBRANCH  18  20
ENDBRANCH  17  18
ENDBRANCH   1  17
TORSDOF 6
ENDMDL
MODEL 4
REMARK VINA RESULT:    -7.057      3.070      7.866
REMARK INTER + INTRA:         -10.814
REMARK INTER:                  -9.388
REMARK INTRA:                  -1.426
REMARK UNBOUND:                -1.282
REMARK  Name = 
REMARK  9 active torsions:
REMARK  status: ('A' for Active; 'I' for Inactive)
REMARK    1  A    between atoms: C_1  and  C_2
REMARK    2  A    between atoms: C_4  and  C_5
REMARK    3  A    between atoms: C_9  and  C_10
REMARK    4  A    between atoms: C_10  and  C_11
REMARK    5  A    between atoms: C_10  and  C_12
REMARK    6  A    between atoms: C_10  and  C_13
REMARK    7  A    between atoms: C_13  and  N_14
REMARK    8  A    between atoms: N_14  and  C_15
REMARK    9  A    between atoms: C_18  and  C_19
REMARK                            x       y       z     vdW  Elec       q    Type
REMARK                         _______ _______ _______ _____ _____    ______ ____
ROOT
ATOM      1  C   UNL     1      48.470   8.581  12.426  0.00  0.00    +0.000 C 
ATOM      2  C   UNL     1      49.278   7.398  11.834  0.00  0.00    +0.000 C 
ATOM      3  C   UNL     1      49.024   9.913  11.876  0.00  0.00    +0.000 C 
ENDROOT
BRANCH   1   8
ATOM      4  C   UNL     1      45.111   6.867  11.543  0.00  0.00    +0.000 A 
ATOM      5  C   UNL     1      44.253   7.974  11.492  0.00  0.00    +0.000 A 
ATOM      6  C   UNL     1      44.740   9.271  11.636  0.00  0.00    +0.000 A 
ATOM      7  C   UNL     1      46.094   9.489  11.888  0.00  0.00    +0.000 A 
ATOM      8  C   UNL     1      46.992   8.416  11.993  0.00  0.00    +0.000 A 
ATOM      9  C   UNL     1      46.480   7.125  11.758  0.00  0.00    +0.000 A 
BRANCH   4  13
ATOM     10  C   UNL     1      44.615   2.596   8.942  0.00  0.00    +0.000 C 
ATOM     11  C   UNL     1      44.371   3.415  10.173  0.00  0.00    +0.000 A 
ATOM     12  C   UNL     1      44.861   4.713  10.269  0.00  0.00    +0.000 A 
ATOM     13  C   UNL     1      44.605   5.484  11.418  0.00  0.00    +0.000 A 
ATOM     14  C   UNL     1      43.864   4.872  12.435  0.00  0.00    +0.000 A 
ATOM     15  C   UNL     1      43.425   3.570  12.266  0.00  0.00    +0.000 A 
ATOM     16  N   UNL     1      43.657   2.834  11.160  0.00  0.00    +0.000 NA
ENDBRANCH   4  13
ENDBRANCH   1   8
BRANCH   1  17
ATOM     17  C   UNL     1      48.623   8.541  13.976  0.00  0.00    +0.000 C 
BRANCH  17  18
ATOM     18  N   UNL     1      49.504   7.471  14.464  0.00  0.00    +0.000 N 
ATOM     19  H   UNL     1      50.358   7.824  14.890  0.00  0.00    +0.000 HD
BRANCH  18  20
ATOM     20  C   UNL     1      48.914   6.484  15.268  0.00  0.00    +0.000 A 
ATOM     21  C   UNL     1      47.883   5.652  14.820  0.00  0.00    +0.000 A 
ATOM     22  C   UNL     1      47.389   4.635  15.632  0.00  0.00    +0.000 A 
ATOM     23  C   UNL     1      47.965   4.452  16.878  0.00  0.00    +0.000 A 
ATOM     24  N   UNL     1      48.989   5.209  17.360  0.00  0.00    +0.000 NA
ATOM     25  C   UNL     1      49.437   6.185  16.533  0.00  0.00    +0.000 A 
BRANCH  23  26
ATOM     26  C   UNL     1      47.470   3.347  17.753  0.00  0.00    +0.000 C 
ATOM     27  N   UNL     1      48.260   3.053  18.832  0.00  0.00    +0.000 N 
ATOM     28  O   UNL     1      46.434   2.735  17.528  0.00  0.00    +0.000 OA
ATOM     29  H   UNL     1      49.127   3.563  18.967  0.00  0.00    +0.000 HD
ATOM     30  H   UNL     1      48.004   2.294  19.442  0.00  0.00    +0.000 HD
ENDBRANCH  23  26
ENDBRANCH  18  20
ENDBRANCH  17  18
ENDBRANCH   1  17
TORSDOF 6
ENDMDL
MODEL 5
REMARK VINA RESULT:    -6.908      1.638      2.300
REMARK INTER + INTRA:         -10.613
REMARK INTER:                  -9.431
REMARK INTRA:                  -1.182
REMARK UNBOUND:                -1.282
REMARK  Name = 
REMARK  9 active torsions:
REMARK  status: ('A' for Active; 'I' for Inactive)
REMARK    1  A    between atoms: C_1  and  C_2
REMARK    2  A    between atoms: C_4  and  C_5
REMARK    3  A    between atoms: C_9  and  C_10
REMARK    4  A    between atoms: C_10  and  C_11
REMARK    5  A    between atoms: C_10  and  C_12
REMARK    6  A    between atoms: C_10  and  C_13
REMARK    7  A    between atoms: C_13  and  N_14
REMARK    8  A    between atoms: N_14  and  C_15
REMARK    9  A    between atoms: C_18  and  C_19
REMARK                            x       y       z     vdW  Elec       q    Type
REMARK                         _______ _______ _______ _____ _____    ______ ____
ROOT
ATOM      1  C   UNL     1      44.120   6.063  11.855  0.00  0.00    +0.000 C 
ATOM      2  C   UNL     1      42.805   5.375  12.302  0.00  0.00    +0.000 C 
ATOM      3  C   UNL     1      44.106   7.543  12.294  0.00  0.00    +0.000 C 
ENDROOT
BRANCH   1   8
ATOM      4  C   UNL     1      47.349   5.513  13.923  0.00  0.00    +0.000 A 
ATOM      5  C   UNL     1      47.336   4.119  14.070  0.00  0.00    +0.000 A 
ATOM      6  C   UNL     1      46.371   3.336  13.439  0.00  0.00    +0.000 A 
ATOM      7  C   UNL     1      45.363   3.936  12.687  0.00  0.00    +0.000 A 
ATOM      8  C   UNL     1      45.300   5.330  12.541  0.00  0.00    +0.000 A 
ATOM      9  C   UNL     1      46.340   6.084  13.122  0.00  0.00    +0.000 A 
BRANCH   4  13
ATOM     10  C   UNL     1      49.820   6.897  18.074  0.00  0.00    +0.000 C 
ATOM     11  C   UNL     1      49.555   7.024  16.605  0.00  0.00    +0.000 A 
ATOM     12  C   UNL     1      48.610   6.214  15.982  0.00  0.00    +0.000 A 
ATOM     13  C   UNL     1      48.350   6.358  14.606  0.00  0.00    +0.000 A 
ATOM     14  C   UNL     1      49.095   7.325  13.923  0.00  0.00    +0.000 A 
ATOM     15  C   UNL     1      50.026   8.081  14.613  0.00  0.00    +0.000 A 
ATOM     16  N   UNL     1      50.268   7.954  15.934  0.00  0.00    +0.000 NA
ENDBRANCH   4  13
ENDBRANCH   1   8
BRANCH   1  17
ATOM     17  C   UNL     1      44.209   5.969  10.302  0.00  0.00    +0.000 C 
BRANCH  17  18
ATOM     18  N   UNL     1      43.681   4.716   9.746  0.00  0.00    +0.000 N 
ATOM     19  H   UNL     1      42.881   4.859   9.135  0.00  0.00    +0.000 HD
BRANCH  18  20
ATOM     20  C   UNL     1      44.610   3.845   9.158  0.00  0.00    +0.000 A 
ATOM     21  C   UNL     1      44.646   2.473   9.427  0.00  0.00    +0.000 A 
ATOM     22  C   UNL     1      45.536   1.640   8.753  0.00  0.00    +0.000 A 
ATOM     23  C   UNL     1      46.361   2.202   7.794  0.00  0.00    +0.000 A 
ATOM     24  N   UNL     1      46.355   3.523   7.467  0.00  0.00    +0.000 NA
ATOM     25  C   UNL     1      45.470   4.293   8.147  0.00  0.00    +0.000 A 
BRANCH  23  26
ATOM     26  C   UNL     1      47.303   1.322   7.038  0.00  0.00    +0.000 C 
ATOM     27  N   UNL     1      48.504   1.889   6.711  0.00  0.00    +0.000 N 
ATOM     28  O   UNL     1      47.026   0.171   6.722  0.00  0.00    +0.000 OA
ATOM     29  H   UNL     1      48.683   2.856   6.965  0.00  0.00    +0.000 HD
ATOM     30  H   UNL     1      49.170   1.363   6.170  0.00  0.00    +0.000 HD
ENDBRANCH  23  26
ENDBRANCH  18  20
ENDBRANCH  17  18
ENDBRANCH   1  17
TORSDOF 6
ENDMDL
MODEL 6
REMARK VINA RESULT:    -6.216      3.190      5.439
REMARK INTER + INTRA:          -9.678
REMARK INTER:                  -8.264
REMARK INTRA:                  -1.413
REMARK UNBOUND:                -1.282
REMARK  Name = 
REMARK  9 active torsions:
REMARK  status: ('A' for Active; 'I' for Inactive)
REMARK    1  A    between atoms: C_1  and  C_2
REMARK    2  A    between atoms: C_4  and  C_5
REMARK    3  A    between atoms: C_9  and  C_10
REMARK    4  A    between atoms: C_10  and  C_11
REMARK    5  A    between atoms: C_10  and  C_12
REMARK    6  A    between atoms: C_10  and  C_13
REMARK    7  A    between atoms: C_13  and  N_14
REMARK    8  A    between atoms: N_14  and  C_15
REMARK    9  A    between atoms: C_18  and  C_19
REMARK                            x       y       z     vdW  Elec       q    Type
REMARK                         _______ _______ _______ _____ _____    ______ ____
ROOT
ATOM      1  C   UNL     1      49.130   8.883  13.246  0.00  0.00    +0.000 C 
ATOM      2  C   UNL     1      48.535  10.293  12.998  0.00  0.00    +0.000 C 
ATOM      3  C   UNL     1      50.662   8.927  13.056  0.00  0.00    +0.000 C 
ENDROOT
BRANCH   1   8
ATOM      4  C   UNL     1      48.791   6.684  16.416  0.00  0.00    +0.000 A 
ATOM      5  C   UNL     1      48.517   7.657  17.387  0.00  0.00    +0.000 A 
ATOM      6  C   UNL     1      48.340   8.994  17.038  0.00  0.00    +0.000 A 
ATOM      7  C   UNL     1      48.484   9.398  15.711  0.00  0.00    +0.000 A 
ATOM      8  C   UNL     1      48.801   8.475  14.704  0.00  0.00    +0.000 A 
ATOM      9  C   UNL     1      48.890   7.119  15.080  0.00  0.00    +0.000 A 
BRANCH   4  13
ATOM     10  C   UNL     1      51.793   2.958  17.955  0.00  0.00    +0.000 C 
ATOM     11  C   UNL     1      50.449   3.465  17.529  0.00  0.00    +0.000 A 
ATOM     12  C   UNL     1      50.268   4.805  17.199  0.00  0.00    +0.000 A 
ATOM     13  C   UNL     1      49.008   5.267  16.775  0.00  0.00    +0.000 A 
ATOM     14  C   UNL     1      47.976   4.324  16.727  0.00  0.00    +0.000 A 
ATOM     15  C   UNL     1      48.235   3.012  17.085  0.00  0.00    +0.000 A 
ATOM     16  N   UNL     1      49.445   2.564  17.478  0.00  0.00    +0.000 NA
ENDBRANCH   4  13
ENDBRANCH   1   8
BRANCH   1  17
ATOM     17  C   UNL     1      48.494   7.903  12.216  0.00  0.00    +0.000 C 
BRANCH  17  18
ATOM     18  N   UNL     1      47.024   7.906  12.216  0.00  0.00    +0.000 N 
ATOM     19  H   UNL     1      46.629   8.549  11.534  0.00  0.00    +0.000 HD
BRANCH  18  20
ATOM     20  C   UNL     1      46.391   6.656  12.150  0.00  0.00    +0.000 A 
ATOM     21  C   UNL     1      46.216   5.830  13.266  0.00  0.00    +0.000 A 
ATOM     22  C   UNL     1      45.508   4.636  13.161  0.00  0.00    +0.000 A 
ATOM     23  C   UNL     1      44.958   4.305  11.934  0.00  0.00    +0.000 A 
ATOM     24  N   UNL     1      45.068   5.079  10.819  0.00  0.00    +0.000 NA
ATOM     25  C   UNL     1      45.764   6.232  10.971  0.00  0.00    +0.000 A 
BRANCH  23  26
ATOM     26  C   UNL     1      44.168   3.043  11.807  0.00  0.00    +0.000 C 
ATOM     27  N   UNL     1      44.177   2.467  10.565  0.00  0.00    +0.000 N 
ATOM     28  O   UNL     1      43.548   2.552  12.741  0.00  0.00    +0.000 OA
ATOM     29  H   UNL     1      44.679   2.922   9.810  0.00  0.00    +0.000 HD
ATOM     30  H   UNL     1      43.634   1.635  10.401  0.00  0.00    +0.000 HD
ENDBRANCH  23  26
ENDBRANCH  18  20
ENDBRANCH  17  18
ENDBRANCH   1  17
TORSDOF 6
ENDMDL
MODEL 7
REMARK VINA RESULT:    -6.034      3.663      8.887
REMARK INTER + INTRA:          -9.432
REMARK INTER:                  -8.558
REMARK INTRA:                  -0.873
REMARK UNBOUND:                -1.282
REMARK  Name = 
REMARK  9 active torsions:
REMARK  status: ('A' for Active; 'I' for Inactive)
REMARK    1  A    between atoms: C_1  and  C_2
REMARK    2  A    between atoms: C_4  and  C_5
REMARK    3  A    between atoms: C_9  and  C_10
REMARK    4  A    between atoms: C_10  and  C_11
REMARK    5  A    between atoms: C_10  and  C_12
REMARK    6  A    between atoms: C_10  and  C_13
REMARK    7  A    between atoms: C_13  and  N_14
REMARK    8  A    between atoms: N_14  and  C_15
REMARK    9  A    between atoms: C_18  and  C_19
REMARK                            x       y       z     vdW  Elec       q    Type
REMARK                         _______ _______ _______ _____ _____    ______ ____
ROOT
ATOM      1  C   UNL     1      49.034   8.248  12.909  0.00  0.00    +0.000 C 
ATOM      2  C   UNL     1      49.979   7.916  11.726  0.00  0.00    +0.000 C 
ATOM      3  C   UNL     1      49.349   9.663  13.442  0.00  0.00    +0.000 C 
ENDROOT
BRANCH   1   8
ATOM      4  C   UNL     1      45.769   6.853  11.361  0.00  0.00    +0.000 A 
ATOM      5  C   UNL     1      44.873   7.892  11.651  0.00  0.00    +0.000 A 
ATOM      6  C   UNL     1      45.308   9.075  12.244  0.00  0.00    +0.000 A 
ATOM      7  C   UNL     1      46.644   9.227  12.610  0.00  0.00    +0.000 A 
ATOM      8  C   UNL     1      47.578   8.204  12.385  0.00  0.00    +0.000 A 
ATOM      9  C   UNL     1      47.120   7.056  11.707  0.00  0.00    +0.000 A 
BRANCH   4  13
ATOM     10  C   UNL     1      43.330   2.471  11.672  0.00  0.00    +0.000 C 
ATOM     11  C   UNL     1      44.132   3.470  10.896  0.00  0.00    +0.000 A 
ATOM     12  C   UNL     1      44.543   4.661  11.485  0.00  0.00    +0.000 A 
ATOM     13  C   UNL     1      45.318   5.583  10.757  0.00  0.00    +0.000 A 
ATOM     14  C   UNL     1      45.623   5.241   9.435  0.00  0.00    +0.000 A 
ATOM     15  C   UNL     1      45.164   4.042   8.918  0.00  0.00    +0.000 A 
ATOM     16  N   UNL     1      44.433   3.152   9.619  0.00  0.00    +0.000 NA
ENDBRANCH   4  13
ENDBRANCH   1   8
BRANCH   1  17
ATOM     17  C   UNL     1      49.275   7.192  14.029  0.00  0.00    +0.000 C 
BRANCH  17  18
ATOM     18  N   UNL     1      49.639   7.771  15.330  0.00  0.00    +0.000 N 
ATOM     19  H   UNL     1      49.347   8.740  15.429  0.00  0.00    +0.000 HD
BRANCH  18  20
ATOM     20  C   UNL     1      49.300   7.027  16.470  0.00  0.00    +0.000 A 
ATOM     21  C   UNL     1      49.719   5.708  16.673  0.00  0.00    +0.000 A 
ATOM     22  C   UNL     1      49.422   5.043  17.859  0.00  0.00    +0.000 A 
ATOM     23  C   UNL     1      48.728   5.730  18.840  0.00  0.00    +0.000 A 
ATOM     24  N   UNL     1      48.316   7.022  18.715  0.00  0.00    +0.000 NA
ATOM     25  C   UNL     1      48.631   7.628  17.544  0.00  0.00    +0.000 A 
BRANCH  23  26
ATOM     26  C   UNL     1      48.424   5.046  20.133  0.00  0.00    +0.000 C 
ATOM     27  N   UNL     1      48.550   3.683  20.121  0.00  0.00    +0.000 N 
ATOM     28  O   UNL     1      48.078   5.653  21.139  0.00  0.00    +0.000 OA
ATOM     29  H   UNL     1      48.810   3.216  19.258  0.00  0.00    +0.000 HD
ATOM     30  H   UNL     1      48.325   3.157  20.949  0.00  0.00    +0.000 HD
ENDBRANCH  23  26
ENDBRANCH  18  20
ENDBRANCH  17  18
ENDBRANCH   1  17
TORSDOF 6
ENDMDL
MODEL 8
REMARK VINA RESULT:    -5.632      3.686      6.419
REMARK INTER + INTRA:          -8.890
REMARK INTER:                  -7.843
REMARK INTRA:                  -1.047
REMARK UNBOUND:                -1.282
REMARK  Name = 
REMARK  9 active torsions:
REMARK  status: ('A' for Active; 'I' for Inactive)
REMARK    1  A    between atoms: C_1  and  C_2
REMARK    2  A    between atoms: C_4  and  C_5
REMARK    3  A    between atoms: C_9  and  C_10
REMARK    4  A    between atoms: C_10  and  C_11
REMARK    5  A    between atoms: C_10  and  C_12
REMARK    6  A    between atoms: C_10  and  C_13
REMARK    7  A    between atoms: C_13  and  N_14
REMARK    8  A    between atoms: N_14  and  C_15
REMARK    9  A    between atoms: C_18  and  C_19
REMARK                            x       y       z     vdW  Elec       q    Type
REMARK                         _______ _______ _______ _____ _____    ______ ____
ROOT
ATOM      1  C   UNL     1      49.093   9.211  15.579  0.00  0.00    +0.000 C 
ATOM      2  C   UNL     1      48.987  10.655  16.134  0.00  0.00    +0.000 C 
ATOM      3  C   UNL     1      50.379   9.074  14.735  0.00  0.00    +0.000 C 
ENDROOT
BRANCH   1   8
ATOM      4  C   UNL     1      49.349   5.896  17.564  0.00  0.00    +0.000 A 
ATOM      5  C   UNL     1      49.565   6.379  18.862  0.00  0.00    +0.000 A 
ATOM      6  C   UNL     1      49.533   7.744  19.138  0.00  0.00    +0.000 A 
ATOM      7  C   UNL     1      49.335   8.664  18.109  0.00  0.00    +0.000 A 
ATOM      8  C   UNL     1      49.157   8.240  16.783  0.00  0.00    +0.000 A 
ATOM      9  C   UNL     1      49.111   6.850  16.555  0.00  0.00    +0.000 A 
BRANCH   4  13
ATOM     10  C   UNL     1      51.812   1.516  17.505  0.00  0.00    +0.000 C 
ATOM     11  C   UNL     1      50.586   2.331  17.231  0.00  0.00    +0.000 A 
ATOM     12  C   UNL     1      50.554   3.688  17.537  0.00  0.00    +0.000 A 
ATOM     13  C   UNL     1      49.407   4.452  17.252  0.00  0.00    +0.000 A 
ATOM     14  C   UNL     1      48.326   3.775  16.678  0.00  0.00    +0.000 A 
ATOM     15  C   UNL     1      48.433   2.420  16.417  0.00  0.00    +0.000 A 
ATOM     16  N   UNL     1      49.536   1.688  16.676  0.00  0.00    +0.000 NA
ENDBRANCH   4  13
ENDBRANCH   1   8
BRANCH   1  17
ATOM     17  C   UNL     1      47.842   8.944  14.690  0.00  0.00    +0.000 C 
BRANCH  17  18
ATOM     18  N   UNL     1      48.126   8.166  13.475  0.00  0.00    +0.000 N 
ATOM     19  H   UNL     1      48.926   7.547  13.578  0.00  0.00    +0.000 HD
BRANCH  18  20
ATOM     20  C   UNL     1      47.043   7.493  12.890  0.00  0.00    +0.000 A 
ATOM     21  C   UNL     1      46.980   6.100  12.782  0.00  0.00    +0.000 A 
ATOM     22  C   UNL     1      45.846   5.478  12.266  0.00  0.00    +0.000 A 
ATOM     23  C   UNL     1      44.776   6.273  11.892  0.00  0.00    +0.000 A 
ATOM     24  N   UNL     1      44.765   7.630  11.997  0.00  0.00    +0.000 NA
ATOM     25  C   UNL     1      45.890   8.189  12.507  0.00  0.00    +0.000 A 
BRANCH  23  26
ATOM     26  C   UNL     1      43.538   5.625  11.364  0.00  0.00    +0.000 C 
ATOM     27  N   UNL     1      43.652   5.060  10.122  0.00  0.00    +0.000 N 
ATOM     28  O   UNL     1      42.485   5.600  11.988  0.00  0.00    +0.000 OA
ATOM     29  H   UNL     1      44.534   5.130   9.625  0.00  0.00    +0.000 HD
ATOM     30  H   UNL     1      42.845   4.640   9.692  0.00  0.00    +0.000 HD
ENDBRANCH  23  26
ENDBRANCH  18  20
ENDBRANCH  17  18
ENDBRANCH   1  17
TORSDOF 6
ENDMDL
