MODEL 1
REMARK VINA RESULT:    -7.923      0.000      0.000
REMARK INTER + INTRA:         -10.466
REMARK INTER:                  -9.776
REMARK INTRA:                  -0.690
REMARK UNBOUND:                -0.690
REMARK  Name = 
REMARK  4 active torsions:
REMARK  status: ('A' for Active; 'I' for Inactive)
REMARK    1  A    between atoms: C_2  and  C_4
REMARK    2  A    between atoms: C_7  and  N_8
REMARK    3  A    between atoms: N_8  and  C_9
REMARK    4  A    between atoms: C_9  and  C_10
REMARK                            x       y       z     vdW  Elec       q    Type
REMARK                         _______ _______ _______ _____ _____    ______ ____
ROOT
ATOM      1  C   UNL     1      46.238   2.152   7.907  0.00  0.00    +0.000 A 
ATOM      2  C   UNL     1      45.252   1.736   8.806  0.00  0.00    +0.000 A 
ATOM      3  C   UNL     1      44.422   2.681   9.422  0.00  0.00    +0.000 A 
ATOM      4  C   UNL     1      44.564   4.048   9.159  0.00  0.00    +0.000 A 
ATOM      5  C   UNL     1      45.511   4.445   8.209  0.00  0.00    +0.000 A 
ATOM      6  C   UNL     1      46.358   3.511   7.601  0.00  0.00    +0.000 A 
ENDROOT
BRANCH   1   8
ATOM      7  N   UNL     1      48.298   1.729   6.670  0.00  0.00    +0.000 N 
ATOM      8  C   UNL     1      47.213   1.202   7.312  0.00  0.00    +0.000 C 
ATOM      9  O   UNL     1      47.069  -0.010   7.404  0.00  0.00    +0.000 OA
ATOM     10  H   UNL     1      48.987   1.067   6.339  0.00  0.00    +0.000 HD
ATOM     11  H   UNL     1      48.581   2.693   6.774  0.00  0.00    +0.000 HD
ENDBRANCH   1   8
BRANCH   4  12
ATOM     12  N   UNL     1      43.848   5.043   9.822  0.00  0.00    +0.000 N 
ATOM     13  H   UNL     1      42.965   5.266   9.370  0.00  0.00    +0.000 HD
BRANCH  12  14
ATOM     14  C   UNL     1      43.788   5.043  11.274  0.00  0.00    +0.000 C 
BRANCH  14  15
ATOM     15  C   UNL     1      45.147   5.373  11.847  0.00  0.00    +0.000 A 
ATOM     16  C   UNL     1      45.881   6.469  11.368  0.00  0.00    +0.000 A 
ATOM     17  C   UNL     1      47.093   6.820  11.965  0.00  0.00    +0.000 A 
ATOM     18  C   UNL     1      47.572   6.078  13.040  0.00  0.00    +0.000 A 
ATOM     19  F   UNL     1      48.725   6.431  13.622  0.00  0.00    +0.000 F 
ATOM     20  C   UNL     1      46.869   4.983  13.523  0.00  0.00    +0.000 A 
ATOM     21  C   UNL     1      45.658   4.631  12.928  0.00  0.00    +0.000 A 
ENDBRANCH  14  15
ENDBRANCH  12  14
ENDBRANCH   4  12
TORSDOF 4
ENDMDL
MODEL 2
REMARK VINA RESULT:    -7.660      3.566      6.342
REMARK INTER + INTRA:         -10.142
REMARK INTER:                  -9.609
REMARK INTRA:                  -0.533
REMARK UNBOUND:                -0.690
REMARK  Name = 
REMARK  4 active torsions:
REMARK  status: ('A' for Active; 'I' for Inactive)
REMARK    1  A    between atoms: C_2  and  C_4
REMARK    2  A    between atoms: C_7  and  N_8
REMARK    3  A    between atoms: N_8  and  C_9
REMARK    4  A    between atoms: C_9  and  C_10
REMARK                            x       y       z     vdW  Elec       q    Type
REMARK                         _______ _______ _______ _____ _____    ______ ____
ROOT
ATOM      1  C   UNL     1      46.515   5.088  13.113  0.00  0.00    +0.000 A 
ATOM      2  C   UNL     1      46.187   5.965  12.076  0.00  0.00    +0.000 A 
ATOM      3  C   UNL     1      45.383   5.529  11.017  0.00  0.00    +0.000 A 
ATOM      4  C   UNL     1      44.900   4.215  10.969  0.00  0.00    +0.000 A 
ATOM      5  C   UNL     1      45.183   3.367  12.044  0.00  0.00    +0.000 A 
ATOM      6  C   UNL     1      46.001   3.788  13.099  0.00  0.00    +0.000 A 
ENDROOT
BRANCH   1   8
ATOM      7  N   UNL     1      47.123   5.104  15.476  0.00  0.00    +0.000 N 
ATOM      8  C   UNL     1      47.453   5.469  14.200  0.00  0.00    +0.000 C 
ATOM      9  O   UNL     1      48.493   6.071  13.972  0.00  0.00    +0.000 OA
ATOM     10  H   UNL     1      47.810   5.306  16.190  0.00  0.00    +0.000 HD
ATOM     11  H   UNL     1      46.416   4.414  15.682  0.00  0.00    +0.000 HD
ENDBRANCH   1   8
BRANCH   4  12
ATOM     12  N   UNL     1      44.193   3.689   9.890  0.00  0.00    +0.000 N 
ATOM     13  H   UNL     1      44.071   4.355   9.131  0.00  0.00    +0.000 HD
BRANCH  12  14
ATOM     14  C   UNL     1      44.452   2.329   9.450  0.00  0.00    +0.000 C 
BRANCH  14  15
ATOM     15  C   UNL     1      45.515   2.328   8.375  0.00  0.00    +0.000 A 
ATOM     16  C   UNL     1      46.250   1.167   8.093  0.00  0.00    +0.000 A 
ATOM     17  C   UNL     1      47.164   1.151   7.039  0.00  0.00    +0.000 A 
ATOM     18  C   UNL     1      47.344   2.293   6.265  0.00  0.00    +0.000 A 
ATOM     19  F   UNL     1      48.208   2.265   5.241  0.00  0.00    +0.000 F 
ATOM     20  C   UNL     1      46.637   3.456   6.532  0.00  0.00    +0.000 A 
ATOM     21  C   UNL     1      45.723   3.475   7.585  0.00  0.00    +0.000 A 
ENDBRANCH  14  15
ENDBRANCH  12  14
ENDBRANCH   4  12
TORSDOF 4
ENDMDL
MODEL 3
REMARK VINA RESULT:    -7.366      3.545      6.062
REMARK INTER + INTRA:          -9.779
REMARK INTER:                  -9.258
REMARK INTRA:                  -0.521
REMARK UNBOUND:                -0.690
REMARK  Name = 
REMARK  4 active torsions:
REMARK  status: ('A' for Active; 'I' for Inactive)
REMARK    1  A    between atoms: C_2  and  C_4
REMARK    2  A    between atoms: C_7  and  N_8
REMARK    3  A    between atoms: N_8  and  C_9
REMARK    4  A    between atoms: C_9  and  C_10
REMARK                            x       y       z     vdW  Elec       q    Type
REMARK                         _______ _______ _______ _____ _____    ______ ____
ROOT
ATOM      1  C   UNL     1      46.681   4.681  13.832  0.00  0.00    +0.000 A 
ATOM      2  C   UNL     1      45.951   3.630  13.269  0.00  0.00    +0.000 A 
ATOM      3  C   UNL     1      45.352   3.787  12.013  0.00  0.00    +0.000 A 
ATOM      4  C   UNL     1      45.466   4.988  11.304  0.00  0.00    +0.000 A 
ATOM      5  C   UNL     1      46.252   6.008  11.849  0.00  0.00    +0.000 A 
ATOM      6  C   UNL     1      46.839   5.868  13.112  0.00  0.00    +0.000 A 
ENDROOT
BRANCH   1   8
ATOM      7  N   UNL     1      47.915   5.695  15.676  0.00  0.00    +0.000 N 
ATOM      8  C   UNL     1      47.241   4.603  15.206  0.00  0.00    +0.000 C 
ATOM      9  O   UNL     1      47.094   3.610  15.906  0.00  0.00    +0.000 OA
ATOM     10  H   UNL     1      48.221   5.650  16.639  0.00  0.00    +0.000 HD
ATOM     11  H   UNL     1      47.856   6.604  15.241  0.00  0.00    +0.000 HD
ENDBRANCH   1   8
BRANCH   4  12
ATOM     12  N   UNL     1      44.802   5.245  10.106  0.00  0.00    +0.000 N 
ATOM     13  H   UNL     1      45.310   5.884   9.499  0.00  0.00    +0.000 HD
BRANCH  12  14
ATOM     14  C   UNL     1      44.135   4.163   9.402  0.00  0.00    +0.000 C 
BRANCH  14  15
ATOM     15  C   UNL     1      45.139   3.382   8.586  0.00  0.00    +0.000 A 
ATOM     16  C   UNL     1      45.986   4.032   7.676  0.00  0.00    +0.000 A 
ATOM     17  C   UNL     1      46.971   3.315   6.994  0.00  0.00    +0.000 A 
ATOM     18  C   UNL     1      47.111   1.950   7.221  0.00  0.00    +0.000 A 
ATOM     19  F   UNL     1      48.072   1.271   6.580  0.00  0.00    +0.000 F 
ATOM     20  C   UNL     1      46.279   1.283   8.108  0.00  0.00    +0.000 A 
ATOM     21  C   UNL     1      45.294   1.997   8.791  0.00  0.00    +0.000 A 
ENDBRANCH  14  15
ENDBRANCH  12  14
ENDBRANCH   4  12
TORSDOF 4
ENDMDL
MODEL 4
REMARK VINA RESULT:    -6.349      3.794      6.455
REMARK INTER + INTRA:          -8.524
REMARK INTER:                  -8.011
REMARK INTRA:                  -0.513
REMARK UNBOUND:                -0.690
REMARK  Name = 
REMARK  4 active torsions:
REMARK  status: ('A' for Active; 'I' for Inactive)
REMARK    1  A    between atoms: C_2  and  C_4
REMARK    2  A    between atoms: C_7  and  N_8
REMARK    3  A    between atoms: N_8  and  C_9
REMARK    4  A    between atoms: C_9  and  C_10
REMARK                            x       y       z     vdW  Elec       q    Type
REMARK                         _______ _______ _______ _____ _____    ______ ____
ROOT
ATOM      1  C   UNL     1      47.719   6.673  13.689  0.00  0.00    +0.000 A 
ATOM      2  C   UNL     1      47.506   7.697  12.762  0.00  0.00    +0.000 A 
ATOM      3  C   UNL     1      46.597   7.515  11.713  0.00  0.00    +0.000 A 
ATOM      4  C   UNL     1      45.893   6.313  11.567  0.00  0.00    +0.000 A 
ATOM      5  C   UNL     1      46.068   5.322  12.538  0.00  0.00    +0.000 A 
ATOM      6  C   UNL     1      46.988   5.487  13.579  0.00  0.00    +0.000 A 
ENDROOT
BRANCH   1   8
ATOM      7  N   UNL     1      49.473   7.935  14.823  0.00  0.00    +0.000 N 
ATOM      8  C   UNL     1      48.751   6.776  14.753  0.00  0.00    +0.000 C 
ATOM      9  O   UNL     1      48.944   5.870  15.553  0.00  0.00    +0.000 OA
ATOM     10  H   UNL     1      50.115   8.015  15.600  0.00  0.00    +0.000 HD
ATOM     11  H   UNL     1      49.193   8.783  14.352  0.00  0.00    +0.000 HD
ENDBRANCH   1   8
BRANCH   4  12
ATOM     12  N   UNL     1      45.063   6.029  10.485  0.00  0.00    +0.000 N 
ATOM     13  H   UNL     1      45.442   6.350   9.597  0.00  0.00    +0.000 HD
BRANCH  12  14
ATOM     14  C   UNL     1      44.386   4.746  10.411  0.00  0.00    +0.000 C 
BRANCH  14  15
ATOM     15  C   UNL     1      45.048   3.872   9.371  0.00  0.00    +0.000 A 
ATOM     16  C   UNL     1      45.774   4.439   8.314  0.00  0.00    +0.000 A 
ATOM     17  C   UNL     1      46.457   3.624   7.410  0.00  0.00    +0.000 A 
ATOM     18  C   UNL     1      46.415   2.241   7.562  0.00  0.00    +0.000 A 
ATOM     19  F   UNL     1      47.089   1.464   6.704  0.00  0.00    +0.000 F 
ATOM     20  C   UNL     1      45.694   1.657   8.593  0.00  0.00    +0.000 A 
ATOM     21  C   UNL     1      45.011   2.470   9.497  0.00  0.00    +0.000 A 
ENDBRANCH  14  15
ENDBRANCH  12  14
ENDBRANCH   4  12
TORSDOF 4
ENDMDL
MODEL 5
REMARK VINA RESULT:    -5.896      4.048      5.948
REMARK INTER + INTRA:          -7.964
REMARK INTER:                  -7.552
REMARK INTRA:                  -0.413
REMARK UNBOUND:                -0.690
REMARK  Name = 
REMARK  4 active torsions:
REMARK  status: ('A' for Active; 'I' for Inactive)
REMARK    1  A    between atoms: C_2  and  C_4
REMARK    2  A    between atoms: C_7  and  N_8
REMARK    3  A    between atoms: N_8  and  C_9
REMARK    4  A    between atoms: C_9  and  C_10
REMARK                            x       y       z     vdW  Elec       q    Type
REMARK                         _______ _______ _______ _____ _____    ______ ____
ROOT
ATOM      1  C   UNL     1      45.036   4.275  11.743  0.00  0.00    +0.000 A 
ATOM      2  C   UNL     1      45.218   5.602  12.141  0.00  0.00    +0.000 A 
ATOM      3  C   UNL     1      45.998   5.897  13.266  0.00  0.00    +0.000 A 
ATOM      4  C   UNL     1      46.601   4.878  14.013  0.00  0.00    +0.000 A 
ATOM      5  C   UNL     1      46.464   3.559  13.568  0.00  0.00    +0.000 A 
ATOM      6  C   UNL     1      45.671   3.254  12.455  0.00  0.00    +0.000 A 
ENDROOT
BRANCH   1   8
ATOM      7  N   UNL     1      43.931   4.832   9.641  0.00  0.00    +0.000 N 
ATOM      8  C   UNL     1      44.131   3.905  10.625  0.00  0.00    +0.000 C 
ATOM      9  O   UNL     1      43.594   2.807  10.568  0.00  0.00    +0.000 OA
ATOM     10  H   UNL     1      43.374   4.533   8.852  0.00  0.00    +0.000 HD
ATOM     11  H   UNL     1      44.525   5.639   9.520  0.00  0.00    +0.000 HD
ENDBRANCH   1   8
BRANCH   4  12
ATOM     12  N   UNL     1      47.292   5.097  15.203  0.00  0.00    +0.000 N 
ATOM     13  H   UNL     1      47.281   6.071  15.497  0.00  0.00    +0.000 HD
BRANCH  12  14
ATOM     14  C   UNL     1      47.168   4.147  16.296  0.00  0.00    +0.000 C 
BRANCH  14  15
ATOM     15  C   UNL     1      48.538   3.770  16.810  0.00  0.00    +0.000 A 
ATOM     16  C   UNL     1      48.968   2.435  16.796  0.00  0.00    +0.000 A 
ATOM     17  C   UNL     1      50.268   2.108  17.188  0.00  0.00    +0.000 A 
ATOM     18  C   UNL     1      51.138   3.115  17.594  0.00  0.00    +0.000 A 
ATOM     19  F   UNL     1      52.391   2.799  17.949  0.00  0.00    +0.000 F 
ATOM     20  C   UNL     1      50.732   4.441  17.627  0.00  0.00    +0.000 A 
ATOM     21  C   UNL     1      49.434   4.769  17.236  0.00  0.00    +0.000 A 
ENDBRANCH  14  15
ENDBRANCH  12  14
ENDBRANCH   4  12
TORSDOF 4
ENDMDL
MODEL 6
REMARK VINA RESULT:    -5.440      3.824      5.434
REMARK INTER + INTRA:          -7.402
REMARK INTER:                  -7.083
REMARK INTRA:                  -0.319
REMARK UNBOUND:                -0.690
REMARK  Name = 
REMARK  4 active torsions:
REMARK  status: ('A' for Active; 'I' for Inactive)
REMARK    1  A    between atoms: C_2  and  C_4
REMARK    2  A    between atoms: C_7  and  N_8
REMARK    3  A    between atoms: N_8  and  C_9
REMARK    4  A    between atoms: C_9  and  C_10
REMARK                            x       y       z     vdW  Elec       q    Type
REMARK                         _______ _______ _______ _____ _____    ______ ____
ROOT
ATOM      1  C   UNL     1      45.406   4.847  10.703  0.00  0.00    +0.000 A 
ATOM      2  C   UNL     1      45.251   3.747  11.551  0.00  0.00    +0.000 A 
ATOM      3  C   UNL     1      45.658   3.830  12.888  0.00  0.00    +0.000 A 
ATOM      4  C   UNL     1      46.228   5.003  13.399  0.00  0.00    +0.000 A 
ATOM      5  C   UNL     1      46.317   6.116  12.557  0.00  0.00    +0.000 A 
ATOM      6  C   UNL     1      45.931   6.037  11.214  0.00  0.00    +0.000 A 
ENDROOT
BRANCH   1   8
ATOM      7  N   UNL     1      43.838   4.361   8.898  0.00  0.00    +0.000 N 
ATOM      8  C   UNL     1      45.092   4.773   9.253  0.00  0.00    +0.000 C 
ATOM      9  O   UNL     1      45.912   5.085   8.400  0.00  0.00    +0.000 OA
ATOM     10  H   UNL     1      43.621   4.391   7.910  0.00  0.00    +0.000 HD
ATOM     11  H   UNL     1      43.068   4.326   9.550  0.00  0.00    +0.000 HD
ENDBRANCH   1   8
BRANCH   4  12
ATOM     12  N   UNL     1      46.754   5.112  14.684  0.00  0.00    +0.000 N 
ATOM     13  H   UNL     1      46.278   5.809  15.251  0.00  0.00    +0.000 HD
BRANCH  12  14
ATOM     14  C   UNL     1      47.135   3.914  15.413  0.00  0.00    +0.000 C 
BRANCH  14  15
ATOM     15  C   UNL     1      47.783   4.292  16.725  0.00  0.00    +0.000 A 
ATOM     16  C   UNL     1      47.931   3.347  17.751  0.00  0.00    +0.000 A 
ATOM     17  C   UNL     1      48.612   3.680  18.923  0.00  0.00    +0.000 A 
ATOM     18  C   UNL     1      49.145   4.956  19.071  0.00  0.00    +0.000 A 
ATOM     19  F   UNL     1      49.816   5.264  20.189  0.00  0.00    +0.000 F 
ATOM     20  C   UNL     1      49.002   5.911  18.074  0.00  0.00    +0.000 A 
ATOM     21  C   UNL     1      48.322   5.580  16.902  0.00  0.00    +0.000 A 
ENDBRANCH  14  15
ENDBRANCH  12  14
ENDBRANCH   4  12
TORSDOF 4
ENDMDL
MODEL 7
REMARK VINA RESULT:    -5.435      3.496      5.146
REMARK INTER + INTRA:          -7.396
REMARK INTER:                  -6.985
REMARK INTRA:                  -0.411
REMARK UNBOUND:                -0.690
REMARK  Name = 
REMARK  4 active torsions:
REMARK  status: ('A' for Active; 'I' for Inactive)
REMARK    1  A    between atoms: C_2  and  C_4
REMARK    2  A    between atoms: C_7  and  N_8
REMARK    3  A    between atoms: N_8  and  C_9
REMARK    4  A    between atoms: C_9  and  C_10
REMARK                            x       y       z     vdW  Elec       q    Type
REMARK                         _______ _______ _______ _____ _____    ______ ____
ROOT
ATOM      1  C   UNL     1      45.037   4.159  10.869  0.00  0.00    +0.000 A 
ATOM      2  C   UNL     1      45.372   5.515  10.824  0.00  0.00    +0.000 A 
ATOM      3  C   UNL     1      45.968   6.127  11.934  0.00  0.00    +0.000 A 
ATOM      4  C   UNL     1      46.232   5.403  13.102  0.00  0.00    +0.000 A 
ATOM      5  C   UNL     1      45.951   4.033  13.110  0.00  0.00    +0.000 A 
ATOM      6  C   UNL     1      45.338   3.416  12.013  0.00  0.00    +0.000 A 
ENDROOT
BRANCH   1   8
ATOM      7  N   UNL     1      44.142   4.193   8.599  0.00  0.00    +0.000 N 
ATOM      8  C   UNL     1      44.305   3.492   9.761  0.00  0.00    +0.000 C 
ATOM      9  O   UNL     1      43.876   2.351   9.868  0.00  0.00    +0.000 OA
ATOM     10  H   UNL     1      43.709   3.695   7.833  0.00  0.00    +0.000 HD
ATOM     11  H   UNL     1      44.674   5.024   8.382  0.00  0.00    +0.000 HD
ENDBRANCH   1   8
BRANCH   4  12
ATOM     12  N   UNL     1      46.718   5.977  14.276  0.00  0.00    +0.000 N 
ATOM     13  H   UNL     1      46.093   5.850  15.068  0.00  0.00    +0.000 HD
BRANCH  12  14
ATOM     14  C   UNL     1      48.128   5.862  14.607  0.00  0.00    +0.000 C 
BRANCH  14  15
ATOM     15  C   UNL     1      48.288   5.234  15.971  0.00  0.00    +0.000 A 
ATOM     16  C   UNL     1      49.230   5.730  16.884  0.00  0.00    +0.000 A 
ATOM     17  C   UNL     1      49.309   5.202  18.174  0.00  0.00    +0.000 A 
ATOM     18  C   UNL     1      48.446   4.179  18.553  0.00  0.00    +0.000 A 
ATOM     19  F   UNL     1      48.511   3.689  19.798  0.00  0.00    +0.000 F 
ATOM     20  C   UNL     1      47.513   3.663  17.664  0.00  0.00    +0.000 A 
ATOM     21  C   UNL     1      47.434   4.190  16.374  0.00  0.00    +0.000 A 
ENDBRANCH  14  15
ENDBRANCH  12  14
ENDBRANCH   4  12
TORSDOF 4
ENDMDL
MODEL 8
REMARK VINA RESULT:    -5.401      3.232      4.606
REMARK INTER + INTRA:          -7.354
REMARK INTER:                  -6.798
REMARK INTRA:                  -0.556
REMARK UNBOUND:                -0.690
REMARK  Name = 
REMARK  4 active torsions:
REMARK  status: ('A' for Active; 'I' for Inactive)
REMARK    1  A    between atoms: C_2  and  C_4
REMARK    2  A    between atoms: C_7  and  N_8
REMARK    3  A    between atoms: N_8  and  C_9
REMARK    4  A    between atoms: C_9  and  C_10
REMARK                            x       y       z     vdW  Elec       q    Type
REMARK                         _______ _______ _______ _____ _____    ______ ____
ROOT
ATOM      1  C   UNL     1      44.420   4.151  11.293  0.00  0.00    +0.000 A 
ATOM      2  C   UNL     1      45.177   4.911  10.397  0.00  0.00    +0.000 A 
ATOM      3  C   UNL     1      45.559   6.216  10.733  0.00  0.00    +0.000 A 
ATOM      4  C   UNL     1      45.190   6.783  11.959  0.00  0.00    +0.000 A 
ATOM      5  C   UNL     1      44.489   5.989  12.872  0.00  0.00    +0.000 A 
ATOM      6  C   UNL     1      44.087   4.691  12.539  0.00  0.00    +0.000 A 
ENDROOT
BRANCH   1   8
ATOM      7  N   UNL     1      44.503   2.145   9.906  0.00  0.00    +0.000 N 
ATOM      8  C   UNL     1      43.899   2.806  10.940  0.00  0.00    +0.000 C 
ATOM      9  O   UNL     1      42.975   2.291  11.555  0.00  0.00    +0.000 OA
ATOM     10  H   UNL     1      44.184   1.202   9.731  0.00  0.00    +0.000 HD
ATOM     11  H   UNL     1      45.401   2.416   9.535  0.00  0.00    +0.000 HD
ENDBRANCH   1   8
BRANCH   4  12
ATOM     12  N   UNL     1      45.441   8.110  12.305  0.00  0.00    +0.000 N 
ATOM     13  H   UNL     1      44.592   8.651  12.449  0.00  0.00    +0.000 HD
BRANCH  12  14
ATOM     14  C   UNL     1      46.510   8.423  13.238  0.00  0.00    +0.000 C 
BRANCH  14  15
ATOM     15  C   UNL     1      47.812   8.599  12.491  0.00  0.00    +0.000 A 
ATOM     16  C   UNL     1      48.166   9.844  11.949  0.00  0.00    +0.000 A 
ATOM     17  C   UNL     1      49.410  10.019  11.340  0.00  0.00    +0.000 A 
ATOM     18  C   UNL     1      50.301   8.952  11.274  0.00  0.00    +0.000 A 
ATOM     19  F   UNL     1      51.502   9.132  10.708  0.00  0.00    +0.000 F 
ATOM     20  C   UNL     1      49.969   7.709  11.793  0.00  0.00    +0.000 A 
ATOM     21  C   UNL     1      48.726   7.532  12.402  0.00  0.00    +0.000 A 
ENDBRANCH  14  15
ENDBRANCH  12  14
ENDBRANCH   4  12
TORSDOF 4
ENDMDL
MODEL 9
REMARK VINA RESULT:    -5.390      5.532      8.081
REMARK INTER + INTRA:          -7.341
REMARK INTER:                  -7.012
REMARK INTRA:                  -0.329
REMARK UNBOUND:                -0.690
REMARK  Name = 
REMARK  4 active torsions:
REMARK  status: ('A' for Active; 'I' for Inactive)
REMARK    1  A    between atoms: C_2  and  C_4
REMARK    2  A    between atoms: C_7  and  N_8
REMARK    3  A    between atoms: N_8  and  C_9
REMARK    4  A    between atoms: C_9  and  C_10
REMARK                            x       y       z     vdW  Elec       q    Type
REMARK                         _______ _______ _______ _____ _____    ______ ____
ROOT
ATOM      1  C   UNL     1      48.767   4.293  18.084  0.00  0.00    +0.000 A 
ATOM      2  C   UNL     1      48.475   3.012  17.605  0.00  0.00    +0.000 A 
ATOM      3  C   UNL     1      47.855   2.854  16.360  0.00  0.00    +0.000 A 
ATOM      4  C   UNL     1      47.513   3.963  15.577  0.00  0.00    +0.000 A 
ATOM      5  C   UNL     1      47.870   5.235  16.039  0.00  0.00    +0.000 A 
ATOM      6  C   UNL     1      48.472   5.404  17.290  0.00  0.00    +0.000 A 
ENDROOT
BRANCH   1   8
ATOM      7  N   UNL     1      48.660   3.953  20.497  0.00  0.00    +0.000 N 
ATOM      8  C   UNL     1      49.323   4.517  19.443  0.00  0.00    +0.000 C 
ATOM      9  O   UNL     1      50.344   5.166  19.622  0.00  0.00    +0.000 OA
ATOM     10  H   UNL     1      49.096   4.053  21.405  0.00  0.00    +0.000 HD
ATOM     11  H   UNL     1      47.969   3.226  20.384  0.00  0.00    +0.000 HD
ENDBRANCH   1   8
BRANCH   4  12
ATOM     12  N   UNL     1      46.796   3.878  14.385  0.00  0.00    +0.000 N 
ATOM     13  H   UNL     1      46.184   3.067  14.346  0.00  0.00    +0.000 HD
BRANCH  12  14
ATOM     14  C   UNL     1      46.227   5.079  13.797  0.00  0.00    +0.000 C 
BRANCH  14  15
ATOM     15  C   UNL     1      45.605   4.753  12.459  0.00  0.00    +0.000 A 
ATOM     16  C   UNL     1      45.719   5.641  11.379  0.00  0.00    +0.000 A 
ATOM     17  C   UNL     1      45.219   5.291  10.123  0.00  0.00    +0.000 A 
ATOM     18  C   UNL     1      44.607   4.055   9.945  0.00  0.00    +0.000 A 
ATOM     19  F   UNL     1      44.148   3.716   8.733  0.00  0.00    +0.000 F 
ATOM     20  C   UNL     1      44.472   3.165  11.001  0.00  0.00    +0.000 A 
ATOM     21  C   UNL     1      44.971   3.512  12.257  0.00  0.00    +0.000 A 
ENDBRANCH  14  15
ENDBRANCH  12  14
ENDBRANCH   4  12
TORSDOF 4
ENDMDL
