MODEL 1
REMARK VINA RESULT:    -6.730      0.000      0.000
REMARK INTER + INTRA:         -10.137
REMARK INTER:                  -9.091
REMARK INTRA:                  -1.046
REMARK UNBOUND:                -1.046
REMARK  Name = 
REMARK  10 active torsions:
REMARK  status: ('A' for Active; 'I' for Inactive)
REMARK    1  A    between atoms: C_1  and  C_2
REMARK    2  A    between atoms: C_2  and  C_3
REMARK    3  A    between atoms: C_2  and  C_4
REMARK    4  A    between atoms: C_2  and  C_5
REMARK    5  A    between atoms: C_9  and  C_10
REMARK    6  A    between atoms: C_10  and  O_12
REMARK    7  A    between atoms: N_16  and  C_17
REMARK    8  A    between atoms: C_17  and  C_18
REMARK    9  A    between atoms: C_21  and  C_22
REMARK   10  A    between atoms: C_22  and  N_23
REMARK                            x       y       z     vdW  Elec       q    Type
REMARK                         _______ _______ _______ _____ _____    ______ ____
ROOT
ATOM      1  C   UNL     1      44.613   4.056  11.048  0.00  0.00    +0.000 A 
ATOM      2  N   UNL     1      44.865   2.863  10.521  0.00  0.00    +0.000 NA
ATOM      3  C   UNL     1      45.556   3.075   9.368  0.00  0.00    +0.000 A 
ATOM      4  C   UNL     1      46.062   2.167   8.432  0.00  0.00    +0.000 A 
ATOM      5  C   UNL     1      46.739   2.708   7.335  0.00  0.00    +0.000 A 
ATOM      6  C   UNL     1      46.854   4.095   7.224  0.00  0.00    +0.000 A 
ATOM      7  N   UNL     1      46.382   5.007   8.117  0.00  0.00    +0.000 NA
ATOM      8  C   UNL     1      45.743   4.427   9.154  0.00  0.00    +0.000 A 
ATOM      9  N   UNL     1      45.146   5.052  10.233  0.00  0.00    +0.000 N 
ENDROOT
BRANCH   1  11
ATOM     10  C   UNL     1      43.336   2.808  12.805  0.00  0.00    +0.000 C 
ATOM     11  C   UNL     1      43.860   4.206  12.373  0.00  0.00    +0.000 C 
ATOM     12  C   UNL     1      42.627   5.113  12.252  0.00  0.00    +0.000 C 
ATOM     13  C   UNL     1      44.779   4.695  13.498  0.00  0.00    +0.000 C 
ENDBRANCH   1  11
BRANCH   5  14
ATOM     14  C   UNL     1      47.293   1.878   6.248  0.00  0.00    +0.000 C 
ATOM     15  O   UNL     1      47.136   0.672   6.203  0.00  0.00    +0.000 OA
BRANCH  14  16
ATOM     16  O   UNL     1      47.953   2.569   5.294  0.00  0.00    +0.000 OA
ATOM     17  H   UNL     1      48.530   2.053   4.702  0.00  0.00    +0.000 HD
ENDBRANCH  14  16
ENDBRANCH   5  14
BRANCH   9  18
ATOM     18  C   UNL     1      45.094   6.504  10.351  0.00  0.00    +0.000 C 
BRANCH  18  19
ATOM     19  C   UNL     1      45.995   7.067  11.427  0.00  0.00    +0.000 A 
ATOM     20  C   UNL     1      47.322   6.646  11.589  0.00  0.00    +0.000 A 
ATOM     21  C   UNL     1      48.097   7.115  12.651  0.00  0.00    +0.000 A 
ATOM     22  C   UNL     1      47.575   8.039  13.562  0.00  0.00    +0.000 A 
ATOM     23  C   UNL     1      46.281   8.530  13.350  0.00  0.00    +0.000 A 
ATOM     24  C   UNL     1      45.503   8.060  12.288  0.00  0.00    +0.000 A 
BRANCH  22  25
ATOM     25  C   UNL     1      48.366   8.452  14.776  0.00  0.00    +0.000 C 
BRANCH  25  26
ATOM     26  N   UNL     1      47.583   9.266  15.695  0.00  0.00    +0.000 NA
ATOM     27  H   UNL     1      46.609   8.967  15.645  0.00  0.00    +0.000 HD
ATOM     28  H   UNL     1      47.601  10.233  15.378  0.00  0.00    +0.000 HD
ENDBRANCH  25  26
ENDBRANCH  22  25
ENDBRANCH  18  19
ENDBRANCH   9  18
TORSDOF 7
ENDMDL
MODEL 2
REMARK VINA RESULT:    -6.373      3.541      6.612
REMARK INTER + INTRA:          -9.655
REMARK INTER:                  -9.409
REMARK INTRA:                  -0.245
REMARK UNBOUND:                -1.046
REMARK  Name = 
REMARK  10 active torsions:
REMARK  status: ('A' for Active; 'I' for Inactive)
REMARK    1  A    between atoms: C_1  and  C_2
REMARK    2  A    between atoms: C_2  and  C_3
REMARK    3  A    between atoms: C_2  and  C_4
REMARK    4  A    between atoms: C_2  and  C_5
REMARK    5  A    between atoms: C_9  and  C_10
REMARK    6  A    between atoms: C_10  and  O_12
REMARK    7  A    between atoms: N_16  and  C_17
REMARK    8  A    between atoms: C_17  and  C_18
REMARK    9  A    between atoms: C_21  and  C_22
REMARK   10  A    between atoms: C_22  and  N_23
REMARK                            x       y       z     vdW  Elec       q    Type
REMARK                         _______ _______ _______ _____ _____    ______ ____
ROOT
ATOM      1  C   UNL     1      44.944   5.056  12.337  0.00  0.00    +0.000 A 
ATOM      2  N   UNL     1      45.670   5.250  13.433  0.00  0.00    +0.000 NA
ATOM      3  C   UNL     1      46.760   5.976  13.065  0.00  0.00    +0.000 A 
ATOM      4  C   UNL     1      47.836   6.447  13.825  0.00  0.00    +0.000 A 
ATOM      5  C   UNL     1      48.814   7.178  13.143  0.00  0.00    +0.000 A 
ATOM      6  C   UNL     1      48.679   7.375  11.767  0.00  0.00    +0.000 A 
ATOM      7  N   UNL     1      47.644   6.938  10.998  0.00  0.00    +0.000 NA
ATOM      8  C   UNL     1      46.732   6.245  11.710  0.00  0.00    +0.000 A 
ATOM      9  N   UNL     1      45.566   5.664  11.248  0.00  0.00    +0.000 N 
ENDROOT
BRANCH   1  11
ATOM     10  C   UNL     1      42.999   4.441  13.791  0.00  0.00    +0.000 C 
ATOM     11  C   UNL     1      43.621   4.286  12.375  0.00  0.00    +0.000 C 
ATOM     12  C   UNL     1      43.809   2.780  12.146  0.00  0.00    +0.000 C 
ATOM     13  C   UNL     1      42.601   4.858  11.384  0.00  0.00    +0.000 C 
ENDBRANCH   1  11
BRANCH   5  14
ATOM     14  C   UNL     1      50.025   7.705  13.802  0.00  0.00    +0.000 C 
ATOM     15  O   UNL     1      50.507   8.784  13.512  0.00  0.00    +0.000 OA
BRANCH  14  16
ATOM     16  O   UNL     1      50.527   6.911  14.771  0.00  0.00    +0.000 OA
ATOM     17  H   UNL     1      51.481   6.714  14.721  0.00  0.00    +0.000 HD
ENDBRANCH  14  16
ENDBRANCH   5  14
BRANCH   9  18
ATOM     18  C   UNL     1      45.195   5.693   9.838  0.00  0.00    +0.000 C 
BRANCH  18  19
ATOM     19  C   UNL     1      45.613   4.461   9.066  0.00  0.00    +0.000 A 
ATOM     20  C   UNL     1      45.194   3.174   9.426  0.00  0.00    +0.000 A 
ATOM     21  C   UNL     1      45.673   2.050   8.751  0.00  0.00    +0.000 A 
ATOM     22  C   UNL     1      46.563   2.187   7.679  0.00  0.00    +0.000 A 
ATOM     23  C   UNL     1      46.911   3.476   7.260  0.00  0.00    +0.000 A 
ATOM     24  C   UNL     1      46.433   4.602   7.936  0.00  0.00    +0.000 A 
BRANCH  22  25
ATOM     25  C   UNL     1      47.176   0.974   7.030  0.00  0.00    +0.000 C 
BRANCH  25  26
ATOM     26  N   UNL     1      46.823  -0.260   7.719  0.00  0.00    +0.000 NA
ATOM     27  H   UNL     1      46.442  -0.023   8.635  0.00  0.00    +0.000 HD
ATOM     28  H   UNL     1      47.670  -0.797   7.892  0.00  0.00    +0.000 HD
ENDBRANCH  25  26
ENDBRANCH  22  25
ENDBRANCH  18  19
ENDBRANCH   9  18
TORSDOF 7
ENDMDL
MODEL 3
REMARK VINA RESULT:    -5.894      4.810      7.144
REMARK INTER + INTRA:          -9.008
REMARK INTER:                  -8.259
REMARK INTRA:                  -0.749
REMARK UNBOUND:                -1.046
REMARK  Name = 
REMARK  10 active torsions:
REMARK  status: ('A' for Active; 'I' for Inactive)
REMARK    1  A    between atoms: C_1  and  C_2
REMARK    2  A    between atoms: C_2  and  C_3
REMARK    3  A    between atoms: C_2  and  C_4
REMARK    4  A    between atoms: C_2  and  C_5
REMARK    5  A    between atoms: C_9  and  C_10
REMARK    6  A    between atoms: C_10  and  O_12
REMARK    7  A    between atoms: N_16  and  C_17
REMARK    8  A    between atoms: C_17  and  C_18
REMARK    9  A    between atoms: C_21  and  C_22
REMARK   10  A    between atoms: C_22  and  N_23
REMARK                            x       y       z     vdW  Elec       q    Type
REMARK                         _______ _______ _______ _____ _____    ______ ____
ROOT
ATOM      1  C   UNL     1      48.726   6.800  15.083  0.00  0.00    +0.000 A 
ATOM      2  N   UNL     1      48.477   7.028  13.798  0.00  0.00    +0.000 NA
ATOM      3  C   UNL     1      47.498   6.160  13.423  0.00  0.00    +0.000 A 
ATOM      4  C   UNL     1      46.871   5.978  12.186  0.00  0.00    +0.000 A 
ATOM      5  C   UNL     1      45.885   4.989  12.121  0.00  0.00    +0.000 A 
ATOM      6  C   UNL     1      45.600   4.238  13.263  0.00  0.00    +0.000 A 
ATOM      7  N   UNL     1      46.184   4.392  14.484  0.00  0.00    +0.000 NA
ATOM      8  C   UNL     1      47.122   5.361  14.486  0.00  0.00    +0.000 A 
ATOM      9  N   UNL     1      47.902   5.777  15.547  0.00  0.00    +0.000 N 
ENDROOT
BRANCH   1  11
ATOM     10  C   UNL     1      49.981   8.968  15.124  0.00  0.00    +0.000 C 
ATOM     11  C   UNL     1      49.769   7.613  15.854  0.00  0.00    +0.000 C 
ATOM     12  C   UNL     1      51.141   6.925  15.898  0.00  0.00    +0.000 C 
ATOM     13  C   UNL     1      49.292   7.951  17.272  0.00  0.00    +0.000 C 
ENDBRANCH   1  11
BRANCH   5  14
ATOM     14  C   UNL     1      45.166   4.656  10.877  0.00  0.00    +0.000 C 
ATOM     15  O   UNL     1      44.716   3.545  10.660  0.00  0.00    +0.000 OA
BRANCH  14  16
ATOM     16  O   UNL     1      45.017   5.688  10.020  0.00  0.00    +0.000 OA
ATOM     17  H   UNL     1      45.453   6.525  10.266  0.00  0.00    +0.000 HD
ENDBRANCH  14  16
ENDBRANCH   5  14
BRANCH   9  18
ATOM     18  C   UNL     1      47.829   5.138  16.856  0.00  0.00    +0.000 C 
BRANCH  18  19
ATOM     19  C   UNL     1      48.900   4.096  17.092  0.00  0.00    +0.000 A 
ATOM     20  C   UNL     1      50.087   4.384  17.778  0.00  0.00    +0.000 A 
ATOM     21  C   UNL     1      51.096   3.426  17.896  0.00  0.00    +0.000 A 
ATOM     22  C   UNL     1      50.932   2.147  17.355  0.00  0.00    +0.000 A 
ATOM     23  C   UNL     1      49.711   1.829  16.748  0.00  0.00    +0.000 A 
ATOM     24  C   UNL     1      48.700   2.787  16.629  0.00  0.00    +0.000 A 
BRANCH  22  25
ATOM     25  C   UNL     1      52.065   1.154  17.373  0.00  0.00    +0.000 C 
BRANCH  25  26
ATOM     26  N   UNL     1      51.781   0.007  18.224  0.00  0.00    +0.000 NA
ATOM     27  H   UNL     1      51.273  -0.686  17.675  0.00  0.00    +0.000 HD
ATOM     28  H   UNL     1      51.152   0.296  18.971  0.00  0.00    +0.000 HD
ENDBRANCH  25  26
ENDBRANCH  22  25
ENDBRANCH  18  19
ENDBRANCH   9  18
TORSDOF 7
ENDMDL
MODEL 4
REMARK VINA RESULT:    -5.580      3.563      5.653
REMARK INTER + INTRA:          -8.584
REMARK INTER:                  -7.753
REMARK INTRA:                  -0.830
REMARK UNBOUND:                -1.046
REMARK  Name = 
REMARK  10 active torsions:
REMARK  status: ('A' for Active; 'I' for Inactive)
REMARK    1  A    between atoms: C_1  and  C_2
REMARK    2  A    between atoms: C_2  and  C_3
REMARK    3  A    between atoms: C_2  and  C_4
REMARK    4  A    between atoms: C_2  and  C_5
REMARK    5  A    between atoms: C_9  and  C_10
REMARK    6  A    between atoms: C_10  and  O_12
REMARK    7  A    between atoms: N_16  and  C_17
REMARK    8  A    between atoms: C_17  and  C_18
REMARK    9  A    between atoms: C_21  and  C_22
REMARK   10  A    between atoms: C_22  and  N_23
REMARK                            x       y       z     vdW  Elec       q    Type
REMARK                         _______ _______ _______ _____ _____    ______ ____
ROOT
ATOM      1  C   UNL     1      48.052   6.724  14.365  0.00  0.00    +0.000 A 
ATOM      2  N   UNL     1      47.548   5.506  14.532  0.00  0.00    +0.000 NA
ATOM      3  C   UNL     1      46.743   5.258  13.463  0.00  0.00    +0.000 A 
ATOM      4  C   UNL     1      45.975   4.132  13.147  0.00  0.00    +0.000 A 
ATOM      5  C   UNL     1      45.245   4.185  11.955  0.00  0.00    +0.000 A 
ATOM      6  C   UNL     1      45.305   5.340  11.173  0.00  0.00    +0.000 A 
ATOM      7  N   UNL     1      46.045   6.449  11.445  0.00  0.00    +0.000 NA
ATOM      8  C   UNL     1      46.729   6.339  12.603  0.00  0.00    +0.000 A 
ATOM      9  N   UNL     1      47.572   7.271  13.176  0.00  0.00    +0.000 N 
ENDROOT
BRANCH   1  11
ATOM     10  C   UNL     1      49.094   6.410  16.621  0.00  0.00    +0.000 C 
ATOM     11  C   UNL     1      49.026   7.335  15.375  0.00  0.00    +0.000 C 
ATOM     12  C   UNL     1      48.567   8.711  15.880  0.00  0.00    +0.000 C 
ATOM     13  C   UNL     1      50.451   7.417  14.813  0.00  0.00    +0.000 C 
ENDBRANCH   1  11
BRANCH   5  14
ATOM     14  C   UNL     1      44.361   3.092  11.509  0.00  0.00    +0.000 C 
ATOM     15  O   UNL     1      44.114   2.890  10.334  0.00  0.00    +0.000 OA
BRANCH  14  16
ATOM     16  O   UNL     1      43.879   2.317  12.504  0.00  0.00    +0.000 OA
ATOM     17  H   UNL     1      43.666   1.394  12.274  0.00  0.00    +0.000 HD
ENDBRANCH  14  16
ENDBRANCH   5  14
BRANCH   9  18
ATOM     18  C   UNL     1      47.790   8.584  12.581  0.00  0.00    +0.000 C 
BRANCH  18  19
ATOM     19  C   UNL     1      49.121   8.726  11.877  0.00  0.00    +0.000 A 
ATOM     20  C   UNL     1      49.857   7.620  11.433  0.00  0.00    +0.000 A 
ATOM     21  C   UNL     1      51.125   7.781  10.872  0.00  0.00    +0.000 A 
ATOM     22  C   UNL     1      51.679   9.056  10.715  0.00  0.00    +0.000 A 
ATOM     23  C   UNL     1      50.909  10.169  11.074  0.00  0.00    +0.000 A 
ATOM     24  C   UNL     1      49.639  10.009  11.636  0.00  0.00    +0.000 A 
BRANCH  22  25
ATOM     25  C   UNL     1      53.094   9.224  10.226  0.00  0.00    +0.000 C 
BRANCH  25  26
ATOM     26  N   UNL     1      53.320   8.560   8.950  0.00  0.00    +0.000 NA
ATOM     27  H   UNL     1      53.946   9.137   8.390  0.00  0.00    +0.000 HD
ATOM     28  H   UNL     1      52.440   8.514   8.440  0.00  0.00    +0.000 HD
ENDBRANCH  25  26
ENDBRANCH  22  25
ENDBRANCH  18  19
ENDBRANCH   9  18
TORSDOF 7
ENDMDL
MODEL 5
REMARK VINA RESULT:    -5.504      5.162      8.402
REMARK INTER + INTRA:          -8.481
REMARK INTER:                  -7.589
REMARK INTRA:                  -0.893
REMARK UNBOUND:                -1.046
REMARK  Name = 
REMARK  10 active torsions:
REMARK  status: ('A' for Active; 'I' for Inactive)
REMARK    1  A    between atoms: C_1  and  C_2
REMARK    2  A    between atoms: C_2  and  C_3
REMARK    3  A    between atoms: C_2  and  C_4
REMARK    4  A    between atoms: C_2  and  C_5
REMARK    5  A    between atoms: C_9  and  C_10
REMARK    6  A    between atoms: C_10  and  O_12
REMARK    7  A    between atoms: N_16  and  C_17
REMARK    8  A    between atoms: C_17  and  C_18
REMARK    9  A    between atoms: C_21  and  C_22
REMARK   10  A    between atoms: C_22  and  N_23
REMARK                            x       y       z     vdW  Elec       q    Type
REMARK                         _______ _______ _______ _____ _____    ______ ____
ROOT
ATOM      1  C   UNL     1      48.315   8.604  13.981  0.00  0.00    +0.000 A 
ATOM      2  N   UNL     1      48.455   9.064  15.219  0.00  0.00    +0.000 NA
ATOM      3  C   UNL     1      48.639   7.985  16.027  0.00  0.00    +0.000 A 
ATOM      4  C   UNL     1      48.833   7.908  17.410  0.00  0.00    +0.000 A 
ATOM      5  C   UNL     1      48.996   6.629  17.951  0.00  0.00    +0.000 A 
ATOM      6  C   UNL     1      48.936   5.521  17.105  0.00  0.00    +0.000 A 
ATOM      7  N   UNL     1      48.756   5.557  15.756  0.00  0.00    +0.000 NA
ATOM      8  C   UNL     1      48.610   6.815  15.291  0.00  0.00    +0.000 A 
ATOM      9  N   UNL     1      48.411   7.214  13.983  0.00  0.00    +0.000 N 
ENDROOT
BRANCH   1  11
ATOM     10  C   UNL     1      48.540  10.978  13.213  0.00  0.00    +0.000 C 
ATOM     11  C   UNL     1      48.108   9.546  12.792  0.00  0.00    +0.000 C 
ATOM     12  C   UNL     1      46.635   9.645  12.367  0.00  0.00    +0.000 C 
ATOM     13  C   UNL     1      48.987   9.157  11.597  0.00  0.00    +0.000 C 
ENDBRANCH   1  11
BRANCH   5  14
ATOM     14  C   UNL     1      49.170   6.388  19.396  0.00  0.00    +0.000 C 
ATOM     15  O   UNL     1      49.788   7.152  20.116  0.00  0.00    +0.000 OA
BRANCH  14  16
ATOM     16  O   UNL     1      48.561   5.275  19.858  0.00  0.00    +0.000 OA
ATOM     17  H   UNL     1      49.133   4.503  20.023  0.00  0.00    +0.000 HD
ENDBRANCH  14  16
ENDBRANCH   5  14
BRANCH   9  18
ATOM     18  C   UNL     1      48.277   6.251  12.896  0.00  0.00    +0.000 C 
BRANCH  18  19
ATOM     19  C   UNL     1      46.845   5.910  12.548  0.00  0.00    +0.000 A 
ATOM     20  C   UNL     1      46.259   6.288  11.334  0.00  0.00    +0.000 A 
ATOM     21  C   UNL     1      44.907   6.041  11.084  0.00  0.00    +0.000 A 
ATOM     22  C   UNL     1      44.115   5.384  12.031  0.00  0.00    +0.000 A 
ATOM     23  C   UNL     1      44.721   4.925  13.207  0.00  0.00    +0.000 A 
ATOM     24  C   UNL     1      46.073   5.172  13.459  0.00  0.00    +0.000 A 
BRANCH  22  25
ATOM     25  C   UNL     1      42.633   5.226  11.817  0.00  0.00    +0.000 C 
BRANCH  25  26
ATOM     26  N   UNL     1      41.944   6.508  11.754  0.00  0.00    +0.000 NA
ATOM     27  H   UNL     1      42.143   7.026  12.609  0.00  0.00    +0.000 HD
ATOM     28  H   UNL     1      40.939   6.344  11.746  0.00  0.00    +0.000 HD
ENDBRANCH  25  26
ENDBRANCH  22  25
ENDBRANCH  18  19
ENDBRANCH   9  18
TORSDOF 7
ENDMDL
MODEL 6
REMARK VINA RESULT:    -5.433      4.482      6.289
REMARK INTER + INTRA:          -8.384
REMARK INTER:                  -7.779
REMARK INTRA:                  -0.605
REMARK UNBOUND:                -1.046
REMARK  Name = 
REMARK  10 active torsions:
REMARK  status: ('A' for Active; 'I' for Inactive)
REMARK    1  A    between atoms: C_1  and  C_2
REMARK    2  A    between atoms: C_2  and  C_3
REMARK    3  A    between atoms: C_2  and  C_4
REMARK    4  A    between atoms: C_2  and  C_5
REMARK    5  A    between atoms: C_9  and  C_10
REMARK    6  A    between atoms: C_10  and  O_12
REMARK    7  A    between atoms: N_16  and  C_17
REMARK    8  A    between atoms: C_17  and  C_18
REMARK    9  A    between atoms: C_21  and  C_22
REMARK   10  A    between atoms: C_22  and  N_23
REMARK                            x       y       z     vdW  Elec       q    Type
REMARK                         _______ _______ _______ _____ _____    ______ ____
ROOT
ATOM      1  C   UNL     1      45.457   4.655  12.795  0.00  0.00    +0.000 A 
ATOM      2  N   UNL     1      45.644   4.023  13.949  0.00  0.00    +0.000 NA
ATOM      3  C   UNL     1      46.677   4.644  14.580  0.00  0.00    +0.000 A 
ATOM      4  C   UNL     1      47.277   4.380  15.815  0.00  0.00    +0.000 A 
ATOM      5  C   UNL     1      48.336   5.213  16.190  0.00  0.00    +0.000 A 
ATOM      6  C   UNL     1      48.742   6.228  15.322  0.00  0.00    +0.000 A 
ATOM      7  N   UNL     1      48.178   6.519  14.117  0.00  0.00    +0.000 NA
ATOM      8  C   UNL     1      47.161   5.686  13.812  0.00  0.00    +0.000 A 
ATOM      9  N   UNL     1      46.375   5.696  12.676  0.00  0.00    +0.000 N 
ENDROOT
BRANCH   1  11
ATOM     10  C   UNL     1      43.944   2.771  12.134  0.00  0.00    +0.000 C 
ATOM     11  C   UNL     1      44.353   4.237  11.821  0.00  0.00    +0.000 C 
ATOM     12  C   UNL     1      44.819   4.254  10.358  0.00  0.00    +0.000 C 
ATOM     13  C   UNL     1      43.089   5.089  11.992  0.00  0.00    +0.000 C 
ENDBRANCH   1  11
BRANCH   5  14
ATOM     14  C   UNL     1      49.091   5.033  17.445  0.00  0.00    +0.000 C 
ATOM     15  O   UNL     1      48.831   5.657  18.458  0.00  0.00    +0.000 OA
BRANCH  14  16
ATOM     16  O   UNL     1      50.064   4.100  17.387  0.00  0.00    +0.000 OA
ATOM     17  H   UNL     1      50.272   3.742  16.504  0.00  0.00    +0.000 HD
ENDBRANCH  14  16
ENDBRANCH   5  14
BRANCH   9  18
ATOM     18  C   UNL     1      46.605   6.638  11.587  0.00  0.00    +0.000 C 
BRANCH  18  19
ATOM     19  C   UNL     1      45.716   7.860  11.632  0.00  0.00    +0.000 A 
ATOM     20  C   UNL     1      44.416   7.860  11.110  0.00  0.00    +0.000 A 
ATOM     21  C   UNL     1      43.655   9.031  11.082  0.00  0.00    +0.000 A 
ATOM     22  C   UNL     1      44.166  10.226  11.601  0.00  0.00    +0.000 A 
ATOM     23  C   UNL     1      45.429  10.207  12.205  0.00  0.00    +0.000 A 
ATOM     24  C   UNL     1      46.191   9.036  12.233  0.00  0.00    +0.000 A 
BRANCH  22  25
ATOM     25  C   UNL     1      43.399  11.514  11.460  0.00  0.00    +0.000 C 
BRANCH  25  26
ATOM     26  N   UNL     1      42.173  11.516  12.246  0.00  0.00    +0.000 NA
ATOM     27  H   UNL     1      42.294  10.887  13.039  0.00  0.00    +0.000 HD
ATOM     28  H   UNL     1      41.419  11.125  11.684  0.00  0.00    +0.000 HD
ENDBRANCH  25  26
ENDBRANCH  22  25
ENDBRANCH  18  19
ENDBRANCH   9  18
TORSDOF 7
ENDMDL
MODEL 7
REMARK VINA RESULT:    -5.287      3.507      6.063
REMARK INTER + INTRA:          -8.188
REMARK INTER:                  -7.758
REMARK INTRA:                  -0.430
REMARK UNBOUND:                -1.046
REMARK  Name = 
REMARK  10 active torsions:
REMARK  status: ('A' for Active; 'I' for Inactive)
REMARK    1  A    between atoms: C_1  and  C_2
REMARK    2  A    between atoms: C_2  and  C_3
REMARK    3  A    between atoms: C_2  and  C_4
REMARK    4  A    between atoms: C_2  and  C_5
REMARK    5  A    between atoms: C_9  and  C_10
REMARK    6  A    between atoms: C_10  and  O_12
REMARK    7  A    between atoms: N_16  and  C_17
REMARK    8  A    between atoms: C_17  and  C_18
REMARK    9  A    between atoms: C_21  and  C_22
REMARK   10  A    between atoms: C_22  and  N_23
REMARK                            x       y       z     vdW  Elec       q    Type
REMARK                         _______ _______ _______ _____ _____    ______ ____
ROOT
ATOM      1  C   UNL     1      47.915   8.190  12.624  0.00  0.00    +0.000 A 
ATOM      2  N   UNL     1      46.852   7.774  11.944  0.00  0.00    +0.000 NA
ATOM      3  C   UNL     1      46.610   6.492  12.329  0.00  0.00    +0.000 A 
ATOM      4  C   UNL     1      45.618   5.594  11.922  0.00  0.00    +0.000 A 
ATOM      5  C   UNL     1      45.636   4.327  12.515  0.00  0.00    +0.000 A 
ATOM      6  C   UNL     1      46.633   4.027  13.445  0.00  0.00    +0.000 A 
ATOM      7  N   UNL     1      47.609   4.876  13.868  0.00  0.00    +0.000 NA
ATOM      8  C   UNL     1      47.538   6.081  13.266  0.00  0.00    +0.000 A 
ATOM      9  N   UNL     1      48.366   7.170  13.459  0.00  0.00    +0.000 N 
ENDROOT
BRANCH   1  11
ATOM     10  C   UNL     1      49.863   9.518  11.780  0.00  0.00    +0.000 C 
ATOM     11  C   UNL     1      48.469   9.608  12.460  0.00  0.00    +0.000 C 
ATOM     12  C   UNL     1      48.687  10.316  13.805  0.00  0.00    +0.000 C 
ATOM     13  C   UNL     1      47.588  10.461  11.540  0.00  0.00    +0.000 C 
ENDBRANCH   1  11
BRANCH   5  14
ATOM     14  C   UNL     1      44.678   3.263  12.159  0.00  0.00    +0.000 C 
ATOM     15  O   UNL     1      43.725   2.981  12.863  0.00  0.00    +0.000 OA
BRANCH  14  16
ATOM     16  O   UNL     1      44.925   2.656  10.979  0.00  0.00    +0.000 OA
ATOM     17  H   UNL     1      44.311   1.945  10.718  0.00  0.00    +0.000 HD
ENDBRANCH  14  16
ENDBRANCH   5  14
BRANCH   9  18
ATOM     18  C   UNL     1      49.514   7.117  14.357  0.00  0.00    +0.000 C 
BRANCH  18  19
ATOM     19  C   UNL     1      49.147   7.085  15.824  0.00  0.00    +0.000 A 
ATOM     20  C   UNL     1      49.253   5.922  16.597  0.00  0.00    +0.000 A 
ATOM     21  C   UNL     1      48.816   5.902  17.924  0.00  0.00    +0.000 A 
ATOM     22  C   UNL     1      48.288   7.052  18.519  0.00  0.00    +0.000 A 
ATOM     23  C   UNL     1      48.265   8.239  17.776  0.00  0.00    +0.000 A 
ATOM     24  C   UNL     1      48.702   8.261  16.448  0.00  0.00    +0.000 A 
BRANCH  22  25
ATOM     25  C   UNL     1      47.704   7.001  19.906  0.00  0.00    +0.000 C 
BRANCH  25  26
ATOM     26  N   UNL     1      47.114   5.705  20.210  0.00  0.00    +0.000 NA
ATOM     27  H   UNL     1      46.869   5.683  21.199  0.00  0.00    +0.000 HD
ATOM     28  H   UNL     1      47.818   4.981  20.074  0.00  0.00    +0.000 HD
ENDBRANCH  25  26
ENDBRANCH  22  25
ENDBRANCH  18  19
ENDBRANCH   9  18
TORSDOF 7
ENDMDL
MODEL 8
REMARK VINA RESULT:    -5.216      4.716      6.385
REMARK INTER + INTRA:          -8.091
REMARK INTER:                  -7.452
REMARK INTRA:                  -0.640
REMARK UNBOUND:                -1.046
REMARK  Name = 
REMARK  10 active torsions:
REMARK  status: ('A' for Active; 'I' for Inactive)
REMARK    1  A    between atoms: C_1  and  C_2
REMARK    2  A    between atoms: C_2  and  C_3
REMARK    3  A    between atoms: C_2  and  C_4
REMARK    4  A    between atoms: C_2  and  C_5
REMARK    5  A    between atoms: C_9  and  C_10
REMARK    6  A    between atoms: C_10  and  O_12
REMARK    7  A    between atoms: N_16  and  C_17
REMARK    8  A    between atoms: C_17  and  C_18
REMARK    9  A    between atoms: C_21  and  C_22
REMARK   10  A    between atoms: C_22  and  N_23
REMARK                            x       y       z     vdW  Elec       q    Type
REMARK                         _______ _______ _______ _____ _____    ______ ____
ROOT
ATOM      1  C   UNL     1      46.010   4.866  12.965  0.00  0.00    +0.000 A 
ATOM      2  N   UNL     1      46.301   3.729  13.588  0.00  0.00    +0.000 NA
ATOM      3  C   UNL     1      47.066   4.050  14.666  0.00  0.00    +0.000 A 
ATOM      4  C   UNL     1      47.639   3.235  15.648  0.00  0.00    +0.000 A 
ATOM      5  C   UNL     1      48.381   3.878  16.644  0.00  0.00    +0.000 A 
ATOM      6  C   UNL     1      48.525   5.266  16.594  0.00  0.00    +0.000 A 
ATOM      7  N   UNL     1      47.977   6.091  15.659  0.00  0.00    +0.000 NA
ATOM      8  C   UNL     1      47.271   5.415  14.729  0.00  0.00    +0.000 A 
ATOM      9  N   UNL     1      46.589   5.936  13.646  0.00  0.00    +0.000 N 
ENDROOT
BRANCH   1  11
ATOM     10  C   UNL     1      44.904   3.431  11.236  0.00  0.00    +0.000 C 
ATOM     11  C   UNL     1      45.140   4.893  11.706  0.00  0.00    +0.000 C 
ATOM     12  C   UNL     1      45.816   5.621  10.536  0.00  0.00    +0.000 C 
ATOM     13  C   UNL     1      43.755   5.492  11.983  0.00  0.00    +0.000 C 
ENDBRANCH   1  11
BRANCH   5  14
ATOM     14  C   UNL     1      49.076   3.149  17.722  0.00  0.00    +0.000 C 
ATOM     15  O   UNL     1      50.171   2.641  17.565  0.00  0.00    +0.000 OA
BRANCH  14  16
ATOM     16  O   UNL     1      48.415   3.124  18.899  0.00  0.00    +0.000 OA
ATOM     17  H   UNL     1      48.251   2.244  19.287  0.00  0.00    +0.000 HD
ENDBRANCH  14  16
ENDBRANCH   5  14
BRANCH   9  18
ATOM     18  C   UNL     1      46.600   7.361  13.339  0.00  0.00    +0.000 C 
BRANCH  18  19
ATOM     19  C   UNL     1      47.842   7.823  12.610  0.00  0.00    +0.000 A 
ATOM     20  C   UNL     1      48.900   6.957  12.309  0.00  0.00    +0.000 A 
ATOM     21  C   UNL     1      50.072   7.435  11.720  0.00  0.00    +0.000 A 
ATOM     22  C   UNL     1      50.204   8.789  11.390  0.00  0.00    +0.000 A 
ATOM     23  C   UNL     1      49.113   9.639  11.607  0.00  0.00    +0.000 A 
ATOM     24  C   UNL     1      47.940   9.161  12.197  0.00  0.00    +0.000 A 
BRANCH  22  25
ATOM     25  C   UNL     1      51.510   9.329  10.870  0.00  0.00    +0.000 C 
BRANCH  25  26
ATOM     26  N   UNL     1      52.551   8.312  10.827  0.00  0.00    +0.000 NA
ATOM     27  H   UNL     1      52.802   8.144   9.853  0.00  0.00    +0.000 HD
ATOM     28  H   UNL     1      52.172   7.435  11.180  0.00  0.00    +0.000 HD
ENDBRANCH  25  26
ENDBRANCH  22  25
ENDBRANCH  18  19
ENDBRANCH   9  18
TORSDOF 7
ENDMDL
MODEL 9
REMARK VINA RESULT:    -4.972      4.246      6.723
REMARK INTER + INTRA:          -7.762
REMARK INTER:                  -6.776
REMARK INTRA:                  -0.986
REMARK UNBOUND:                -1.046
REMARK  Name = 
REMARK  10 active torsions:
REMARK  status: ('A' for Active; 'I' for Inactive)
REMARK    1  A    between atoms: C_1  and  C_2
REMARK    2  A    between atoms: C_2  and  C_3
REMARK    3  A    between atoms: C_2  and  C_4
REMARK    4  A    between atoms: C_2  and  C_5
REMARK    5  A    between atoms: C_9  and  C_10
REMARK    6  A    between atoms: C_10  and  O_12
REMARK    7  A    between atoms: N_16  and  C_17
REMARK    8  A    between atoms: C_17  and  C_18
REMARK    9  A    between atoms: C_21  and  C_22
REMARK   10  A    between atoms: C_22  and  N_23
REMARK                            x       y       z     vdW  Elec       q    Type
REMARK                         _______ _______ _______ _____ _____    ______ ____
ROOT
ATOM      1  C   UNL     1      47.255   9.219  12.506  0.00  0.00    +0.000 A 
ATOM      2  N   UNL     1      46.041   8.820  12.140  0.00  0.00    +0.000 NA
ATOM      3  C   UNL     1      45.882   7.552  12.605  0.00  0.00    +0.000 A 
ATOM      4  C   UNL     1      44.798   6.674  12.495  0.00  0.00    +0.000 A 
ATOM      5  C   UNL     1      44.945   5.418  13.092  0.00  0.00    +0.000 A 
ATOM      6  C   UNL     1      46.146   5.106  13.734  0.00  0.00    +0.000 A 
ATOM      7  N   UNL     1      47.217   5.936  13.865  0.00  0.00    +0.000 NA
ATOM      8  C   UNL     1      47.016   7.132  13.274  0.00  0.00    +0.000 A 
ATOM      9  N   UNL     1      47.888   8.202  13.217  0.00  0.00    +0.000 N 
ENDROOT
BRANCH   1  11
ATOM     10  C   UNL     1      46.569  11.516  11.779  0.00  0.00    +0.000 C 
ATOM     11  C   UNL     1      47.776  10.618  12.168  0.00  0.00    +0.000 C 
ATOM     12  C   UNL     1      48.725  10.619  10.961  0.00  0.00    +0.000 C 
ATOM     13  C   UNL     1      48.445  11.284  13.377  0.00  0.00    +0.000 C 
ENDBRANCH   1  11
BRANCH   5  14
ATOM     14  C   UNL     1      43.904   4.374  13.027  0.00  0.00    +0.000 C 
ATOM     15  O   UNL     1      44.163   3.210  12.779  0.00  0.00    +0.000 OA
BRANCH  14  16
ATOM     16  O   UNL     1      42.656   4.807  13.298  0.00  0.00    +0.000 OA
ATOM     17  H   UNL     1      42.300   4.587  14.179  0.00  0.00    +0.000 HD
ENDBRANCH  14  16
ENDBRANCH   5  14
BRANCH   9  18
ATOM     18  C   UNL     1      49.231   8.133  13.782  0.00  0.00    +0.000 C 
BRANCH  18  19
ATOM     19  C   UNL     1      50.336   8.179  12.751  0.00  0.00    +0.000 A 
ATOM     20  C   UNL     1      51.486   8.961  12.918  0.00  0.00    +0.000 A 
ATOM     21  C   UNL     1      52.442   9.055  11.905  0.00  0.00    +0.000 A 
ATOM     22  C   UNL     1      52.286   8.345  10.709  0.00  0.00    +0.000 A 
ATOM     23  C   UNL     1      51.184   7.492  10.576  0.00  0.00    +0.000 A 
ATOM     24  C   UNL     1      50.225   7.398  11.589  0.00  0.00    +0.000 A 
BRANCH  22  25
ATOM     25  C   UNL     1      53.251   8.540   9.569  0.00  0.00    +0.000 C 
BRANCH  25  26
ATOM     26  N   UNL     1      52.865   7.788   8.384  0.00  0.00    +0.000 NA
ATOM     27  H   UNL     1      51.856   7.869   8.262  0.00  0.00    +0.000 HD
ATOM     28  H   UNL     1      53.056   6.800   8.541  0.00  0.00    +0.000 HD
ENDBRANCH  25  26
ENDBRANCH  22  25
ENDBRANCH  18  19
ENDBRANCH   9  18
TORSDOF 7
ENDMDL
