MODEL 1
REMARK VINA RESULT:    -7.433      0.000      0.000
REMARK INTER + INTRA:         -10.037
REMARK INTER:                  -9.389
REMARK INTRA:                  -0.648
REMARK UNBOUND:                -0.648
REMARK  Name = 
REMARK  5 active torsions:
REMARK  status: ('A' for Active; 'I' for Inactive)
REMARK    1  A    between atoms: N_1  and  C_2
REMARK    2  A    between atoms: C_2  and  C_3
REMARK    3  A    between atoms: C_6  and  O_7
REMARK    4  A    between atoms: O_7  and  C_8
REMARK    5  A    between atoms: C_8  and  C_9
REMARK                            x       y       z     vdW  Elec       q    Type
REMARK                         _______ _______ _______ _____ _____    ______ ____
ROOT
ATOM      1  C   UNL     1      46.525   2.339   7.643  0.00  0.00    +0.000 A 
ATOM      2  C   UNL     1      46.415   3.736   7.587  0.00  0.00    +0.000 A 
ATOM      3  C   UNL     1      45.454   4.405   8.351  0.00  0.00    +0.000 A 
ATOM      4  C   UNL     1      44.583   3.688   9.170  0.00  0.00    +0.000 A 
ATOM      5  C   UNL     1      44.722   2.303   9.270  0.00  0.00    +0.000 A 
ATOM      6  C   UNL     1      45.678   1.632   8.505  0.00  0.00    +0.000 A 
ENDROOT
BRANCH   1   7
ATOM      7  C   UNL     1      47.507   1.603   6.770  0.00  0.00    +0.000 C 
BRANCH   7   8
ATOM      8  N   UNL     1      48.605   2.459   6.344  0.00  0.00    +0.000 NA
ATOM      9  H   UNL     1      49.235   1.920   5.753  0.00  0.00    +0.000 HD
ATOM     10  H   UNL     1      49.142   2.734   7.165  0.00  0.00    +0.000 HD
ENDBRANCH   7   8
ENDBRANCH   1   7
BRANCH   4  11
ATOM     11  O   UNL     1      43.636   4.429   9.822  0.00  0.00    +0.000 OA
BRANCH  11  12
ATOM     12  C   UNL     1      43.485   4.129  11.212  0.00  0.00    +0.000 C 
BRANCH  12  13
ATOM     13  C   UNL     1      44.703   4.598  11.967  0.00  0.00    +0.000 A 
ATOM     14  C   UNL     1      45.025   5.965  12.010  0.00  0.00    +0.000 A 
ATOM     15  C   UNL     1      46.114   6.416  12.757  0.00  0.00    +0.000 A 
ATOM     16  C   UNL     1      46.891   5.505  13.471  0.00  0.00    +0.000 A 
ATOM     17  C   UNL     1      46.571   4.153  13.430  0.00  0.00    +0.000 A 
ATOM     18  F   UNL     1      47.313   3.280  14.124  0.00  0.00    +0.000 F 
ATOM     19  C   UNL     1      45.489   3.691  12.690  0.00  0.00    +0.000 A 
ENDBRANCH  12  13
ENDBRANCH  11  12
ENDBRANCH   4  11
TORSDOF 5
ENDMDL
MODEL 2
REMARK VINA RESULT:    -7.340      1.146      2.002
REMARK INTER + INTRA:          -9.919
REMARK INTER:                  -9.248
REMARK INTRA:                  -0.671
REMARK UNBOUND:                -0.648
REMARK  Name = 
REMARK  5 active torsions:
REMARK  status: ('A' for Active; 'I' for Inactive)
REMARK    1  A    between atoms: N_1  and  C_2
REMARK    2  A    between atoms: C_2  and  C_3
REMARK    3  A    between atoms: C_6  and  O_7
REMARK    4  A    between atoms: O_7  and  C_8
REMARK    5  A    between atoms: C_8  and  C_9
REMARK                            x       y       z     vdW  Elec       q    Type
REMARK                         _______ _______ _______ _____ _____    ______ ____
ROOT
ATOM      1  C   UNL     1      46.540   2.254   7.652  0.00  0.00    +0.000 A 
ATOM      2  C   UNL     1      45.675   1.512   8.469  0.00  0.00    +0.000 A 
ATOM      3  C   UNL     1      44.693   2.152   9.231  0.00  0.00    +0.000 A 
ATOM      4  C   UNL     1      44.570   3.540   9.197  0.00  0.00    +0.000 A 
ATOM      5  C   UNL     1      45.393   4.279   8.346  0.00  0.00    +0.000 A 
ATOM      6  C   UNL     1      46.377   3.643   7.587  0.00  0.00    +0.000 A 
ENDROOT
BRANCH   1   7
ATOM      7  C   UNL     1      47.648   1.582   6.884  0.00  0.00    +0.000 C 
BRANCH   7   8
ATOM      8  N   UNL     1      48.610   2.543   6.364  0.00  0.00    +0.000 NA
ATOM      9  H   UNL     1      49.511   2.386   6.811  0.00  0.00    +0.000 HD
ATOM     10  H   UNL     1      48.314   3.481   6.633  0.00  0.00    +0.000 HD
ENDBRANCH   7   8
ENDBRANCH   1   7
BRANCH   4  11
ATOM     11  O   UNL     1      43.625   4.074  10.030  0.00  0.00    +0.000 OA
BRANCH  11  12
ATOM     12  C   UNL     1      43.606   3.527  11.351  0.00  0.00    +0.000 C 
BRANCH  12  13
ATOM     13  C   UNL     1      44.693   4.164  12.180  0.00  0.00    +0.000 A 
ATOM     14  C   UNL     1      45.709   3.372  12.740  0.00  0.00    +0.000 A 
ATOM     15  C   UNL     1      46.754   3.958  13.457  0.00  0.00    +0.000 A 
ATOM     16  C   UNL     1      46.794   5.343  13.617  0.00  0.00    +0.000 A 
ATOM     17  C   UNL     1      45.790   6.126  13.061  0.00  0.00    +0.000 A 
ATOM     18  F   UNL     1      45.835   7.456  13.208  0.00  0.00    +0.000 F 
ATOM     19  C   UNL     1      44.745   5.554  12.345  0.00  0.00    +0.000 A 
ENDBRANCH  12  13
ENDBRANCH  11  12
ENDBRANCH   4  11
TORSDOF 5
ENDMDL
MODEL 3
REMARK VINA RESULT:    -7.031      3.025      5.675
REMARK INTER + INTRA:          -9.528
REMARK INTER:                  -9.012
REMARK INTRA:                  -0.516
REMARK UNBOUND:                -0.648
REMARK  Name = 
REMARK  5 active torsions:
REMARK  status: ('A' for Active; 'I' for Inactive)
REMARK    1  A    between atoms: N_1  and  C_2
REMARK    2  A    between atoms: C_2  and  C_3
REMARK    3  A    between atoms: C_6  and  O_7
REMARK    4  A    between atoms: O_7  and  C_8
REMARK    5  A    between atoms: C_8  and  C_9
REMARK                            x       y       z     vdW  Elec       q    Type
REMARK                         _______ _______ _______ _____ _____    ______ ____
ROOT
ATOM      1  C   UNL     1      46.946   5.844  13.188  0.00  0.00    +0.000 A 
ATOM      2  C   UNL     1      46.678   6.662  12.080  0.00  0.00    +0.000 A 
ATOM      3  C   UNL     1      45.751   6.266  11.112  0.00  0.00    +0.000 A 
ATOM      4  C   UNL     1      45.088   5.045  11.230  0.00  0.00    +0.000 A 
ATOM      5  C   UNL     1      45.311   4.252  12.356  0.00  0.00    +0.000 A 
ATOM      6  C   UNL     1      46.240   4.643  13.322  0.00  0.00    +0.000 A 
ENDROOT
BRANCH   1   7
ATOM      7  C   UNL     1      47.996   6.226  14.198  0.00  0.00    +0.000 C 
BRANCH   7   8
ATOM      8  N   UNL     1      47.854   5.479  15.439  0.00  0.00    +0.000 NA
ATOM      9  H   UNL     1      48.738   5.023  15.654  0.00  0.00    +0.000 HD
ATOM     10  H   UNL     1      47.173   4.735  15.296  0.00  0.00    +0.000 HD
ENDBRANCH   7   8
ENDBRANCH   1   7
BRANCH   4  11
ATOM     11  O   UNL     1      44.253   4.719  10.196  0.00  0.00    +0.000 OA
BRANCH  11  12
ATOM     12  C   UNL     1      44.142   3.320   9.927  0.00  0.00    +0.000 C 
BRANCH  12  13
ATOM     13  C   UNL     1      45.132   2.928   8.858  0.00  0.00    +0.000 A 
ATOM     14  C   UNL     1      45.662   3.902   7.996  0.00  0.00    +0.000 A 
ATOM     15  C   UNL     1      46.625   3.562   7.044  0.00  0.00    +0.000 A 
ATOM     16  C   UNL     1      47.069   2.244   6.949  0.00  0.00    +0.000 A 
ATOM     17  C   UNL     1      46.546   1.281   7.803  0.00  0.00    +0.000 A 
ATOM     18  F   UNL     1      46.981   0.017   7.716  0.00  0.00    +0.000 F 
ATOM     19  C   UNL     1      45.587   1.608   8.755  0.00  0.00    +0.000 A 
ENDBRANCH  12  13
ENDBRANCH  11  12
ENDBRANCH   4  11
TORSDOF 5
ENDMDL
MODEL 4
REMARK VINA RESULT:    -6.798      3.248      6.108
REMARK INTER + INTRA:          -9.234
REMARK INTER:                  -8.765
REMARK INTRA:                  -0.469
REMARK UNBOUND:                -0.648
REMARK  Name = 
REMARK  5 active torsions:
REMARK  status: ('A' for Active; 'I' for Inactive)
REMARK    1  A    between atoms: N_1  and  C_2
REMARK    2  A    between atoms: C_2  and  C_3
REMARK    3  A    between atoms: C_6  and  O_7
REMARK    4  A    between atoms: O_7  and  C_8
REMARK    5  A    between atoms: C_8  and  C_9
REMARK                            x       y       z     vdW  Elec       q    Type
REMARK                         _______ _______ _______ _____ _____    ______ ____
ROOT
ATOM      1  C   UNL     1      46.354   4.663  13.432  0.00  0.00    +0.000 A 
ATOM      2  C   UNL     1      45.585   3.637  12.863  0.00  0.00    +0.000 A 
ATOM      3  C   UNL     1      45.120   3.742  11.548  0.00  0.00    +0.000 A 
ATOM      4  C   UNL     1      45.405   4.876  10.790  0.00  0.00    +0.000 A 
ATOM      5  C   UNL     1      46.213   5.876  11.332  0.00  0.00    +0.000 A 
ATOM      6  C   UNL     1      46.675   5.776  12.646  0.00  0.00    +0.000 A 
ENDROOT
BRANCH   1   7
ATOM      7  C   UNL     1      46.797   4.594  14.869  0.00  0.00    +0.000 C 
BRANCH   7   8
ATOM      8  N   UNL     1      47.555   3.382  15.147  0.00  0.00    +0.000 NA
ATOM      9  H   UNL     1      48.287   3.282  14.447  0.00  0.00    +0.000 HD
ATOM     10  H   UNL     1      46.938   2.578  15.036  0.00  0.00    +0.000 HD
ENDBRANCH   7   8
ENDBRANCH   1   7
BRANCH   4  11
ATOM     11  O   UNL     1      44.847   4.912   9.541  0.00  0.00    +0.000 OA
BRANCH  11  12
ATOM     12  C   UNL     1      44.327   3.664   9.076  0.00  0.00    +0.000 C 
BRANCH  12  13
ATOM     13  C   UNL     1      45.350   2.982   8.203  0.00  0.00    +0.000 A 
ATOM     14  C   UNL     1      45.832   1.708   8.544  0.00  0.00    +0.000 A 
ATOM     15  C   UNL     1      46.732   1.041   7.711  0.00  0.00    +0.000 A 
ATOM     16  C   UNL     1      47.155   1.641   6.526  0.00  0.00    +0.000 A 
ATOM     17  C   UNL     1      46.676   2.901   6.187  0.00  0.00    +0.000 A 
ATOM     18  F   UNL     1      47.077   3.472   5.044  0.00  0.00    +0.000 F 
ATOM     19  C   UNL     1      45.780   3.575   7.009  0.00  0.00    +0.000 A 
ENDBRANCH  12  13
ENDBRANCH  11  12
ENDBRANCH   4  11
TORSDOF 5
ENDMDL
MODEL 5
REMARK VINA RESULT:    -6.242      2.811      5.615
REMARK INTER + INTRA:          -8.533
REMARK INTER:                  -7.845
REMARK INTRA:                  -0.687
REMARK UNBOUND:                -0.648
REMARK  Name = 
REMARK  5 active torsions:
REMARK  status: ('A' for Active; 'I' for Inactive)
REMARK    1  A    between atoms: N_1  and  C_2
REMARK    2  A    between atoms: C_2  and  C_3
REMARK    3  A    between atoms: C_6  and  O_7
REMARK    4  A    between atoms: O_7  and  C_8
REMARK    5  A    between atoms: C_8  and  C_9
REMARK                            x       y       z     vdW  Elec       q    Type
REMARK                         _______ _______ _______ _____ _____    ______ ____
ROOT
ATOM      1  C   UNL     1      47.399   6.578  13.452  0.00  0.00    +0.000 A 
ATOM      2  C   UNL     1      46.389   7.280  12.778  0.00  0.00    +0.000 A 
ATOM      3  C   UNL     1      45.215   6.633  12.382  0.00  0.00    +0.000 A 
ATOM      4  C   UNL     1      45.038   5.275  12.642  0.00  0.00    +0.000 A 
ATOM      5  C   UNL     1      46.016   4.583  13.359  0.00  0.00    +0.000 A 
ATOM      6  C   UNL     1      47.191   5.226  13.752  0.00  0.00    +0.000 A 
ENDROOT
BRANCH   1   7
ATOM      7  C   UNL     1      48.697   7.247  13.818  0.00  0.00    +0.000 C 
BRANCH   7   8
ATOM      8  N   UNL     1      49.771   6.888  12.903  0.00  0.00    +0.000 NA
ATOM      9  H   UNL     1      50.633   6.773  13.432  0.00  0.00    +0.000 HD
ATOM     10  H   UNL     1      49.928   7.665  12.262  0.00  0.00    +0.000 HD
ENDBRANCH   7   8
ENDBRANCH   1   7
BRANCH   4  11
ATOM     11  O   UNL     1      43.887   4.721  12.153  0.00  0.00    +0.000 OA
BRANCH  11  12
ATOM     12  C   UNL     1      43.602   5.028  10.786  0.00  0.00    +0.000 C 
BRANCH  12  13
ATOM     13  C   UNL     1      44.408   4.127   9.885  0.00  0.00    +0.000 A 
ATOM     14  C   UNL     1      44.217   2.736   9.923  0.00  0.00    +0.000 A 
ATOM     15  C   UNL     1      44.912   1.898   9.050  0.00  0.00    +0.000 A 
ATOM     16  C   UNL     1      45.805   2.444   8.128  0.00  0.00    +0.000 A 
ATOM     17  C   UNL     1      45.993   3.821   8.089  0.00  0.00    +0.000 A 
ATOM     18  F   UNL     1      46.843   4.344   7.197  0.00  0.00    +0.000 F 
ATOM     19  C   UNL     1      45.305   4.665   8.953  0.00  0.00    +0.000 A 
ENDBRANCH  12  13
ENDBRANCH  11  12
ENDBRANCH   4  11
TORSDOF 5
ENDMDL
MODEL 6
REMARK VINA RESULT:    -5.455      3.453      6.292
REMARK INTER + INTRA:          -7.538
REMARK INTER:                  -7.097
REMARK INTRA:                  -0.441
REMARK UNBOUND:                -0.648
REMARK  Name = 
REMARK  5 active torsions:
REMARK  status: ('A' for Active; 'I' for Inactive)
REMARK    1  A    between atoms: N_1  and  C_2
REMARK    2  A    between atoms: C_2  and  C_3
REMARK    3  A    between atoms: C_6  and  O_7
REMARK    4  A    between atoms: O_7  and  C_8
REMARK    5  A    between atoms: C_8  and  C_9
REMARK                            x       y       z     vdW  Elec       q    Type
REMARK                         _______ _______ _______ _____ _____    ______ ____
ROOT
ATOM      1  C   UNL     1      47.903   5.130  15.649  0.00  0.00    +0.000 A 
ATOM      2  C   UNL     1      48.266   6.280  14.932  0.00  0.00    +0.000 A 
ATOM      3  C   UNL     1      47.702   6.546  13.681  0.00  0.00    +0.000 A 
ATOM      4  C   UNL     1      46.777   5.664  13.124  0.00  0.00    +0.000 A 
ATOM      5  C   UNL     1      46.372   4.546  13.855  0.00  0.00    +0.000 A 
ATOM      6  C   UNL     1      46.937   4.276  15.102  0.00  0.00    +0.000 A 
ENDROOT
BRANCH   1   7
ATOM      7  C   UNL     1      48.558   4.796  16.962  0.00  0.00    +0.000 C 
BRANCH   7   8
ATOM      8  N   UNL     1      49.385   3.601  16.870  0.00  0.00    +0.000 NA
ATOM      9  H   UNL     1      50.285   3.787  17.308  0.00  0.00    +0.000 HD
ATOM     10  H   UNL     1      49.576   3.412  15.886  0.00  0.00    +0.000 HD
ENDBRANCH   7   8
ENDBRANCH   1   7
BRANCH   4  11
ATOM     11  O   UNL     1      46.337   5.979  11.868  0.00  0.00    +0.000 OA
BRANCH  11  12
ATOM     12  C   UNL     1      45.059   5.439  11.522  0.00  0.00    +0.000 C 
BRANCH  12  13
ATOM     13  C   UNL     1      45.183   4.604  10.272  0.00  0.00    +0.000 A 
ATOM     14  C   UNL     1      45.810   5.131   9.131  0.00  0.00    +0.000 A 
ATOM     15  C   UNL     1      45.986   4.347   7.990  0.00  0.00    +0.000 A 
ATOM     16  C   UNL     1      45.538   3.026   7.980  0.00  0.00    +0.000 A 
ATOM     17  C   UNL     1      44.919   2.505   9.110  0.00  0.00    +0.000 A 
ATOM     18  F   UNL     1      44.498   1.234   9.102  0.00  0.00    +0.000 F 
ATOM     19  C   UNL     1      44.739   3.276  10.252  0.00  0.00    +0.000 A 
ENDBRANCH  12  13
ENDBRANCH  11  12
ENDBRANCH   4  11
TORSDOF 5
ENDMDL
MODEL 7
REMARK VINA RESULT:    -5.406      5.021      7.714
REMARK INTER + INTRA:          -7.476
REMARK INTER:                  -7.023
REMARK INTRA:                  -0.453
REMARK UNBOUND:                -0.648
REMARK  Name = 
REMARK  5 active torsions:
REMARK  status: ('A' for Active; 'I' for Inactive)
REMARK    1  A    between atoms: N_1  and  C_2
REMARK    2  A    between atoms: C_2  and  C_3
REMARK    3  A    between atoms: C_6  and  O_7
REMARK    4  A    between atoms: O_7  and  C_8
REMARK    5  A    between atoms: C_8  and  C_9
REMARK                            x       y       z     vdW  Elec       q    Type
REMARK                         _______ _______ _______ _____ _____    ______ ____
ROOT
ATOM      1  C   UNL     1      48.396   4.485  18.349  0.00  0.00    +0.000 A 
ATOM      2  C   UNL     1      48.343   5.432  17.316  0.00  0.00    +0.000 A 
ATOM      3  C   UNL     1      47.925   5.063  16.034  0.00  0.00    +0.000 A 
ATOM      4  C   UNL     1      47.565   3.744  15.763  0.00  0.00    +0.000 A 
ATOM      5  C   UNL     1      47.565   2.809  16.799  0.00  0.00    +0.000 A 
ATOM      6  C   UNL     1      47.987   3.173  18.079  0.00  0.00    +0.000 A 
ENDROOT
BRANCH   1   7
ATOM      7  C   UNL     1      48.914   4.854  19.714  0.00  0.00    +0.000 C 
BRANCH   7   8
ATOM      8  N   UNL     1      48.477   3.912  20.735  0.00  0.00    +0.000 NA
ATOM      9  H   UNL     1      48.446   4.390  21.633  0.00  0.00    +0.000 HD
ATOM     10  H   UNL     1      49.178   3.177  20.823  0.00  0.00    +0.000 HD
ENDBRANCH   7   8
ENDBRANCH   1   7
BRANCH   4  11
ATOM     11  O   UNL     1      47.237   3.472  14.463  0.00  0.00    +0.000 OA
BRANCH  11  12
ATOM     12  C   UNL     1      47.026   4.622  13.640  0.00  0.00    +0.000 C 
BRANCH  12  13
ATOM     13  C   UNL     1      45.627   4.593  13.078  0.00  0.00    +0.000 A 
ATOM     14  C   UNL     1      44.890   5.783  12.957  0.00  0.00    +0.000 A 
ATOM     15  C   UNL     1      43.619   5.777  12.381  0.00  0.00    +0.000 A 
ATOM     16  C   UNL     1      43.073   4.581  11.917  0.00  0.00    +0.000 A 
ATOM     17  C   UNL     1      43.803   3.404  12.035  0.00  0.00    +0.000 A 
ATOM     18  F   UNL     1      43.281   2.257  11.581  0.00  0.00    +0.000 F 
ATOM     19  C   UNL     1      45.070   3.397  12.607  0.00  0.00    +0.000 A 
ENDBRANCH  12  13
ENDBRANCH  11  12
ENDBRANCH   4  11
TORSDOF 5
ENDMDL
MODEL 8
REMARK VINA RESULT:    -5.349      4.108      6.742
REMARK INTER + INTRA:          -7.404
REMARK INTER:                  -7.016
REMARK INTRA:                  -0.389
REMARK UNBOUND:                -0.648
REMARK  Name = 
REMARK  5 active torsions:
REMARK  status: ('A' for Active; 'I' for Inactive)
REMARK    1  A    between atoms: N_1  and  C_2
REMARK    2  A    between atoms: C_2  and  C_3
REMARK    3  A    between atoms: C_6  and  O_7
REMARK    4  A    between atoms: O_7  and  C_8
REMARK    5  A    between atoms: C_8  and  C_9
REMARK                            x       y       z     vdW  Elec       q    Type
REMARK                         _______ _______ _______ _____ _____    ______ ____
ROOT
ATOM      1  C   UNL     1      47.804   4.639  16.333  0.00  0.00    +0.000 A 
ATOM      2  C   UNL     1      47.090   4.145  15.232  0.00  0.00    +0.000 A 
ATOM      3  C   UNL     1      47.044   4.864  14.034  0.00  0.00    +0.000 A 
ATOM      4  C   UNL     1      47.698   6.090  13.923  0.00  0.00    +0.000 A 
ATOM      5  C   UNL     1      48.453   6.562  14.998  0.00  0.00    +0.000 A 
ATOM      6  C   UNL     1      48.497   5.848  16.197  0.00  0.00    +0.000 A 
ENDROOT
BRANCH   1   7
ATOM      7  C   UNL     1      47.800   3.909  17.650  0.00  0.00    +0.000 C 
BRANCH   7   8
ATOM      8  N   UNL     1      46.719   2.937  17.731  0.00  0.00    +0.000 NA
ATOM      9  H   UNL     1      46.032   3.262  18.407  0.00  0.00    +0.000 HD
ATOM     10  H   UNL     1      47.094   2.063  18.097  0.00  0.00    +0.000 HD
ENDBRANCH   7   8
ENDBRANCH   1   7
BRANCH   4  11
ATOM     11  O   UNL     1      47.533   6.746  12.734  0.00  0.00    +0.000 OA
BRANCH  11  12
ATOM     12  C   UNL     1      46.256   7.363  12.556  0.00  0.00    +0.000 C 
BRANCH  12  13
ATOM     13  C   UNL     1      45.368   6.462  11.735  0.00  0.00    +0.000 A 
ATOM     14  C   UNL     1      45.890   5.776  10.625  0.00  0.00    +0.000 A 
ATOM     15  C   UNL     1      45.094   4.892   9.896  0.00  0.00    +0.000 A 
ATOM     16  C   UNL     1      43.767   4.683  10.271  0.00  0.00    +0.000 A 
ATOM     17  C   UNL     1      43.251   5.360  11.370  0.00  0.00    +0.000 A 
ATOM     18  F   UNL     1      41.979   5.152  11.733  0.00  0.00    +0.000 F 
ATOM     19  C   UNL     1      44.035   6.243  12.104  0.00  0.00    +0.000 A 
ENDBRANCH  12  13
ENDBRANCH  11  12
ENDBRANCH   4  11
TORSDOF 5
ENDMDL
