MODEL 1
REMARK VINA RESULT:    -8.822      0.000      0.000
REMARK INTER + INTRA:         -12.241
REMARK INTER:                 -11.400
REMARK INTRA:                  -0.840
REMARK UNBOUND:                -0.840
REMARK  Name = 
REMARK  6 active torsions:
REMARK  status: ('A' for Active; 'I' for Inactive)
REMARK    1  A    between atoms: C_1  and  C_2
REMARK    2  A    between atoms: C_4  and  O_5
REMARK    3  A    between atoms: O_5  and  C_6
REMARK    4  A    between atoms: C_6  and  C_7
REMARK    5  A    between atoms: C_11  and  C_12
REMARK    6  A    between atoms: C_22  and  C_23
REMARK                            x       y       z     vdW  Elec       q    Type
REMARK                         _______ _______ _______ _____ _____    ______ ____
ROOT
ATOM      1  C   UNL     1      43.708   4.615  10.559  0.00  0.00    +0.000 C 
ENDROOT
BRANCH   1   2
ATOM      2  C   UNL     1      44.817   4.910  11.545  0.00  0.00    +0.000 A 
ATOM      3  C   UNL     1      45.142   3.978  12.537  0.00  0.00    +0.000 A 
ATOM      4  C   UNL     1      46.200   4.220  13.409  0.00  0.00    +0.000 A 
ATOM      5  C   UNL     1      46.957   5.387  13.284  0.00  0.00    +0.000 A 
ATOM      6  C   UNL     1      46.693   6.329  12.274  0.00  0.00    +0.000 A 
ATOM      7  C   UNL     1      45.606   6.066  11.418  0.00  0.00    +0.000 A 
BRANCH   6   8
ATOM      8  C   UNL     1      47.540   7.528  12.087  0.00  0.00    +0.000 A 
ATOM      9  C   UNL     1      47.009   8.829  12.190  0.00  0.00    +0.000 A 
ATOM     10  C   UNL     1      47.804   9.961  11.981  0.00  0.00    +0.000 A 
ATOM     11  C   UNL     1      49.155   9.819  11.686  0.00  0.00    +0.000 A 
ATOM     12  C   UNL     1      49.704   8.546  11.588  0.00  0.00    +0.000 A 
ATOM     13 CL   UNL     1      51.377   8.360  11.229  0.00  0.00    +0.000 Cl
ATOM     14  C   UNL     1      48.908   7.414  11.776  0.00  0.00    +0.000 A 
ENDBRANCH   6   8
ENDBRANCH   1   2
BRANCH   1  15
ATOM     15  O   UNL     1      43.765   3.254  10.113  0.00  0.00    +0.000 OA
BRANCH  15  19
ATOM     16  C   UNL     1      46.718   0.191   7.737  0.00  0.00    +0.000 C 
ATOM     17  C   UNL     1      46.159   1.574   7.923  0.00  0.00    +0.000 A 
ATOM     18  C   UNL     1      45.199   1.797   8.926  0.00  0.00    +0.000 A 
ATOM     19  C   UNL     1      44.691   3.077   9.106  0.00  0.00    +0.000 A 
ATOM     20  N   UNL     1      45.067   4.135   8.360  0.00  0.00    +0.000 NA
ATOM     21  C   UNL     1      45.999   3.906   7.406  0.00  0.00    +0.000 A 
ATOM     22  C   UNL     1      46.566   2.665   7.134  0.00  0.00    +0.000 A 
BRANCH  22  23
ATOM     23  C   UNL     1      47.601   2.554   6.069  0.00  0.00    +0.000 C 
ATOM     24  N   UNL     1      48.913   2.553   6.454  0.00  0.00    +0.000 N 
ATOM     25  O   UNL     1      47.316   2.472   4.884  0.00  0.00    +0.000 OA
ATOM     26  H   UNL     1      49.242   2.800   7.377  0.00  0.00    +0.000 HD
ATOM     27  H   UNL     1      49.597   2.536   5.706  0.00  0.00    +0.000 HD
ENDBRANCH  22  23
ENDBRANCH  15  19
ENDBRANCH   1  15
TORSDOF 5
ENDMDL
MODEL 2
REMARK VINA RESULT:    -8.597      1.861      2.198
REMARK INTER + INTRA:         -11.951
REMARK INTER:                 -11.250
REMARK INTRA:                  -0.701
REMARK UNBOUND:                -0.840
REMARK  Name = 
REMARK  6 active torsions:
REMARK  status: ('A' for Active; 'I' for Inactive)
REMARK    1  A    between atoms: C_1  and  C_2
REMARK    2  A    between atoms: C_4  and  O_5
REMARK    3  A    between atoms: O_5  and  C_6
REMARK    4  A    between atoms: C_6  and  C_7
REMARK    5  A    between atoms: C_11  and  C_12
REMARK    6  A    between atoms: C_22  and  C_23
REMARK                            x       y       z     vdW  Elec       q    Type
REMARK                         _______ _______ _______ _____ _____    ______ ____
ROOT
ATOM      1  C   UNL     1      44.055   3.153  11.374  0.00  0.00    +0.000 C 
ENDROOT
BRANCH   1   2
ATOM      2  C   UNL     1      45.080   3.944  12.158  0.00  0.00    +0.000 A 
ATOM      3  C   UNL     1      45.975   3.285  13.008  0.00  0.00    +0.000 A 
ATOM      4  C   UNL     1      46.957   4.001  13.686  0.00  0.00    +0.000 A 
ATOM      5  C   UNL     1      47.069   5.382  13.502  0.00  0.00    +0.000 A 
ATOM      6  C   UNL     1      46.219   6.077  12.623  0.00  0.00    +0.000 A 
ATOM      7  C   UNL     1      45.224   5.328  11.966  0.00  0.00    +0.000 A 
BRANCH   6   8
ATOM      8  C   UNL     1      46.383   7.525  12.365  0.00  0.00    +0.000 A 
ATOM      9  C   UNL     1      47.655   8.132  12.351  0.00  0.00    +0.000 A 
ATOM     10  C   UNL     1      47.806   9.506  12.140  0.00  0.00    +0.000 A 
ATOM     11  C   UNL     1      46.691  10.304  11.916  0.00  0.00    +0.000 A 
ATOM     12  C   UNL     1      45.426   9.727  11.916  0.00  0.00    +0.000 A 
ATOM     13 CL   UNL     1      44.038  10.705  11.634  0.00  0.00    +0.000 Cl
ATOM     14  C   UNL     1      45.271   8.358  12.147  0.00  0.00    +0.000 A 
ENDBRANCH   6   8
ENDBRANCH   1   2
BRANCH   1  15
ATOM     15  O   UNL     1      43.797   3.763  10.103  0.00  0.00    +0.000 OA
BRANCH  15  19
ATOM     16  C   UNL     1      46.385   0.253   7.927  0.00  0.00    +0.000 C 
ATOM     17  C   UNL     1      46.046   1.710   8.084  0.00  0.00    +0.000 A 
ATOM     18  C   UNL     1      45.061   2.089   9.013  0.00  0.00    +0.000 A 
ATOM     19  C   UNL     1      44.756   3.435   9.167  0.00  0.00    +0.000 A 
ATOM     20  N   UNL     1      45.355   4.415   8.462  0.00  0.00    +0.000 NA
ATOM     21  C   UNL     1      46.307   4.035   7.579  0.00  0.00    +0.000 A 
ATOM     22  C   UNL     1      46.684   2.718   7.338  0.00  0.00    +0.000 A 
BRANCH  22  23
ATOM     23  C   UNL     1      47.765   2.437   6.353  0.00  0.00    +0.000 C 
ATOM     24  N   UNL     1      47.649   2.986   5.106  0.00  0.00    +0.000 N 
ATOM     25  O   UNL     1      48.729   1.737   6.621  0.00  0.00    +0.000 OA
ATOM     26  H   UNL     1      46.810   3.416   4.743  0.00  0.00    +0.000 HD
ATOM     27  H   UNL     1      48.366   2.731   4.438  0.00  0.00    +0.000 HD
ENDBRANCH  22  23
ENDBRANCH  15  19
ENDBRANCH   1  15
TORSDOF 5
ENDMDL
MODEL 3
REMARK VINA RESULT:    -8.274      1.395      1.931
REMARK INTER + INTRA:         -11.533
REMARK INTER:                 -10.828
REMARK INTRA:                  -0.705
REMARK UNBOUND:                -0.840
REMARK  Name = 
REMARK  6 active torsions:
REMARK  status: ('A' for Active; 'I' for Inactive)
REMARK    1  A    between atoms: C_1  and  C_2
REMARK    2  A    between atoms: C_4  and  O_5
REMARK    3  A    between atoms: O_5  and  C_6
REMARK    4  A    between atoms: C_6  and  C_7
REMARK    5  A    between atoms: C_11  and  C_12
REMARK    6  A    between atoms: C_22  and  C_23
REMARK                            x       y       z     vdW  Elec       q    Type
REMARK                         _______ _______ _______ _____ _____    ______ ____
ROOT
ATOM      1  C   UNL     1      44.504   3.490  11.545  0.00  0.00    +0.000 C 
ENDROOT
BRANCH   1   2
ATOM      2  C   UNL     1      44.847   4.964  11.603  0.00  0.00    +0.000 A 
ATOM      3  C   UNL     1      43.841   5.925  11.450  0.00  0.00    +0.000 A 
ATOM      4  C   UNL     1      44.142   7.279  11.562  0.00  0.00    +0.000 A 
ATOM      5  C   UNL     1      45.447   7.685  11.850  0.00  0.00    +0.000 A 
ATOM      6  C   UNL     1      46.478   6.751  12.055  0.00  0.00    +0.000 A 
ATOM      7  C   UNL     1      46.148   5.390  11.918  0.00  0.00    +0.000 A 
BRANCH   6   8
ATOM      8  C   UNL     1      47.844   7.173  12.438  0.00  0.00    +0.000 A 
ATOM      9  C   UNL     1      48.709   7.797  11.516  0.00  0.00    +0.000 A 
ATOM     10  C   UNL     1      50.011   8.164  11.870  0.00  0.00    +0.000 A 
ATOM     11  C   UNL     1      50.474   7.937  13.160  0.00  0.00    +0.000 A 
ATOM     12  C   UNL     1      49.637   7.331  14.090  0.00  0.00    +0.000 A 
ATOM     13 CL   UNL     1      50.198   7.050  15.693  0.00  0.00    +0.000 Cl
ATOM     14  C   UNL     1      48.342   6.944  13.734  0.00  0.00    +0.000 A 
ENDBRANCH   6   8
ENDBRANCH   1   2
BRANCH   1  15
ATOM     15  O   UNL     1      43.829   3.166  10.324  0.00  0.00    +0.000 OA
BRANCH  15  19
ATOM     16  C   UNL     1      46.733   0.245   7.720  0.00  0.00    +0.000 C 
ATOM     17  C   UNL     1      46.148   1.607   7.970  0.00  0.00    +0.000 A 
ATOM     18  C   UNL     1      45.237   1.779   9.027  0.00  0.00    +0.000 A 
ATOM     19  C   UNL     1      44.705   3.040   9.265  0.00  0.00    +0.000 A 
ATOM     20  N   UNL     1      45.013   4.125   8.528  0.00  0.00    +0.000 NA
ATOM     21  C   UNL     1      45.898   3.945   7.521  0.00  0.00    +0.000 A 
ATOM     22  C   UNL     1      46.483   2.728   7.188  0.00  0.00    +0.000 A 
BRANCH  22  23
ATOM     23  C   UNL     1      47.463   2.671   6.068  0.00  0.00    +0.000 C 
ATOM     24  N   UNL     1      48.791   2.614   6.387  0.00  0.00    +0.000 N 
ATOM     25  O   UNL     1      47.119   2.680   4.896  0.00  0.00    +0.000 OA
ATOM     26  H   UNL     1      49.170   2.787   7.307  0.00  0.00    +0.000 HD
ATOM     27  H   UNL     1      49.438   2.636   5.607  0.00  0.00    +0.000 HD
ENDBRANCH  22  23
ENDBRANCH  15  19
ENDBRANCH   1  15
TORSDOF 5
ENDMDL
MODEL 4
REMARK VINA RESULT:    -8.108      2.417      3.864
REMARK INTER + INTRA:         -11.318
REMARK INTER:                 -11.039
REMARK INTRA:                  -0.279
REMARK UNBOUND:                -0.840
REMARK  Name = 
REMARK  6 active torsions:
REMARK  status: ('A' for Active; 'I' for Inactive)
REMARK    1  A    between atoms: C_1  and  C_2
REMARK    2  A    between atoms: C_4  and  O_5
REMARK    3  A    between atoms: O_5  and  C_6
REMARK    4  A    between atoms: C_6  and  C_7
REMARK    5  A    between atoms: C_11  and  C_12
REMARK    6  A    between atoms: C_22  and  C_23
REMARK                            x       y       z     vdW  Elec       q    Type
REMARK                         _______ _______ _______ _____ _____    ______ ____
ROOT
ATOM      1  C   UNL     1      43.758   4.527  11.395  0.00  0.00    +0.000 C 
ENDROOT
BRANCH   1   2
ATOM      2  C   UNL     1      45.003   5.227  11.897  0.00  0.00    +0.000 A 
ATOM      3  C   UNL     1      45.462   6.385  11.260  0.00  0.00    +0.000 A 
ATOM      4  C   UNL     1      46.571   7.066  11.754  0.00  0.00    +0.000 A 
ATOM      5  C   UNL     1      47.219   6.607  12.903  0.00  0.00    +0.000 A 
ATOM      6  C   UNL     1      46.763   5.473  13.600  0.00  0.00    +0.000 A 
ATOM      7  C   UNL     1      45.651   4.796  13.066  0.00  0.00    +0.000 A 
BRANCH   6   8
ATOM      8  C   UNL     1      47.398   5.029  14.861  0.00  0.00    +0.000 A 
ATOM      9  C   UNL     1      47.145   3.753  15.404  0.00  0.00    +0.000 A 
ATOM     10  C   UNL     1      47.719   3.347  16.613  0.00  0.00    +0.000 A 
ATOM     11  C   UNL     1      48.577   4.198  17.298  0.00  0.00    +0.000 A 
ATOM     12  C   UNL     1      48.849   5.460  16.779  0.00  0.00    +0.000 A 
ATOM     13 CL   UNL     1      49.914   6.519  17.617  0.00  0.00    +0.000 Cl
ATOM     14  C   UNL     1      48.261   5.875  15.582  0.00  0.00    +0.000 A 
ENDBRANCH   6   8
ENDBRANCH   1   2
BRANCH   1  15
ATOM     15  O   UNL     1      43.659   4.614   9.968  0.00  0.00    +0.000 OA
BRANCH  15  19
ATOM     16  C   UNL     1      47.017   3.816   6.528  0.00  0.00    +0.000 C 
ATOM     17  C   UNL     1      46.143   3.296   7.635  0.00  0.00    +0.000 A 
ATOM     18  C   UNL     1      45.300   4.188   8.320  0.00  0.00    +0.000 A 
ATOM     19  C   UNL     1      44.483   3.706   9.335  0.00  0.00    +0.000 A 
ATOM     20  N   UNL     1      44.454   2.413   9.711  0.00  0.00    +0.000 NA
ATOM     21  C   UNL     1      45.265   1.565   9.036  0.00  0.00    +0.000 A 
ATOM     22  C   UNL     1      46.127   1.941   8.012  0.00  0.00    +0.000 A 
BRANCH  22  23
ATOM     23  C   UNL     1      46.951   0.902   7.333  0.00  0.00    +0.000 C 
ATOM     24  N   UNL     1      46.725  -0.406   7.664  0.00  0.00    +0.000 N 
ATOM     25  O   UNL     1      47.810   1.180   6.511  0.00  0.00    +0.000 OA
ATOM     26  H   UNL     1      46.176  -0.713   8.454  0.00  0.00    +0.000 HD
ATOM     27  H   UNL     1      47.338  -1.087   7.232  0.00  0.00    +0.000 HD
ENDBRANCH  22  23
ENDBRANCH  15  19
ENDBRANCH   1  15
TORSDOF 5
ENDMDL
MODEL 5
REMARK VINA RESULT:    -7.732      4.962      8.450
REMARK INTER + INTRA:         -10.832
REMARK INTER:                 -10.118
REMARK INTRA:                  -0.715
REMARK UNBOUND:                -0.840
REMARK  Name = 
REMARK  6 active torsions:
REMARK  status: ('A' for Active; 'I' for Inactive)
REMARK    1  A    between atoms: C_1  and  C_2
REMARK    2  A    between atoms: C_4  and  O_5
REMARK    3  A    between atoms: O_5  and  C_6
REMARK    4  A    between atoms: C_6  and  C_7
REMARK    5  A    between atoms: C_11  and  C_12
REMARK    6  A    between atoms: C_22  and  C_23
REMARK                            x       y       z     vdW  Elec       q    Type
REMARK                         _______ _______ _______ _____ _____    ______ ____
ROOT
ATOM      1  C   UNL     1      45.863   5.200  13.659  0.00  0.00    +0.000 C 
ENDROOT
BRANCH   1   2
ATOM      2  C   UNL     1      45.050   4.878  12.424  0.00  0.00    +0.000 A 
ATOM      3  C   UNL     1      43.718   5.298  12.331  0.00  0.00    +0.000 A 
ATOM      4  C   UNL     1      42.985   5.056  11.173  0.00  0.00    +0.000 A 
ATOM      5  C   UNL     1      43.583   4.412  10.088  0.00  0.00    +0.000 A 
ATOM      6  C   UNL     1      44.931   4.014  10.122  0.00  0.00    +0.000 A 
ATOM      7  C   UNL     1      45.642   4.255  11.313  0.00  0.00    +0.000 A 
BRANCH   6   8
ATOM      8  C   UNL     1      45.592   3.402   8.947  0.00  0.00    +0.000 A 
ATOM      9  C   UNL     1      46.041   4.184   7.864  0.00  0.00    +0.000 A 
ATOM     10  C   UNL     1      46.635   3.601   6.740  0.00  0.00    +0.000 A 
ATOM     11  C   UNL     1      46.815   2.224   6.681  0.00  0.00    +0.000 A 
ATOM     12  C   UNL     1      46.387   1.432   7.741  0.00  0.00    +0.000 A 
ATOM     13 CL   UNL     1      46.609  -0.273   7.680  0.00  0.00    +0.000 Cl
ATOM     14  C   UNL     1      45.775   2.010   8.856  0.00  0.00    +0.000 A 
ENDBRANCH   6   8
ENDBRANCH   1   2
BRANCH   1  15
ATOM     15  O   UNL     1      46.362   4.005  14.273  0.00  0.00    +0.000 OA
BRANCH  15  19
ATOM     16  C   UNL     1      49.664   6.708  16.626  0.00  0.00    +0.000 C 
ATOM     17  C   UNL     1      48.655   5.594  16.633  0.00  0.00    +0.000 A 
ATOM     18  C   UNL     1      47.945   5.304  15.454  0.00  0.00    +0.000 A 
ATOM     19  C   UNL     1      47.022   4.267  15.456  0.00  0.00    +0.000 A 
ATOM     20  N   UNL     1      46.756   3.514  16.542  0.00  0.00    +0.000 NA
ATOM     21  C   UNL     1      47.453   3.799  17.666  0.00  0.00    +0.000 A 
ATOM     22  C   UNL     1      48.393   4.819  17.777  0.00  0.00    +0.000 A 
BRANCH  22  23
ATOM     23  C   UNL     1      49.109   5.013  19.069  0.00  0.00    +0.000 C 
ATOM     24  N   UNL     1      50.212   4.241  19.307  0.00  0.00    +0.000 N 
ATOM     25  O   UNL     1      48.741   5.822  19.907  0.00  0.00    +0.000 OA
ATOM     26  H   UNL     1      50.476   3.431  18.765  0.00  0.00    +0.000 HD
ATOM     27  H   UNL     1      50.644   4.351  20.217  0.00  0.00    +0.000 HD
ENDBRANCH  22  23
ENDBRANCH  15  19
ENDBRANCH   1  15
TORSDOF 5
ENDMDL
MODEL 6
REMARK VINA RESULT:    -7.716      4.033      7.299
REMARK INTER + INTRA:         -10.812
REMARK INTER:                  -9.896
REMARK INTRA:                  -0.917
REMARK UNBOUND:                -0.840
REMARK  Name = 
REMARK  6 active torsions:
REMARK  status: ('A' for Active; 'I' for Inactive)
REMARK    1  A    between atoms: C_1  and  C_2
REMARK    2  A    between atoms: C_4  and  O_5
REMARK    3  A    between atoms: O_5  and  C_6
REMARK    4  A    between atoms: C_6  and  C_7
REMARK    5  A    between atoms: C_11  and  C_12
REMARK    6  A    between atoms: C_22  and  C_23
REMARK                            x       y       z     vdW  Elec       q    Type
REMARK                         _______ _______ _______ _____ _____    ______ ____
ROOT
ATOM      1  C   UNL     1      44.469   7.212  11.662  0.00  0.00    +0.000 C 
ENDROOT
BRANCH   1   2
ATOM      2  C   UNL     1      44.305   5.741  11.343  0.00  0.00    +0.000 A 
ATOM      3  C   UNL     1      43.350   4.978  12.023  0.00  0.00    +0.000 A 
ATOM      4  C   UNL     1      43.154   3.640  11.692  0.00  0.00    +0.000 A 
ATOM      5  C   UNL     1      43.897   3.058  10.662  0.00  0.00    +0.000 A 
ATOM      6  C   UNL     1      44.835   3.801   9.923  0.00  0.00    +0.000 A 
ATOM      7  C   UNL     1      45.024   5.146  10.293  0.00  0.00    +0.000 A 
BRANCH   6   8
ATOM      8  C   UNL     1      45.568   3.212   8.780  0.00  0.00    +0.000 A 
ATOM      9  C   UNL     1      46.055   4.010   7.726  0.00  0.00    +0.000 A 
ATOM     10  C   UNL     1      46.718   3.448   6.631  0.00  0.00    +0.000 A 
ATOM     11  C   UNL     1      46.931   2.076   6.573  0.00  0.00    +0.000 A 
ATOM     12  C   UNL     1      46.467   1.268   7.606  0.00  0.00    +0.000 A 
ATOM     13 CL   UNL     1      46.731  -0.432   7.547  0.00  0.00    +0.000 Cl
ATOM     14  C   UNL     1      45.787   1.825   8.691  0.00  0.00    +0.000 A 
ENDBRANCH   6   8
ENDBRANCH   1   2
BRANCH   1  15
ATOM     15  O   UNL     1      45.352   7.402  12.774  0.00  0.00    +0.000 OA
BRANCH  15  19
ATOM     16  C   UNL     1      50.026   7.689  11.427  0.00  0.00    +0.000 C 
ATOM     17  C   UNL     1      48.735   8.369  11.789  0.00  0.00    +0.000 A 
ATOM     18  C   UNL     1      47.612   7.584  12.106  0.00  0.00    +0.000 A 
ATOM     19  C   UNL     1      46.422   8.211  12.453  0.00  0.00    +0.000 A 
ATOM     20  N   UNL     1      46.277   9.550  12.499  0.00  0.00    +0.000 NA
ATOM     21  C   UNL     1      47.369  10.291  12.200  0.00  0.00    +0.000 A 
ATOM     22  C   UNL     1      48.604   9.769  11.832  0.00  0.00    +0.000 A 
BRANCH  22  23
ATOM     23  C   UNL     1      49.735  10.697  11.550  0.00  0.00    +0.000 C 
ATOM     24  N   UNL     1      50.401  11.230  12.619  0.00  0.00    +0.000 N 
ATOM     25  O   UNL     1      50.071  10.995  10.415  0.00  0.00    +0.000 OA
ATOM     26  H   UNL     1      50.081  11.188  13.576  0.00  0.00    +0.000 HD
ATOM     27  H   UNL     1      51.126  11.903  12.401  0.00  0.00    +0.000 HD
ENDBRANCH  22  23
ENDBRANCH  15  19
ENDBRANCH   1  15
TORSDOF 5
ENDMDL
MODEL 7
REMARK VINA RESULT:    -7.609      4.103      7.466
REMARK INTER + INTRA:         -10.674
REMARK INTER:                 -10.221
REMARK INTRA:                  -0.453
REMARK UNBOUND:                -0.840
REMARK  Name = 
REMARK  6 active torsions:
REMARK  status: ('A' for Active; 'I' for Inactive)
REMARK    1  A    between atoms: C_1  and  C_2
REMARK    2  A    between atoms: C_4  and  O_5
REMARK    3  A    between atoms: O_5  and  C_6
REMARK    4  A    between atoms: C_6  and  C_7
REMARK    5  A    between atoms: C_11  and  C_12
REMARK    6  A    between atoms: C_22  and  C_23
REMARK                            x       y       z     vdW  Elec       q    Type
REMARK                         _______ _______ _______ _____ _____    ______ ____
ROOT
ATOM      1  C   UNL     1      44.957   7.282  11.658  0.00  0.00    +0.000 C 
ENDROOT
BRANCH   1   2
ATOM      2  C   UNL     1      44.595   5.867  11.263  0.00  0.00    +0.000 A 
ATOM      3  C   UNL     1      43.491   5.235  11.847  0.00  0.00    +0.000 A 
ATOM      4  C   UNL     1      43.119   3.956  11.443  0.00  0.00    +0.000 A 
ATOM      5  C   UNL     1      43.834   3.304  10.435  0.00  0.00    +0.000 A 
ATOM      6  C   UNL     1      44.921   3.920   9.791  0.00  0.00    +0.000 A 
ATOM      7  C   UNL     1      45.285   5.206  10.232  0.00  0.00    +0.000 A 
BRANCH   6   8
ATOM      8  C   UNL     1      45.632   3.267   8.669  0.00  0.00    +0.000 A 
ATOM      9  C   UNL     1      46.094   4.003   7.560  0.00  0.00    +0.000 A 
ATOM     10  C   UNL     1      46.737   3.380   6.486  0.00  0.00    +0.000 A 
ATOM     11  C   UNL     1      46.953   2.007   6.504  0.00  0.00    +0.000 A 
ATOM     12  C   UNL     1      46.513   1.260   7.591  0.00  0.00    +0.000 A 
ATOM     13 CL   UNL     1      46.781  -0.440   7.626  0.00  0.00    +0.000 Cl
ATOM     14  C   UNL     1      45.853   1.877   8.656  0.00  0.00    +0.000 A 
ENDBRANCH   6   8
ENDBRANCH   1   2
BRANCH   1  15
ATOM     15  O   UNL     1      46.370   7.499  11.558  0.00  0.00    +0.000 OA
BRANCH  15  19
ATOM     16  C   UNL     1      47.260   4.140  14.975  0.00  0.00    +0.000 C 
ATOM     17  C   UNL     1      47.475   5.523  14.426  0.00  0.00    +0.000 A 
ATOM     18  C   UNL     1      46.839   5.893  13.228  0.00  0.00    +0.000 A 
ATOM     19  C   UNL     1      47.027   7.174  12.727  0.00  0.00    +0.000 A 
ATOM     20  N   UNL     1      47.802   8.098  13.328  0.00  0.00    +0.000 NA
ATOM     21  C   UNL     1      48.400   7.730  14.485  0.00  0.00    +0.000 A 
ATOM     22  C   UNL     1      48.287   6.474  15.070  0.00  0.00    +0.000 A 
BRANCH  22  23
ATOM     23  C   UNL     1      48.981   6.205  16.361  0.00  0.00    +0.000 C 
ATOM     24  N   UNL     1      48.339   6.565  17.515  0.00  0.00    +0.000 N 
ATOM     25  O   UNL     1      50.086   5.689  16.417  0.00  0.00    +0.000 OA
ATOM     26  H   UNL     1      47.521   7.155  17.558  0.00  0.00    +0.000 HD
ATOM     27  H   UNL     1      48.858   6.426  18.374  0.00  0.00    +0.000 HD
ENDBRANCH  22  23
ENDBRANCH  15  19
ENDBRANCH   1  15
TORSDOF 5
ENDMDL
MODEL 8
REMARK VINA RESULT:    -7.134      3.915      7.412
REMARK INTER + INTRA:         -10.059
REMARK INTER:                  -9.512
REMARK INTRA:                  -0.547
REMARK UNBOUND:                -0.840
REMARK  Name = 
REMARK  6 active torsions:
REMARK  status: ('A' for Active; 'I' for Inactive)
REMARK    1  A    between atoms: C_1  and  C_2
REMARK    2  A    between atoms: C_4  and  O_5
REMARK    3  A    between atoms: O_5  and  C_6
REMARK    4  A    between atoms: C_6  and  C_7
REMARK    5  A    between atoms: C_11  and  C_12
REMARK    6  A    between atoms: C_22  and  C_23
REMARK                            x       y       z     vdW  Elec       q    Type
REMARK                         _______ _______ _______ _____ _____    ______ ____
ROOT
ATOM      1  C   UNL     1      45.894   4.438  13.921  0.00  0.00    +0.000 C 
ENDROOT
BRANCH   1   2
ATOM      2  C   UNL     1      45.057   4.268  12.671  0.00  0.00    +0.000 A 
ATOM      3  C   UNL     1      43.730   4.712  12.649  0.00  0.00    +0.000 A 
ATOM      4  C   UNL     1      42.976   4.611  11.483  0.00  0.00    +0.000 A 
ATOM      5  C   UNL     1      43.547   4.086  10.323  0.00  0.00    +0.000 A 
ATOM      6  C   UNL     1      44.890   3.669  10.289  0.00  0.00    +0.000 A 
ATOM      7  C   UNL     1      45.623   3.766  11.487  0.00  0.00    +0.000 A 
BRANCH   6   8
ATOM      8  C   UNL     1      45.523   3.185   9.042  0.00  0.00    +0.000 A 
ATOM      9  C   UNL     1      45.864   4.067   7.998  0.00  0.00    +0.000 A 
ATOM     10  C   UNL     1      46.432   3.604   6.807  0.00  0.00    +0.000 A 
ATOM     11  C   UNL     1      46.693   2.250   6.638  0.00  0.00    +0.000 A 
ATOM     12  C   UNL     1      46.372   1.360   7.658  0.00  0.00    +0.000 A 
ATOM     13 CL   UNL     1      46.696  -0.319   7.462  0.00  0.00    +0.000 Cl
ATOM     14  C   UNL     1      45.786   1.817   8.840  0.00  0.00    +0.000 A 
ENDBRANCH   6   8
ENDBRANCH   1   2
BRANCH   1  15
ATOM     15  O   UNL     1      47.271   4.659  13.592  0.00  0.00    +0.000 OA
BRANCH  15  19
ATOM     16  C   UNL     1      45.662   9.166  12.673  0.00  0.00    +0.000 C 
ATOM     17  C   UNL     1      46.788   8.237  13.031  0.00  0.00    +0.000 A 
ATOM     18  C   UNL     1      46.527   6.862  13.167  0.00  0.00    +0.000 A 
ATOM     19  C   UNL     1      47.569   6.002  13.487  0.00  0.00    +0.000 A 
ATOM     20  N   UNL     1      48.836   6.415  13.684  0.00  0.00    +0.000 NA
ATOM     21  C   UNL     1      49.074   7.740  13.541  0.00  0.00    +0.000 A 
ATOM     22  C   UNL     1      48.105   8.689  13.232  0.00  0.00    +0.000 A 
BRANCH  22  23
ATOM     23  C   UNL     1      48.504  10.116  13.080  0.00  0.00    +0.000 C 
ATOM     24  N   UNL     1      48.499  10.901  14.200  0.00  0.00    +0.000 N 
ATOM     25  O   UNL     1      48.822  10.596  12.003  0.00  0.00    +0.000 OA
ATOM     26  H   UNL     1      48.079  10.643  15.082  0.00  0.00    +0.000 HD
ATOM     27  H   UNL     1      48.717  11.881  14.058  0.00  0.00    +0.000 HD
ENDBRANCH  22  23
ENDBRANCH  15  19
ENDBRANCH   1  15
TORSDOF 5
ENDMDL
MODEL 9
REMARK VINA RESULT:    -7.092      5.121      8.506
REMARK INTER + INTRA:         -10.005
REMARK INTER:                  -9.129
REMARK INTRA:                  -0.876
REMARK UNBOUND:                -0.840
REMARK  Name = 
REMARK  6 active torsions:
REMARK  status: ('A' for Active; 'I' for Inactive)
REMARK    1  A    between atoms: C_1  and  C_2
REMARK    2  A    between atoms: C_4  and  O_5
REMARK    3  A    between atoms: O_5  and  C_6
REMARK    4  A    between atoms: C_6  and  C_7
REMARK    5  A    between atoms: C_11  and  C_12
REMARK    6  A    between atoms: C_22  and  C_23
REMARK                            x       y       z     vdW  Elec       q    Type
REMARK                         _______ _______ _______ _____ _____    ______ ____
ROOT
ATOM      1  C   UNL     1      48.059   7.541  13.896  0.00  0.00    +0.000 C 
ENDROOT
BRANCH   1   2
ATOM      2  C   UNL     1      46.835   7.498  13.007  0.00  0.00    +0.000 A 
ATOM      3  C   UNL     1      46.062   8.650  12.820  0.00  0.00    +0.000 A 
ATOM      4  C   UNL     1      44.970   8.631  11.957  0.00  0.00    +0.000 A 
ATOM      5  C   UNL     1      44.653   7.465  11.255  0.00  0.00    +0.000 A 
ATOM      6  C   UNL     1      45.429   6.299  11.380  0.00  0.00    +0.000 A 
ATOM      7  C   UNL     1      46.516   6.343  12.273  0.00  0.00    +0.000 A 
BRANCH   6   8
ATOM      8  C   UNL     1      45.145   5.087  10.580  0.00  0.00    +0.000 A 
ATOM      9  C   UNL     1      44.345   4.042  11.085  0.00  0.00    +0.000 A 
ATOM     10  C   UNL     1      44.104   2.882  10.341  0.00  0.00    +0.000 A 
ATOM     11  C   UNL     1      44.640   2.748   9.065  0.00  0.00    +0.000 A 
ATOM     12  C   UNL     1      45.426   3.769   8.542  0.00  0.00    +0.000 A 
ATOM     13 CL   UNL     1      46.089   3.615   6.962  0.00  0.00    +0.000 Cl
ATOM     14  C   UNL     1      45.684   4.920   9.291  0.00  0.00    +0.000 A 
ENDBRANCH   6   8
ENDBRANCH   1   2
BRANCH   1  15
ATOM     15  O   UNL     1      48.529   6.220  14.189  0.00  0.00    +0.000 OA
BRANCH  15  19
ATOM     16  C   UNL     1      47.205   3.049  17.645  0.00  0.00    +0.000 C 
ATOM     17  C   UNL     1      47.803   4.373  17.257  0.00  0.00    +0.000 A 
ATOM     18  C   UNL     1      47.914   4.703  15.895  0.00  0.00    +0.000 A 
ATOM     19  C   UNL     1      48.456   5.930  15.536  0.00  0.00    +0.000 A 
ATOM     20  N   UNL     1      48.894   6.837  16.432  0.00  0.00    +0.000 NA
ATOM     21  C   UNL     1      48.772   6.509  17.739  0.00  0.00    +0.000 A 
ATOM     22  C   UNL     1      48.254   5.306  18.208  0.00  0.00    +0.000 A 
BRANCH  22  23
ATOM     23  C   UNL     1      48.153   5.079  19.677  0.00  0.00    +0.000 C 
ATOM     24  N   UNL     1      47.063   5.590  20.327  0.00  0.00    +0.000 N 
ATOM     25  O   UNL     1      49.003   4.468  20.305  0.00  0.00    +0.000 OA
ATOM     26  H   UNL     1      46.417   6.256  19.929  0.00  0.00    +0.000 HD
ATOM     27  H   UNL     1      47.049   5.472  21.333  0.00  0.00    +0.000 HD
ENDBRANCH  22  23
ENDBRANCH  15  19
ENDBRANCH   1  15
TORSDOF 5
ENDMDL
