MODEL 1
REMARK VINA RESULT:    -8.541      0.000      0.000
REMARK INTER + INTRA:         -12.494
REMARK INTER:                 -11.537
REMARK INTRA:                  -0.957
REMARK UNBOUND:                -0.957
REMARK  Name = 
REMARK  7 active torsions:
REMARK  status: ('A' for Active; 'I' for Inactive)
REMARK    1  A    between atoms: C_1  and  C_2
REMARK    2  A    between atoms: C_2  and  C_3
REMARK    3  A    between atoms: C_2  and  C_15
REMARK    4  A    between atoms: C_3  and  N_4
REMARK    5  A    between atoms: N_4  and  C_5
REMARK    6  A    between atoms: C_8  and  C_9
REMARK    7  A    between atoms: C_19  and  C_20
REMARK                            x       y       z     vdW  Elec       q    Type
REMARK                         _______ _______ _______ _____ _____    ______ ____
ROOT
ATOM      1  N   UNL     1      43.641   3.826  10.125  0.00  0.00    +0.000 N 
ATOM      2  H   UNL     1      43.498   4.833  10.102  0.00  0.00    +0.000 HD
ENDROOT
BRANCH   1   3
ATOM      3  C   UNL     1      44.675   3.437   9.260  0.00  0.00    +0.000 A 
ATOM      4  C   UNL     1      45.350   4.396   8.489  0.00  0.00    +0.000 A 
ATOM      5  C   UNL     1      46.353   4.018   7.584  0.00  0.00    +0.000 A 
ATOM      6  C   UNL     1      46.678   2.667   7.411  0.00  0.00    +0.000 A 
ATOM      7  C   UNL     1      45.973   1.716   8.139  0.00  0.00    +0.000 A 
ATOM      8  F   UNL     1      46.220   0.403   8.010  0.00  0.00    +0.000 F 
ATOM      9  C   UNL     1      44.978   2.090   9.033  0.00  0.00    +0.000 A 
BRANCH   6  10
ATOM     10  C   UNL     1      47.746   2.287   6.455  0.00  0.00    +0.000 C 
ATOM     11  N   UNL     1      47.784   2.928   5.248  0.00  0.00    +0.000 N 
ATOM     12  O   UNL     1      48.569   1.424   6.729  0.00  0.00    +0.000 OA
ATOM     13  H   UNL     1      47.127   3.664   4.989  0.00  0.00    +0.000 HD
ATOM     14  H   UNL     1      48.517   2.685   4.595  0.00  0.00    +0.000 HD
ENDBRANCH   6  10
ENDBRANCH   1   3
BRANCH   1  15
ATOM     15  C   UNL     1      43.728   3.324  11.499  0.00  0.00    +0.000 C 
BRANCH  15  17
ATOM     16  C   UNL     1      42.736   5.482  12.482  0.00  0.00    +0.000 C 
ATOM     17  C   UNL     1      43.857   4.494  12.420  0.00  0.00    +0.000 C 
BRANCH  17  18
ATOM     18  C   UNL     1      45.216   4.901  12.789  0.00  0.00    +0.000 A 
ATOM     19  C   UNL     1      45.890   5.907  12.091  0.00  0.00    +0.000 A 
ATOM     20  C   UNL     1      47.122   6.369  12.549  0.00  0.00    +0.000 A 
ATOM     21  C   UNL     1      47.676   5.847  13.719  0.00  0.00    +0.000 A 
ATOM     22  C   UNL     1      47.011   4.836  14.425  0.00  0.00    +0.000 A 
ATOM     23  C   UNL     1      45.797   4.347  13.929  0.00  0.00    +0.000 A 
BRANCH  22  24
ATOM     24  C   UNL     1      47.527   4.294  15.732  0.00  0.00    +0.000 C 
ATOM     25  F   UNL     1      48.590   4.984  16.225  0.00  0.00    +0.000 F 
ATOM     26  F   UNL     1      46.574   4.333  16.707  0.00  0.00    +0.000 F 
ATOM     27  F   UNL     1      47.919   2.997  15.643  0.00  0.00    +0.000 F 
ENDBRANCH  22  24
ENDBRANCH  17  18
ENDBRANCH  15  17
ENDBRANCH   1  15
TORSDOF 6
ENDMDL
MODEL 2
REMARK VINA RESULT:    -8.347      2.254      2.782
REMARK INTER + INTRA:         -12.232
REMARK INTER:                 -11.257
REMARK INTRA:                  -0.975
REMARK UNBOUND:                -0.957
REMARK  Name = 
REMARK  7 active torsions:
REMARK  status: ('A' for Active; 'I' for Inactive)
REMARK    1  A    between atoms: C_1  and  C_2
REMARK    2  A    between atoms: C_2  and  C_3
REMARK    3  A    between atoms: C_2  and  C_15
REMARK    4  A    between atoms: C_3  and  N_4
REMARK    5  A    between atoms: N_4  and  C_5
REMARK    6  A    between atoms: C_8  and  C_9
REMARK    7  A    between atoms: C_19  and  C_20
REMARK                            x       y       z     vdW  Elec       q    Type
REMARK                         _______ _______ _______ _____ _____    ______ ____
ROOT
ATOM      1  N   UNL     1      43.578   3.279  10.423  0.00  0.00    +0.000 N 
ATOM      2  H   UNL     1      43.034   4.108  10.192  0.00  0.00    +0.000 HD
ENDROOT
BRANCH   1   3
ATOM      3  C   UNL     1      44.598   3.059   9.484  0.00  0.00    +0.000 A 
ATOM      4  C   UNL     1      45.129   4.133   8.754  0.00  0.00    +0.000 A 
ATOM      5  C   UNL     1      46.115   3.924   7.778  0.00  0.00    +0.000 A 
ATOM      6  C   UNL     1      46.566   2.629   7.493  0.00  0.00    +0.000 A 
ATOM      7  C   UNL     1      46.001   1.562   8.183  0.00  0.00    +0.000 A 
ATOM      8  F   UNL     1      46.372   0.294   7.947  0.00  0.00    +0.000 F 
ATOM      9  C   UNL     1      45.023   1.770   9.147  0.00  0.00    +0.000 A 
BRANCH   6  10
ATOM     10  C   UNL     1      47.614   2.427   6.463  0.00  0.00    +0.000 C 
ATOM     11  N   UNL     1      47.440   3.026   5.246  0.00  0.00    +0.000 N 
ATOM     12  O   UNL     1      48.603   1.743   6.686  0.00  0.00    +0.000 OA
ATOM     13  H   UNL     1      46.638   3.617   5.027  0.00  0.00    +0.000 HD
ATOM     14  H   UNL     1      48.156   2.905   4.543  0.00  0.00    +0.000 HD
ENDBRANCH   6  10
ENDBRANCH   1   3
BRANCH   1  15
ATOM     15  C   UNL     1      43.986   3.275  11.830  0.00  0.00    +0.000 C 
BRANCH  15  17
ATOM     16  C   UNL     1      42.726   5.516  11.854  0.00  0.00    +0.000 C 
ATOM     17  C   UNL     1      43.844   4.664  12.365  0.00  0.00    +0.000 C 
BRANCH  17  18
ATOM     18  C   UNL     1      45.050   5.289  12.916  0.00  0.00    +0.000 A 
ATOM     19  C   UNL     1      45.962   4.561  13.684  0.00  0.00    +0.000 A 
ATOM     20  C   UNL     1      47.166   5.144  14.077  0.00  0.00    +0.000 A 
ATOM     21  C   UNL     1      47.474   6.447  13.685  0.00  0.00    +0.000 A 
ATOM     22  C   UNL     1      46.566   7.188  12.918  0.00  0.00    +0.000 A 
ATOM     23  C   UNL     1      45.340   6.608  12.570  0.00  0.00    +0.000 A 
BRANCH  22  24
ATOM     24  C   UNL     1      46.883   8.567  12.404  0.00  0.00    +0.000 C 
ATOM     25  F   UNL     1      45.845   9.156  11.752  0.00  0.00    +0.000 F 
ATOM     26  F   UNL     1      47.219   9.420  13.414  0.00  0.00    +0.000 F 
ATOM     27  F   UNL     1      47.933   8.578  11.541  0.00  0.00    +0.000 F 
ENDBRANCH  22  24
ENDBRANCH  17  18
ENDBRANCH  15  17
ENDBRANCH   1  15
TORSDOF 6
ENDMDL
MODEL 3
REMARK VINA RESULT:    -8.313      2.408      3.179
REMARK INTER + INTRA:         -12.186
REMARK INTER:                 -11.264
REMARK INTRA:                  -0.922
REMARK UNBOUND:                -0.957
REMARK  Name = 
REMARK  7 active torsions:
REMARK  status: ('A' for Active; 'I' for Inactive)
REMARK    1  A    between atoms: C_1  and  C_2
REMARK    2  A    between atoms: C_2  and  C_3
REMARK    3  A    between atoms: C_2  and  C_15
REMARK    4  A    between atoms: C_3  and  N_4
REMARK    5  A    between atoms: N_4  and  C_5
REMARK    6  A    between atoms: C_8  and  C_9
REMARK    7  A    between atoms: C_19  and  C_20
REMARK                            x       y       z     vdW  Elec       q    Type
REMARK                         _______ _______ _______ _____ _____    ______ ____
ROOT
ATOM      1  N   UNL     1      44.001   5.028   9.987  0.00  0.00    +0.000 N 
ATOM      2  H   UNL     1      44.147   6.014   9.779  0.00  0.00    +0.000 HD
ENDROOT
BRANCH   1   3
ATOM      3  C   UNL     1      44.873   4.215   9.247  0.00  0.00    +0.000 A 
ATOM      4  C   UNL     1      45.796   4.792   8.362  0.00  0.00    +0.000 A 
ATOM      5  C   UNL     1      46.643   3.992   7.580  0.00  0.00    +0.000 A 
ATOM      6  C   UNL     1      46.558   2.596   7.648  0.00  0.00    +0.000 A 
ATOM      7  C   UNL     1      45.608   2.028   8.489  0.00  0.00    +0.000 A 
ATOM      8  F   UNL     1      45.461   0.698   8.590  0.00  0.00    +0.000 F 
ATOM      9  C   UNL     1      44.769   2.821   9.261  0.00  0.00    +0.000 A 
BRANCH   6  10
ATOM     10  C   UNL     1      47.466   1.765   6.820  0.00  0.00    +0.000 C 
ATOM     11  N   UNL     1      48.625   2.336   6.370  0.00  0.00    +0.000 N 
ATOM     12  O   UNL     1      47.192   0.607   6.539  0.00  0.00    +0.000 OA
ATOM     13  H   UNL     1      48.898   3.292   6.596  0.00  0.00    +0.000 HD
ATOM     14  H   UNL     1      49.256   1.773   5.816  0.00  0.00    +0.000 HD
ENDBRANCH   6  10
ENDBRANCH   1   3
BRANCH   1  15
ATOM     15  C   UNL     1      43.957   4.781  11.431  0.00  0.00    +0.000 C 
BRANCH  15  17
ATOM     16  C   UNL     1      45.886   4.021  12.951  0.00  0.00    +0.000 C 
ATOM     17  C   UNL     1      45.323   5.019  11.990  0.00  0.00    +0.000 C 
BRANCH  17  18
ATOM     18  C   UNL     1      45.800   6.405  12.008  0.00  0.00    +0.000 A 
ATOM     19  C   UNL     1      44.949   7.466  12.326  0.00  0.00    +0.000 A 
ATOM     20  C   UNL     1      45.461   8.754  12.471  0.00  0.00    +0.000 A 
ATOM     21  C   UNL     1      46.829   8.984  12.322  0.00  0.00    +0.000 A 
ATOM     22  C   UNL     1      47.693   7.929  12.000  0.00  0.00    +0.000 A 
ATOM     23  C   UNL     1      47.159   6.649  11.810  0.00  0.00    +0.000 A 
BRANCH  22  24
ATOM     24  C   UNL     1      49.185   8.110  11.905  0.00  0.00    +0.000 C 
ATOM     25  F   UNL     1      49.752   7.416  10.883  0.00  0.00    +0.000 F 
ATOM     26  F   UNL     1      49.526   9.415  11.703  0.00  0.00    +0.000 F 
ATOM     27  F   UNL     1      49.833   7.725  13.036  0.00  0.00    +0.000 F 
ENDBRANCH  22  24
ENDBRANCH  17  18
ENDBRANCH  15  17
ENDBRANCH   1  15
TORSDOF 6
ENDMDL
MODEL 4
REMARK VINA RESULT:    -7.745      1.352      2.101
REMARK INTER + INTRA:         -11.418
REMARK INTER:                 -10.386
REMARK INTRA:                  -1.032
REMARK UNBOUND:                -0.957
REMARK  Name = 
REMARK  7 active torsions:
REMARK  status: ('A' for Active; 'I' for Inactive)
REMARK    1  A    between atoms: C_1  and  C_2
REMARK    2  A    between atoms: C_2  and  C_3
REMARK    3  A    between atoms: C_2  and  C_15
REMARK    4  A    between atoms: C_3  and  N_4
REMARK    5  A    between atoms: N_4  and  C_5
REMARK    6  A    between atoms: C_8  and  C_9
REMARK    7  A    between atoms: C_19  and  C_20
REMARK                            x       y       z     vdW  Elec       q    Type
REMARK                         _______ _______ _______ _____ _____    ______ ____
ROOT
ATOM      1  N   UNL     1      43.977   4.719  10.444  0.00  0.00    +0.000 N 
ATOM      2  H   UNL     1      43.100   5.002  10.011  0.00  0.00    +0.000 HD
ENDROOT
BRANCH   1   3
ATOM      3  C   UNL     1      44.826   4.094   9.518  0.00  0.00    +0.000 A 
ATOM      4  C   UNL     1      45.584   4.863   8.623  0.00  0.00    +0.000 A 
ATOM      5  C   UNL     1      46.401   4.253   7.659  0.00  0.00    +0.000 A 
ATOM      6  C   UNL     1      46.449   2.858   7.554  0.00  0.00    +0.000 A 
ATOM      7  C   UNL     1      45.658   2.099   8.409  0.00  0.00    +0.000 A 
ATOM      8  F   UNL     1      45.641   0.759   8.351  0.00  0.00    +0.000 F 
ATOM      9  C   UNL     1      44.847   2.704   9.361  0.00  0.00    +0.000 A 
BRANCH   6  10
ATOM     10  C   UNL     1      47.324   2.229   6.534  0.00  0.00    +0.000 C 
ATOM     11  N   UNL     1      47.327   2.764   5.275  0.00  0.00    +0.000 N 
ATOM     12  O   UNL     1      48.020   1.260   6.801  0.00  0.00    +0.000 OA
ATOM     13  H   UNL     1      46.773   3.581   5.017  0.00  0.00    +0.000 HD
ATOM     14  H   UNL     1      47.930   2.350   4.577  0.00  0.00    +0.000 HD
ENDBRANCH   6  10
ENDBRANCH   1   3
BRANCH   1  15
ATOM     15  C   UNL     1      44.568   5.807  11.227  0.00  0.00    +0.000 C 
BRANCH  15  17
ATOM     16  C   UNL     1      45.090   4.252  13.206  0.00  0.00    +0.000 C 
ATOM     17  C   UNL     1      45.568   5.219  12.170  0.00  0.00    +0.000 C 
BRANCH  17  18
ATOM     18  C   UNL     1      46.800   5.980  12.390  0.00  0.00    +0.000 A 
ATOM     19  C   UNL     1      47.324   6.821  11.405  0.00  0.00    +0.000 A 
ATOM     20  C   UNL     1      48.417   7.637  11.691  0.00  0.00    +0.000 A 
ATOM     21  C   UNL     1      48.977   7.635  12.969  0.00  0.00    +0.000 A 
ATOM     22  C   UNL     1      48.463   6.794  13.964  0.00  0.00    +0.000 A 
ATOM     23  C   UNL     1      47.395   5.945  13.651  0.00  0.00    +0.000 A 
BRANCH  22  24
ATOM     24  C   UNL     1      48.980   6.811  15.378  0.00  0.00    +0.000 C 
ATOM     25  F   UNL     1      48.695   5.678  16.074  0.00  0.00    +0.000 F 
ATOM     26  F   UNL     1      50.337   6.942  15.420  0.00  0.00    +0.000 F 
ATOM     27  F   UNL     1      48.482   7.844  16.107  0.00  0.00    +0.000 F 
ENDBRANCH  22  24
ENDBRANCH  17  18
ENDBRANCH  15  17
ENDBRANCH   1  15
TORSDOF 6
ENDMDL
MODEL 5
REMARK VINA RESULT:    -7.484      2.525      3.258
REMARK INTER + INTRA:         -11.067
REMARK INTER:                 -10.164
REMARK INTRA:                  -0.903
REMARK UNBOUND:                -0.957
REMARK  Name = 
REMARK  7 active torsions:
REMARK  status: ('A' for Active; 'I' for Inactive)
REMARK    1  A    between atoms: C_1  and  C_2
REMARK    2  A    between atoms: C_2  and  C_3
REMARK    3  A    between atoms: C_2  and  C_15
REMARK    4  A    between atoms: C_3  and  N_4
REMARK    5  A    between atoms: N_4  and  C_5
REMARK    6  A    between atoms: C_8  and  C_9
REMARK    7  A    between atoms: C_19  and  C_20
REMARK                            x       y       z     vdW  Elec       q    Type
REMARK                         _______ _______ _______ _____ _____    ______ ____
ROOT
ATOM      1  N   UNL     1      43.433   4.779  10.145  0.00  0.00    +0.000 N 
ATOM      2  H   UNL     1      43.356   5.705   9.730  0.00  0.00    +0.000 HD
ENDROOT
BRANCH   1   3
ATOM      3  C   UNL     1      44.322   3.967   9.423  0.00  0.00    +0.000 A 
ATOM      4  C   UNL     1      44.351   2.582   9.643  0.00  0.00    +0.000 A 
ATOM      5  C   UNL     1      45.266   1.763   8.965  0.00  0.00    +0.000 A 
ATOM      6  C   UNL     1      46.191   2.322   8.075  0.00  0.00    +0.000 A 
ATOM      7  C   UNL     1      46.193   3.701   7.898  0.00  0.00    +0.000 A 
ATOM      8  F   UNL     1      47.064   4.305   7.075  0.00  0.00    +0.000 F 
ATOM      9  C   UNL     1      45.289   4.511   8.572  0.00  0.00    +0.000 A 
BRANCH   6  10
ATOM     10  C   UNL     1      47.146   1.440   7.361  0.00  0.00    +0.000 C 
ATOM     11  N   UNL     1      46.867   0.102   7.307  0.00  0.00    +0.000 N 
ATOM     12  O   UNL     1      48.158   1.887   6.838  0.00  0.00    +0.000 OA
ATOM     13  H   UNL     1      46.027  -0.306   7.716  0.00  0.00    +0.000 HD
ATOM     14  H   UNL     1      47.505  -0.504   6.811  0.00  0.00    +0.000 HD
ENDBRANCH   6  10
ENDBRANCH   1   3
BRANCH   1  15
ATOM     15  C   UNL     1      43.657   4.853  11.591  0.00  0.00    +0.000 C 
BRANCH  15  17
ATOM     16  C   UNL     1      43.803   7.373  11.108  0.00  0.00    +0.000 C 
ATOM     17  C   UNL     1      44.246   6.190  11.909  0.00  0.00    +0.000 C 
BRANCH  17  18
ATOM     18  C   UNL     1      45.553   6.199  12.571  0.00  0.00    +0.000 A 
ATOM     19  C   UNL     1      45.890   5.243  13.532  0.00  0.00    +0.000 A 
ATOM     20  C   UNL     1      47.186   5.192  14.043  0.00  0.00    +0.000 A 
ATOM     21  C   UNL     1      48.157   6.081  13.579  0.00  0.00    +0.000 A 
ATOM     22  C   UNL     1      47.830   7.046  12.618  0.00  0.00    +0.000 A 
ATOM     23  C   UNL     1      46.513   7.117  12.148  0.00  0.00    +0.000 A 
BRANCH  22  24
ATOM     24  C   UNL     1      48.857   7.976  12.028  0.00  0.00    +0.000 C 
ATOM     25  F   UNL     1      49.566   7.425  11.007  0.00  0.00    +0.000 F 
ATOM     26  F   UNL     1      48.286   9.105  11.519  0.00  0.00    +0.000 F 
ATOM     27  F   UNL     1      49.769   8.399  12.943  0.00  0.00    +0.000 F 
ENDBRANCH  22  24
ENDBRANCH  17  18
ENDBRANCH  15  17
ENDBRANCH   1  15
TORSDOF 6
ENDMDL
MODEL 6
REMARK VINA RESULT:    -7.376      3.440      6.769
REMARK INTER + INTRA:         -10.920
REMARK INTER:                  -9.683
REMARK INTRA:                  -1.237
REMARK UNBOUND:                -0.957
REMARK  Name = 
REMARK  7 active torsions:
REMARK  status: ('A' for Active; 'I' for Inactive)
REMARK    1  A    between atoms: C_1  and  C_2
REMARK    2  A    between atoms: C_2  and  C_3
REMARK    3  A    between atoms: C_2  and  C_15
REMARK    4  A    between atoms: C_3  and  N_4
REMARK    5  A    between atoms: N_4  and  C_5
REMARK    6  A    between atoms: C_8  and  C_9
REMARK    7  A    between atoms: C_19  and  C_20
REMARK                            x       y       z     vdW  Elec       q    Type
REMARK                         _______ _______ _______ _____ _____    ______ ____
ROOT
ATOM      1  N   UNL     1      43.951   4.631  12.768  0.00  0.00    +0.000 N 
ATOM      2  H   UNL     1      43.948   3.698  13.176  0.00  0.00    +0.000 HD
ENDROOT
BRANCH   1   3
ATOM      3  C   UNL     1      45.217   5.229  12.867  0.00  0.00    +0.000 A 
ATOM      4  C   UNL     1      46.228   4.619  13.625  0.00  0.00    +0.000 A 
ATOM      5  C   UNL     1      47.484   5.226  13.773  0.00  0.00    +0.000 A 
ATOM      6  C   UNL     1      47.741   6.473  13.190  0.00  0.00    +0.000 A 
ATOM      7  C   UNL     1      46.720   7.097  12.482  0.00  0.00    +0.000 A 
ATOM      8  F   UNL     1      46.891   8.300  11.912  0.00  0.00    +0.000 F 
ATOM      9  C   UNL     1      45.476   6.497  12.338  0.00  0.00    +0.000 A 
BRANCH   6  10
ATOM     10  C   UNL     1      49.077   7.097  13.351  0.00  0.00    +0.000 C 
ATOM     11  N   UNL     1      49.582   7.211  14.616  0.00  0.00    +0.000 N 
ATOM     12  O   UNL     1      49.711   7.503  12.387  0.00  0.00    +0.000 OA
ATOM     13  H   UNL     1      49.093   6.870  15.443  0.00  0.00    +0.000 HD
ATOM     14  H   UNL     1      50.498   7.623  14.734  0.00  0.00    +0.000 HD
ENDBRANCH   6  10
ENDBRANCH   1   3
BRANCH   1  15
ATOM     15  C   UNL     1      43.336   4.642  11.438  0.00  0.00    +0.000 C 
BRANCH  15  17
ATOM     16  C   UNL     1      43.671   2.093  11.468  0.00  0.00    +0.000 C 
ATOM     17  C   UNL     1      43.735   3.390  10.726  0.00  0.00    +0.000 C 
BRANCH  17  18
ATOM     18  C   UNL     1      44.642   3.537   9.583  0.00  0.00    +0.000 A 
ATOM     19  C   UNL     1      45.110   4.790   9.180  0.00  0.00    +0.000 A 
ATOM     20  C   UNL     1      46.078   4.887   8.182  0.00  0.00    +0.000 A 
ATOM     21  C   UNL     1      46.599   3.731   7.598  0.00  0.00    +0.000 A 
ATOM     22  C   UNL     1      46.136   2.470   7.991  0.00  0.00    +0.000 A 
ATOM     23  C   UNL     1      45.130   2.388   8.962  0.00  0.00    +0.000 A 
BRANCH  22  24
ATOM     24  C   UNL     1      46.720   1.192   7.450  0.00  0.00    +0.000 C 
ATOM     25  F   UNL     1      46.553   1.044   6.108  0.00  0.00    +0.000 F 
ATOM     26  F   UNL     1      48.065   1.117   7.668  0.00  0.00    +0.000 F 
ATOM     27  F   UNL     1      46.186   0.084   8.027  0.00  0.00    +0.000 F 
ENDBRANCH  22  24
ENDBRANCH  17  18
ENDBRANCH  15  17
ENDBRANCH   1  15
TORSDOF 6
ENDMDL
MODEL 7
REMARK VINA RESULT:    -6.915      3.762      7.817
REMARK INTER + INTRA:         -10.297
REMARK INTER:                  -9.237
REMARK INTRA:                  -1.060
REMARK UNBOUND:                -0.957
REMARK  Name = 
REMARK  7 active torsions:
REMARK  status: ('A' for Active; 'I' for Inactive)
REMARK    1  A    between atoms: C_1  and  C_2
REMARK    2  A    between atoms: C_2  and  C_3
REMARK    3  A    between atoms: C_2  and  C_15
REMARK    4  A    between atoms: C_3  and  N_4
REMARK    5  A    between atoms: N_4  and  C_5
REMARK    6  A    between atoms: C_8  and  C_9
REMARK    7  A    between atoms: C_19  and  C_20
REMARK                            x       y       z     vdW  Elec       q    Type
REMARK                         _______ _______ _______ _____ _____    ______ ____
ROOT
ATOM      1  N   UNL     1      47.273   6.801  13.903  0.00  0.00    +0.000 N 
ATOM      2  H   UNL     1      46.366   7.193  14.149  0.00  0.00    +0.000 HD
ENDROOT
BRANCH   1   3
ATOM      3  C   UNL     1      47.723   5.901  14.881  0.00  0.00    +0.000 A 
ATOM      4  C   UNL     1      47.152   4.623  14.982  0.00  0.00    +0.000 A 
ATOM      5  C   UNL     1      47.556   3.729  15.984  0.00  0.00    +0.000 A 
ATOM      6  C   UNL     1      48.522   4.110  16.924  0.00  0.00    +0.000 A 
ATOM      7  C   UNL     1      49.049   5.394  16.852  0.00  0.00    +0.000 A 
ATOM      8  F   UNL     1      49.964   5.831  17.731  0.00  0.00    +0.000 F 
ATOM      9  C   UNL     1      48.646   6.280  15.861  0.00  0.00    +0.000 A 
BRANCH   6  10
ATOM     10  C   UNL     1      48.943   3.149  17.972  0.00  0.00    +0.000 C 
ATOM     11  N   UNL     1      48.326   3.218  19.191  0.00  0.00    +0.000 N 
ATOM     12  O   UNL     1      49.818   2.320  17.762  0.00  0.00    +0.000 OA
ATOM     13  H   UNL     1      47.582   3.883  19.400  0.00  0.00    +0.000 HD
ATOM     14  H   UNL     1      48.598   2.558  19.907  0.00  0.00    +0.000 HD
ENDBRANCH   6  10
ENDBRANCH   1   3
BRANCH   1  15
ATOM     15  C   UNL     1      47.295   6.315  12.521  0.00  0.00    +0.000 C 
BRANCH  15  17
ATOM     16  C   UNL     1      45.163   7.687  12.092  0.00  0.00    +0.000 C 
ATOM     17  C   UNL     1      45.906   6.394  11.972  0.00  0.00    +0.000 C 
BRANCH  17  18
ATOM     18  C   UNL     1      45.170   5.134  11.846  0.00  0.00    +0.000 A 
ATOM     19  C   UNL     1      44.178   4.773  12.762  0.00  0.00    +0.000 A 
ATOM     20  C   UNL     1      43.400   3.639  12.539  0.00  0.00    +0.000 A 
ATOM     21  C   UNL     1      43.592   2.873  11.389  0.00  0.00    +0.000 A 
ATOM     22  C   UNL     1      44.585   3.222  10.465  0.00  0.00    +0.000 A 
ATOM     23  C   UNL     1      45.392   4.336  10.724  0.00  0.00    +0.000 A 
BRANCH  22  24
ATOM     24  C   UNL     1      44.781   2.475   9.172  0.00  0.00    +0.000 C 
ATOM     25  F   UNL     1      44.206   1.242   9.164  0.00  0.00    +0.000 F 
ATOM     26  F   UNL     1      44.242   3.144   8.113  0.00  0.00    +0.000 F 
ATOM     27  F   UNL     1      46.092   2.287   8.867  0.00  0.00    +0.000 F 
ENDBRANCH  22  24
ENDBRANCH  17  18
ENDBRANCH  15  17
ENDBRANCH   1  15
TORSDOF 6
ENDMDL
MODEL 8
REMARK VINA RESULT:    -6.676      3.270      5.396
REMARK INTER + INTRA:          -9.975
REMARK INTER:                  -8.866
REMARK INTRA:                  -1.109
REMARK UNBOUND:                -0.957
REMARK  Name = 
REMARK  7 active torsions:
REMARK  status: ('A' for Active; 'I' for Inactive)
REMARK    1  A    between atoms: C_1  and  C_2
REMARK    2  A    between atoms: C_2  and  C_3
REMARK    3  A    between atoms: C_2  and  C_15
REMARK    4  A    between atoms: C_3  and  N_4
REMARK    5  A    between atoms: N_4  and  C_5
REMARK    6  A    between atoms: C_8  and  C_9
REMARK    7  A    between atoms: C_19  and  C_20
REMARK                            x       y       z     vdW  Elec       q    Type
REMARK                         _______ _______ _______ _____ _____    ______ ____
ROOT
ATOM      1  N   UNL     1      47.160   7.538  13.976  0.00  0.00    +0.000 N 
ATOM      2  H   UNL     1      47.022   8.530  13.788  0.00  0.00    +0.000 HD
ENDROOT
BRANCH   1   3
ATOM      3  C   UNL     1      46.383   6.743  13.119  0.00  0.00    +0.000 A 
ATOM      4  C   UNL     1      45.475   7.339  12.232  0.00  0.00    +0.000 A 
ATOM      5  C   UNL     1      44.657   6.557  11.403  0.00  0.00    +0.000 A 
ATOM      6  C   UNL     1      44.712   5.159  11.470  0.00  0.00    +0.000 A 
ATOM      7  C   UNL     1      45.577   4.572  12.386  0.00  0.00    +0.000 A 
ATOM      8  F   UNL     1      45.668   3.239  12.516  0.00  0.00    +0.000 F 
ATOM      9  C   UNL     1      46.384   5.347  13.208  0.00  0.00    +0.000 A 
BRANCH   6  10
ATOM     10  C   UNL     1      43.845   4.348  10.581  0.00  0.00    +0.000 C 
ATOM     11  N   UNL     1      44.016   4.474   9.230  0.00  0.00    +0.000 N 
ATOM     12  O   UNL     1      42.997   3.592  11.034  0.00  0.00    +0.000 OA
ATOM     13  H   UNL     1      44.723   5.081   8.813  0.00  0.00    +0.000 HD
ATOM     14  H   UNL     1      43.439   3.915   8.617  0.00  0.00    +0.000 HD
ENDBRANCH   6  10
ENDBRANCH   1   3
BRANCH   1  15
ATOM     15  C   UNL     1      48.583   7.198  14.058  0.00  0.00    +0.000 C 
BRANCH  15  17
ATOM     16  C   UNL     1      50.284   8.503  15.475  0.00  0.00    +0.000 C 
ATOM     17  C   UNL     1      49.088   7.609  15.403  0.00  0.00    +0.000 C 
BRANCH  17  18
ATOM     18  C   UNL     1      48.758   6.734  16.532  0.00  0.00    +0.000 A 
ATOM     19  C   UNL     1      48.472   7.253  17.797  0.00  0.00    +0.000 A 
ATOM     20  C   UNL     1      48.026   6.410  18.813  0.00  0.00    +0.000 A 
ATOM     21  C   UNL     1      47.840   5.049  18.564  0.00  0.00    +0.000 A 
ATOM     22  C   UNL     1      48.126   4.517  17.301  0.00  0.00    +0.000 A 
ATOM     23  C   UNL     1      48.619   5.366  16.302  0.00  0.00    +0.000 A 
BRANCH  22  24
ATOM     24  C   UNL     1      47.870   3.073  16.958  0.00  0.00    +0.000 C 
ATOM     25  F   UNL     1      46.857   2.516  17.674  0.00  0.00    +0.000 F 
ATOM     26  F   UNL     1      47.529   2.917  15.646  0.00  0.00    +0.000 F 
ATOM     27  F   UNL     1      48.959   2.285  17.158  0.00  0.00    +0.000 F 
ENDBRANCH  22  24
ENDBRANCH  17  18
ENDBRANCH  15  17
ENDBRANCH   1  15
TORSDOF 6
ENDMDL
MODEL 9
REMARK VINA RESULT:    -6.676      3.165      5.334
REMARK INTER + INTRA:          -9.974
REMARK INTER:                  -8.788
REMARK INTRA:                  -1.187
REMARK UNBOUND:                -0.957
REMARK  Name = 
REMARK  7 active torsions:
REMARK  status: ('A' for Active; 'I' for Inactive)
REMARK    1  A    between atoms: C_1  and  C_2
REMARK    2  A    between atoms: C_2  and  C_3
REMARK    3  A    between atoms: C_2  and  C_15
REMARK    4  A    between atoms: C_3  and  N_4
REMARK    5  A    between atoms: N_4  and  C_5
REMARK    6  A    between atoms: C_8  and  C_9
REMARK    7  A    between atoms: C_19  and  C_20
REMARK                            x       y       z     vdW  Elec       q    Type
REMARK                         _______ _______ _______ _____ _____    ______ ____
ROOT
ATOM      1  N   UNL     1      47.274   7.424  13.603  0.00  0.00    +0.000 N 
ATOM      2  H   UNL     1      47.247   8.316  13.112  0.00  0.00    +0.000 HD
ENDROOT
BRANCH   1   3
ATOM      3  C   UNL     1      46.514   6.451  12.936  0.00  0.00    +0.000 A 
ATOM      4  C   UNL     1      46.007   5.347  13.638  0.00  0.00    +0.000 A 
ATOM      5  C   UNL     1      45.287   4.341  12.978  0.00  0.00    +0.000 A 
ATOM      6  C   UNL     1      45.088   4.406  11.593  0.00  0.00    +0.000 A 
ATOM      7  C   UNL     1      45.635   5.475  10.893  0.00  0.00    +0.000 A 
ATOM      8  F   UNL     1      45.498   5.591   9.563  0.00  0.00    +0.000 F 
ATOM      9  C   UNL     1      46.350   6.469  11.548  0.00  0.00    +0.000 A 
BRANCH   6  10
ATOM     10  C   UNL     1      44.317   3.337  10.912  0.00  0.00    +0.000 C 
ATOM     11  N   UNL     1      45.006   2.444  10.139  0.00  0.00    +0.000 N 
ATOM     12  O   UNL     1      43.102   3.253  11.030  0.00  0.00    +0.000 OA
ATOM     13  H   UNL     1      46.020   2.470  10.029  0.00  0.00    +0.000 HD
ATOM     14  H   UNL     1      44.491   1.704   9.682  0.00  0.00    +0.000 HD
ENDBRANCH   6  10
ENDBRANCH   1   3
BRANCH   1  15
ATOM     15  C   UNL     1      48.643   7.043  13.957  0.00  0.00    +0.000 C 
BRANCH  15  17
ATOM     16  C   UNL     1      49.916   8.741  15.408  0.00  0.00    +0.000 C 
ATOM     17  C   UNL     1      48.954   7.601  15.308  0.00  0.00    +0.000 C 
BRANCH  17  18
ATOM     18  C   UNL     1      48.747   6.712  16.456  0.00  0.00    +0.000 A 
ATOM     19  C   UNL     1      48.590   7.216  17.749  0.00  0.00    +0.000 A 
ATOM     20  C   UNL     1      48.257   6.360  18.797  0.00  0.00    +0.000 A 
ATOM     21  C   UNL     1      48.056   5.001  18.554  0.00  0.00    +0.000 A 
ATOM     22  C   UNL     1      48.215   4.483  17.262  0.00  0.00    +0.000 A 
ATOM     23  C   UNL     1      48.596   5.345  16.227  0.00  0.00    +0.000 A 
BRANCH  22  24
ATOM     24  C   UNL     1      47.935   3.040  16.933  0.00  0.00    +0.000 C 
ATOM     25  F   UNL     1      47.659   2.827  15.618  0.00  0.00    +0.000 F 
ATOM     26  F   UNL     1      48.999   2.238  17.225  0.00  0.00    +0.000 F 
ATOM     27  F   UNL     1      46.884   2.537  17.631  0.00  0.00    +0.000 F 
ENDBRANCH  22  24
ENDBRANCH  17  18
ENDBRANCH  15  17
ENDBRANCH   1  15
TORSDOF 6
ENDMDL
