MODEL 1
REMARK VINA RESULT:    -8.441      0.000      0.000
REMARK INTER + INTRA:         -13.425
REMARK INTER:                 -12.389
REMARK INTRA:                  -1.036
REMARK UNBOUND:                -1.036
REMARK  Name = 
REMARK  10 active torsions:
REMARK  status: ('A' for Active; 'I' for Inactive)
REMARK    1  A    between atoms: C_1  and  C_2
REMARK    2  A    between atoms: C_2  and  C_3
REMARK    3  A    between atoms: C_5  and  N_6
REMARK    4  A    between atoms: N_6  and  C_7
REMARK    5  A    between atoms: C_9  and  S_10
REMARK    6  A    between atoms: S_10  and  C_11
REMARK    7  A    between atoms: C_11  and  C_12
REMARK    8  A    between atoms: C_12  and  C_15
REMARK    9  A    between atoms: C_18  and  C_19
REMARK   10  A    between atoms: C_25  and  C_26
REMARK                            x       y       z     vdW  Elec       q    Type
REMARK                         _______ _______ _______ _____ _____    ______ ____
ROOT
ATOM      1  C   UNL     1      48.066   5.720  15.429  0.00  0.00    +0.000 A 
ATOM      2  C   UNL     1      47.147   4.818  14.863  0.00  0.00    +0.000 A 
ATOM      3  C   UNL     1      46.792   4.907  13.513  0.00  0.00    +0.000 A 
ATOM      4  C   UNL     1      47.360   5.918  12.729  0.00  0.00    +0.000 A 
ATOM      5  C   UNL     1      48.273   6.834  13.274  0.00  0.00    +0.000 A 
ATOM      6  C   UNL     1      48.619   6.716  14.621  0.00  0.00    +0.000 A 
ENDROOT
BRANCH   5   7
ATOM      7  C   UNL     1      48.828   7.955  12.436  0.00  0.00    +0.000 C 
ATOM      8  F   UNL     1      47.910   8.928  12.179  0.00  0.00    +0.000 F 
ATOM      9  F   UNL     1      49.877   8.582  13.035  0.00  0.00    +0.000 F 
ATOM     10  F   UNL     1      49.283   7.542  11.220  0.00  0.00    +0.000 F 
ENDBRANCH   5   7
BRANCH   1  11
ATOM     11  N   UNL     1      48.374   5.648  16.800  0.00  0.00    +0.000 N 
ATOM     12  H   UNL     1      47.992   6.386  17.381  0.00  0.00    +0.000 HD
BRANCH  11  17
ATOM     13  C   UNL     1      47.935   2.810  17.742  0.00  0.00    +0.000 C 
ATOM     14  C   UNL     1      49.316   3.413  17.749  0.00  0.00    +0.000 C 
ATOM     15  C   UNL     1      50.423   2.456  17.385  0.00  0.00    +0.000 C 
ATOM     16  C   UNL     1      49.603   4.509  18.750  0.00  0.00    +0.000 C 
ATOM     17  C   UNL     1      49.494   4.847  17.293  0.00  0.00    +0.000 C 
ENDBRANCH  11  17
ENDBRANCH   1  11
BRANCH   3  18
ATOM     18  S   UNL     1      45.574   3.883  12.700  0.00  0.00    +0.000 S 
BRANCH  18  19
ATOM     19  C   UNL     1      44.806   5.015  11.480  0.00  0.00    +0.000 C 
BRANCH  19  20
ATOM     20  C   UNL     1      43.992   4.242  10.429  0.00  0.00    +0.000 C 
ATOM     21  F   UNL     1      43.291   3.243  11.043  0.00  0.00    +0.000 F 
ATOM     22  F   UNL     1      43.047   5.077   9.895  0.00  0.00    +0.000 F 
BRANCH  20  23
ATOM     23  C   UNL     1      44.922   3.697   9.347  0.00  0.00    +0.000 A 
ATOM     24  C   UNL     1      45.151   2.321   9.263  0.00  0.00    +0.000 A 
ATOM     25  C   UNL     1      46.010   1.834   8.281  0.00  0.00    +0.000 A 
ATOM     26  C   UNL     1      46.646   2.712   7.416  0.00  0.00    +0.000 A 
ATOM     27  C   UNL     1      46.381   4.071   7.565  0.00  0.00    +0.000 A 
ATOM     28  N   UNL     1      45.527   4.570   8.497  0.00  0.00    +0.000 NA
BRANCH  26  29
ATOM     29  C   UNL     1      47.605   2.211   6.394  0.00  0.00    +0.000 C 
ATOM     30  N   UNL     1      47.861   3.018   5.313  0.00  0.00    +0.000 N 
ATOM     31  O   UNL     1      48.137   1.126   6.504  0.00  0.00    +0.000 OA
ATOM     32  H   UNL     1      47.513   3.953   5.175  0.00  0.00    +0.000 HD
ATOM     33  H   UNL     1      48.531   2.659   4.643  0.00  0.00    +0.000 HD
ENDBRANCH  26  29
ENDBRANCH  20  23
ENDBRANCH  19  20
ENDBRANCH  18  19
ENDBRANCH   3  18
TORSDOF 8
ENDMDL
MODEL 2
REMARK VINA RESULT:    -8.162      2.567      4.408
REMARK INTER + INTRA:         -13.015
REMARK INTER:                 -11.990
REMARK INTRA:                  -1.025
REMARK UNBOUND:                -1.036
REMARK  Name = 
REMARK  10 active torsions:
REMARK  status: ('A' for Active; 'I' for Inactive)
REMARK    1  A    between atoms: C_1  and  C_2
REMARK    2  A    between atoms: C_2  and  C_3
REMARK    3  A    between atoms: C_5  and  N_6
REMARK    4  A    between atoms: N_6  and  C_7
REMARK    5  A    between atoms: C_9  and  S_10
REMARK    6  A    between atoms: S_10  and  C_11
REMARK    7  A    between atoms: C_11  and  C_12
REMARK    8  A    between atoms: C_12  and  C_15
REMARK    9  A    between atoms: C_18  and  C_19
REMARK   10  A    between atoms: C_25  and  C_26
REMARK                            x       y       z     vdW  Elec       q    Type
REMARK                         _______ _______ _______ _____ _____    ______ ____
ROOT
ATOM      1  C   UNL     1      48.142   6.367  14.705  0.00  0.00    +0.000 A 
ATOM      2  C   UNL     1      47.398   5.757  13.679  0.00  0.00    +0.000 A 
ATOM      3  C   UNL     1      46.778   4.519  13.879  0.00  0.00    +0.000 A 
ATOM      4  C   UNL     1      46.917   3.886  15.120  0.00  0.00    +0.000 A 
ATOM      5  C   UNL     1      47.661   4.472  16.156  0.00  0.00    +0.000 A 
ATOM      6  C   UNL     1      48.260   5.713  15.934  0.00  0.00    +0.000 A 
ENDROOT
BRANCH   5   7
ATOM      7  C   UNL     1      47.855   3.751  17.464  0.00  0.00    +0.000 C 
ATOM      8  F   UNL     1      47.709   4.569  18.544  0.00  0.00    +0.000 F 
ATOM      9  F   UNL     1      46.960   2.742  17.638  0.00  0.00    +0.000 F 
ATOM     10  F   UNL     1      49.087   3.186  17.588  0.00  0.00    +0.000 F 
ENDBRANCH   5   7
BRANCH   1  11
ATOM     11  N   UNL     1      48.800   7.588  14.470  0.00  0.00    +0.000 N 
ATOM     12  H   UNL     1      49.736   7.668  14.850  0.00  0.00    +0.000 HD
BRANCH  11  17
ATOM     13  C   UNL     1      48.934   8.662  11.648  0.00  0.00    +0.000 C 
ATOM     14  C   UNL     1      48.088   9.350  12.689  0.00  0.00    +0.000 C 
ATOM     15  C   UNL     1      46.787   9.911  12.172  0.00  0.00    +0.000 C 
ATOM     16  C   UNL     1      48.796  10.074  13.811  0.00  0.00    +0.000 C 
ATOM     17  C   UNL     1      48.064   8.796  14.099  0.00  0.00    +0.000 C 
ENDBRANCH  11  17
ENDBRANCH   1  11
BRANCH   3  18
ATOM     18  S   UNL     1      45.884   3.602  12.633  0.00  0.00    +0.000 S 
BRANCH  18  19
ATOM     19  C   UNL     1      44.859   4.879  11.812  0.00  0.00    +0.000 C 
BRANCH  19  20
ATOM     20  C   UNL     1      43.984   4.272  10.703  0.00  0.00    +0.000 C 
ATOM     21  F   UNL     1      43.213   3.273  11.229  0.00  0.00    +0.000 F 
ATOM     22  F   UNL     1      43.100   5.221  10.263  0.00  0.00    +0.000 F 
BRANCH  20  23
ATOM     23  C   UNL     1      44.864   3.765   9.562  0.00  0.00    +0.000 A 
ATOM     24  C   UNL     1      45.026   2.390   9.374  0.00  0.00    +0.000 A 
ATOM     25  C   UNL     1      45.840   1.938   8.339  0.00  0.00    +0.000 A 
ATOM     26  C   UNL     1      46.500   2.847   7.525  0.00  0.00    +0.000 A 
ATOM     27  C   UNL     1      46.303   4.202   7.778  0.00  0.00    +0.000 A 
ATOM     28  N   UNL     1      45.492   4.669   8.764  0.00  0.00    +0.000 NA
BRANCH  26  29
ATOM     29  C   UNL     1      47.413   2.379   6.447  0.00  0.00    +0.000 C 
ATOM     30  N   UNL     1      47.335   3.010   5.230  0.00  0.00    +0.000 N 
ATOM     31  O   UNL     1      48.192   1.468   6.630  0.00  0.00    +0.000 OA
ATOM     32  H   UNL     1      46.764   3.810   5.012  0.00  0.00    +0.000 HD
ATOM     33  H   UNL     1      47.980   2.681   4.521  0.00  0.00    +0.000 HD
ENDBRANCH  26  29
ENDBRANCH  20  23
ENDBRANCH  19  20
ENDBRANCH  18  19
ENDBRANCH   3  18
TORSDOF 8
ENDMDL
MODEL 3
REMARK VINA RESULT:    -7.714      2.060      2.470
REMARK INTER + INTRA:         -12.358
REMARK INTER:                 -11.378
REMARK INTRA:                  -0.980
REMARK UNBOUND:                -1.036
REMARK  Name = 
REMARK  10 active torsions:
REMARK  status: ('A' for Active; 'I' for Inactive)
REMARK    1  A    between atoms: C_1  and  C_2
REMARK    2  A    between atoms: C_2  and  C_3
REMARK    3  A    between atoms: C_5  and  N_6
REMARK    4  A    between atoms: N_6  and  C_7
REMARK    5  A    between atoms: C_9  and  S_10
REMARK    6  A    between atoms: S_10  and  C_11
REMARK    7  A    between atoms: C_11  and  C_12
REMARK    8  A    between atoms: C_12  and  C_15
REMARK    9  A    between atoms: C_18  and  C_19
REMARK   10  A    between atoms: C_25  and  C_26
REMARK                            x       y       z     vdW  Elec       q    Type
REMARK                         _______ _______ _______ _____ _____    ______ ____
ROOT
ATOM      1  C   UNL     1      48.374   6.964  14.451  0.00  0.00    +0.000 A 
ATOM      2  C   UNL     1      47.148   6.717  13.807  0.00  0.00    +0.000 A 
ATOM      3  C   UNL     1      47.023   6.860  12.421  0.00  0.00    +0.000 A 
ATOM      4  C   UNL     1      48.139   7.262  11.679  0.00  0.00    +0.000 A 
ATOM      5  C   UNL     1      49.371   7.522  12.300  0.00  0.00    +0.000 A 
ATOM      6  C   UNL     1      49.472   7.361  13.683  0.00  0.00    +0.000 A 
ENDROOT
BRANCH   5   7
ATOM      7  C   UNL     1      50.546   8.015  11.498  0.00  0.00    +0.000 C 
ATOM      8  F   UNL     1      51.685   8.120  12.239  0.00  0.00    +0.000 F 
ATOM      9  F   UNL     1      50.851   7.188  10.462  0.00  0.00    +0.000 F 
ATOM     10  F   UNL     1      50.344   9.245  10.950  0.00  0.00    +0.000 F 
ENDBRANCH   5   7
BRANCH   1  11
ATOM     11  N   UNL     1      48.470   6.864  15.851  0.00  0.00    +0.000 N 
ATOM     12  H   UNL     1      47.903   6.143  16.284  0.00  0.00    +0.000 HD
BRANCH  11  17
ATOM     13  C   UNL     1      47.771   7.065  18.784  0.00  0.00    +0.000 C 
ATOM     14  C   UNL     1      48.680   8.082  18.143  0.00  0.00    +0.000 C 
ATOM     15  C   UNL     1      49.807   8.561  19.023  0.00  0.00    +0.000 C 
ATOM     16  C   UNL     1      48.072   9.047  17.151  0.00  0.00    +0.000 C 
ATOM     17  C   UNL     1      48.989   7.962  16.665  0.00  0.00    +0.000 C 
ENDBRANCH  11  17
ENDBRANCH   1  11
BRANCH   3  18
ATOM     18  S   UNL     1      45.504   6.665  11.500  0.00  0.00    +0.000 S 
BRANCH  18  19
ATOM     19  C   UNL     1      45.100   4.890  11.707  0.00  0.00    +0.000 C 
BRANCH  19  20
ATOM     20  C   UNL     1      44.188   4.384  10.577  0.00  0.00    +0.000 C 
ATOM     21  F   UNL     1      43.315   3.459  11.078  0.00  0.00    +0.000 F 
ATOM     22  F   UNL     1      43.408   5.420  10.136  0.00  0.00    +0.000 F 
BRANCH  20  23
ATOM     23  C   UNL     1      45.032   3.808   9.443  0.00  0.00    +0.000 A 
ATOM     24  C   UNL     1      45.204   2.424   9.345  0.00  0.00    +0.000 A 
ATOM     25  C   UNL     1      45.986   1.908   8.315  0.00  0.00    +0.000 A 
ATOM     26  C   UNL     1      46.604   2.764   7.415  0.00  0.00    +0.000 A 
ATOM     27  C   UNL     1      46.400   4.132   7.581  0.00  0.00    +0.000 A 
ATOM     28  N   UNL     1      45.620   4.659   8.561  0.00  0.00    +0.000 NA
BRANCH  26  29
ATOM     29  C   UNL     1      47.484   2.230   6.340  0.00  0.00    +0.000 C 
ATOM     30  N   UNL     1      47.745   3.048   5.268  0.00  0.00    +0.000 N 
ATOM     31  O   UNL     1      47.948   1.111   6.400  0.00  0.00    +0.000 OA
ATOM     32  H   UNL     1      47.452   4.006   5.168  0.00  0.00    +0.000 HD
ATOM     33  H   UNL     1      48.360   2.664   4.560  0.00  0.00    +0.000 HD
ENDBRANCH  26  29
ENDBRANCH  20  23
ENDBRANCH  19  20
ENDBRANCH  18  19
ENDBRANCH   3  18
TORSDOF 8
ENDMDL
MODEL 4
REMARK VINA RESULT:    -7.584      2.648      3.606
REMARK INTER + INTRA:         -12.167
REMARK INTER:                 -11.293
REMARK INTRA:                  -0.875
REMARK UNBOUND:                -1.036
REMARK  Name = 
REMARK  10 active torsions:
REMARK  status: ('A' for Active; 'I' for Inactive)
REMARK    1  A    between atoms: C_1  and  C_2
REMARK    2  A    between atoms: C_2  and  C_3
REMARK    3  A    between atoms: C_5  and  N_6
REMARK    4  A    between atoms: N_6  and  C_7
REMARK    5  A    between atoms: C_9  and  S_10
REMARK    6  A    between atoms: S_10  and  C_11
REMARK    7  A    between atoms: C_11  and  C_12
REMARK    8  A    between atoms: C_12  and  C_15
REMARK    9  A    between atoms: C_18  and  C_19
REMARK   10  A    between atoms: C_25  and  C_26
REMARK                            x       y       z     vdW  Elec       q    Type
REMARK                         _______ _______ _______ _____ _____    ______ ____
ROOT
ATOM      1  C   UNL     1      48.459   7.360  14.231  0.00  0.00    +0.000 A 
ATOM      2  C   UNL     1      47.645   7.310  13.086  0.00  0.00    +0.000 A 
ATOM      3  C   UNL     1      46.798   6.220  12.854  0.00  0.00    +0.000 A 
ATOM      4  C   UNL     1      46.778   5.170  13.779  0.00  0.00    +0.000 A 
ATOM      5  C   UNL     1      47.587   5.195  14.925  0.00  0.00    +0.000 A 
ATOM      6  C   UNL     1      48.415   6.299  15.139  0.00  0.00    +0.000 A 
ENDROOT
BRANCH   5   7
ATOM      7  C   UNL     1      47.603   4.030  15.879  0.00  0.00    +0.000 C 
ATOM      8  F   UNL     1      47.611   2.825  15.242  0.00  0.00    +0.000 F 
ATOM      9  F   UNL     1      48.700   4.032  16.684  0.00  0.00    +0.000 F 
ATOM     10  F   UNL     1      46.526   4.003  16.712  0.00  0.00    +0.000 F 
ENDBRANCH   5   7
BRANCH   1  11
ATOM     11  N   UNL     1      49.341   8.439  14.424  0.00  0.00    +0.000 N 
ATOM     12  H   UNL     1      48.936   9.364  14.337  0.00  0.00    +0.000 HD
BRANCH  11  17
ATOM     13  C   UNL     1      51.086   8.688  16.879  0.00  0.00    +0.000 C 
ATOM     14  C   UNL     1      51.694   8.364  15.539  0.00  0.00    +0.000 C 
ATOM     15  C   UNL     1      52.845   7.392  15.588  0.00  0.00    +0.000 C 
ATOM     16  C   UNL     1      51.705   9.450  14.487  0.00  0.00    +0.000 C 
ATOM     17  C   UNL     1      50.791   8.272  14.326  0.00  0.00    +0.000 C 
ENDBRANCH  11  17
ENDBRANCH   1  11
BRANCH   3  18
ATOM     18  S   UNL     1      45.786   5.995  11.398  0.00  0.00    +0.000 S 
BRANCH  18  19
ATOM     19  C   UNL     1      44.818   4.485  11.776  0.00  0.00    +0.000 C 
BRANCH  19  20
ATOM     20  C   UNL     1      43.963   4.049  10.576  0.00  0.00    +0.000 C 
ATOM     21  F   UNL     1      43.080   3.085  10.974  0.00  0.00    +0.000 F 
ATOM     22  F   UNL     1      43.192   5.105  10.171  0.00  0.00    +0.000 F 
BRANCH  20  23
ATOM     23  C   UNL     1      44.864   3.557   9.445  0.00  0.00    +0.000 A 
ATOM     24  C   UNL     1      45.231   2.210   9.391  0.00  0.00    +0.000 A 
ATOM     25  C   UNL     1      46.063   1.773   8.364  0.00  0.00    +0.000 A 
ATOM     26  C   UNL     1      46.538   2.675   7.422  0.00  0.00    +0.000 A 
ATOM     27  C   UNL     1      46.142   4.005   7.545  0.00  0.00    +0.000 A 
ATOM     28  N   UNL     1      45.310   4.451   8.522  0.00  0.00    +0.000 NA
BRANCH  26  29
ATOM     29  C   UNL     1      47.468   2.233   6.348  0.00  0.00    +0.000 C 
ATOM     30  N   UNL     1      47.720   3.113   5.324  0.00  0.00    +0.000 N 
ATOM     31  O   UNL     1      47.980   1.134   6.368  0.00  0.00    +0.000 OA
ATOM     32  H   UNL     1      47.388   4.061   5.262  0.00  0.00    +0.000 HD
ATOM     33  H   UNL     1      48.370   2.791   4.616  0.00  0.00    +0.000 HD
ENDBRANCH  26  29
ENDBRANCH  20  23
ENDBRANCH  19  20
ENDBRANCH  18  19
ENDBRANCH   3  18
TORSDOF 8
ENDMDL
MODEL 5
REMARK VINA RESULT:    -7.198      3.469      8.301
REMARK INTER + INTRA:         -11.601
REMARK INTER:                 -10.641
REMARK INTRA:                  -0.960
REMARK UNBOUND:                -1.036
REMARK  Name = 
REMARK  10 active torsions:
REMARK  status: ('A' for Active; 'I' for Inactive)
REMARK    1  A    between atoms: C_1  and  C_2
REMARK    2  A    between atoms: C_2  and  C_3
REMARK    3  A    between atoms: C_5  and  N_6
REMARK    4  A    between atoms: N_6  and  C_7
REMARK    5  A    between atoms: C_9  and  S_10
REMARK    6  A    between atoms: S_10  and  C_11
REMARK    7  A    between atoms: C_11  and  C_12
REMARK    8  A    between atoms: C_12  and  C_15
REMARK    9  A    between atoms: C_18  and  C_19
REMARK   10  A    between atoms: C_25  and  C_26
REMARK                            x       y       z     vdW  Elec       q    Type
REMARK                         _______ _______ _______ _____ _____    ______ ____
ROOT
ATOM      1  C   UNL     1      45.585   5.609  10.734  0.00  0.00    +0.000 A 
ATOM      2  C   UNL     1      45.937   4.667  11.717  0.00  0.00    +0.000 A 
ATOM      3  C   UNL     1      46.300   5.075  13.005  0.00  0.00    +0.000 A 
ATOM      4  C   UNL     1      46.318   6.443  13.301  0.00  0.00    +0.000 A 
ATOM      5  C   UNL     1      45.979   7.402  12.334  0.00  0.00    +0.000 A 
ATOM      6  C   UNL     1      45.609   6.967  11.060  0.00  0.00    +0.000 A 
ENDROOT
BRANCH   5   7
ATOM      7  C   UNL     1      46.063   8.872  12.648  0.00  0.00    +0.000 C 
ATOM      8  F   UNL     1      46.337   9.632  11.550  0.00  0.00    +0.000 F 
ATOM      9  F   UNL     1      44.901   9.361  13.158  0.00  0.00    +0.000 F 
ATOM     10  F   UNL     1      47.029   9.172  13.559  0.00  0.00    +0.000 F 
ENDBRANCH   5   7
BRANCH   1  11
ATOM     11  N   UNL     1      45.270   5.185   9.430  0.00  0.00    +0.000 N 
ATOM     12  H   UNL     1      44.969   5.909   8.788  0.00  0.00    +0.000 HD
BRANCH  11  17
ATOM     13  C   UNL     1      46.778   3.732   7.250  0.00  0.00    +0.000 C 
ATOM     14  C   UNL     1      45.728   3.016   8.061  0.00  0.00    +0.000 C 
ATOM     15  C   UNL     1      46.048   1.577   8.376  0.00  0.00    +0.000 C 
ATOM     16  C   UNL     1      44.283   3.410   7.852  0.00  0.00    +0.000 C 
ATOM     17  C   UNL     1      44.976   3.784   9.129  0.00  0.00    +0.000 C 
ENDBRANCH  11  17
ENDBRANCH   1  11
BRANCH   3  18
ATOM     18  S   UNL     1      46.853   3.988  14.311  0.00  0.00    +0.000 S 
BRANCH  18  19
ATOM     19  C   UNL     1      47.655   5.124  15.505  0.00  0.00    +0.000 C 
BRANCH  19  20
ATOM     20  C   UNL     1      47.704   4.515  16.916  0.00  0.00    +0.000 C 
ATOM     21  F   UNL     1      47.555   5.508  17.844  0.00  0.00    +0.000 F 
ATOM     22  F   UNL     1      46.623   3.692  17.084  0.00  0.00    +0.000 F 
BRANCH  20  23
ATOM     23  C   UNL     1      49.013   3.753  17.110  0.00  0.00    +0.000 A 
ATOM     24  C   UNL     1      49.062   2.384  16.834  0.00  0.00    +0.000 A 
ATOM     25  C   UNL     1      50.256   1.694  17.026  0.00  0.00    +0.000 A 
ATOM     26  C   UNL     1      51.374   2.361  17.508  0.00  0.00    +0.000 A 
ATOM     27  C   UNL     1      51.250   3.722  17.774  0.00  0.00    +0.000 A 
ATOM     28  N   UNL     1      50.103   4.423  17.570  0.00  0.00    +0.000 NA
BRANCH  26  29
ATOM     29  C   UNL     1      52.643   1.627  17.765  0.00  0.00    +0.000 C 
ATOM     30  N   UNL     1      52.550   0.306  18.131  0.00  0.00    +0.000 N 
ATOM     31  O   UNL     1      53.721   2.174  17.666  0.00  0.00    +0.000 OA
ATOM     32  H   UNL     1      51.705  -0.238  18.177  0.00  0.00    +0.000 HD
ATOM     33  H   UNL     1      53.431  -0.172  18.283  0.00  0.00    +0.000 HD
ENDBRANCH  26  29
ENDBRANCH  20  23
ENDBRANCH  19  20
ENDBRANCH  18  19
ENDBRANCH   3  18
TORSDOF 8
ENDMDL
MODEL 6
REMARK VINA RESULT:    -6.969      3.795      6.894
REMARK INTER + INTRA:         -11.264
REMARK INTER:                  -9.635
REMARK INTRA:                  -1.629
REMARK UNBOUND:                -1.036
REMARK  Name = 
REMARK  10 active torsions:
REMARK  status: ('A' for Active; 'I' for Inactive)
REMARK    1  A    between atoms: C_1  and  C_2
REMARK    2  A    between atoms: C_2  and  C_3
REMARK    3  A    between atoms: C_5  and  N_6
REMARK    4  A    between atoms: N_6  and  C_7
REMARK    5  A    between atoms: C_9  and  S_10
REMARK    6  A    between atoms: S_10  and  C_11
REMARK    7  A    between atoms: C_11  and  C_12
REMARK    8  A    between atoms: C_12  and  C_15
REMARK    9  A    between atoms: C_18  and  C_19
REMARK   10  A    between atoms: C_25  and  C_26
REMARK                            x       y       z     vdW  Elec       q    Type
REMARK                         _______ _______ _______ _____ _____    ______ ____
ROOT
ATOM      1  C   UNL     1      46.352   4.091  13.654  0.00  0.00    +0.000 A 
ATOM      2  C   UNL     1      46.242   5.493  13.617  0.00  0.00    +0.000 A 
ATOM      3  C   UNL     1      45.522   6.131  12.601  0.00  0.00    +0.000 A 
ATOM      4  C   UNL     1      44.915   5.350  11.610  0.00  0.00    +0.000 A 
ATOM      5  C   UNL     1      45.018   3.950  11.622  0.00  0.00    +0.000 A 
ATOM      6  C   UNL     1      45.732   3.339  12.654  0.00  0.00    +0.000 A 
ENDROOT
BRANCH   5   7
ATOM      7  C   UNL     1      44.414   3.127  10.516  0.00  0.00    +0.000 C 
ATOM      8  F   UNL     1      43.830   3.888   9.548  0.00  0.00    +0.000 F 
ATOM      9  F   UNL     1      45.337   2.358   9.878  0.00  0.00    +0.000 F 
ATOM     10  F   UNL     1      43.447   2.271  10.950  0.00  0.00    +0.000 F 
ENDBRANCH   5   7
BRANCH   1  11
ATOM     11  N   UNL     1      47.121   3.470  14.655  0.00  0.00    +0.000 N 
ATOM     12  H   UNL     1      47.131   2.456  14.641  0.00  0.00    +0.000 HD
BRANCH  11  17
ATOM     13  C   UNL     1      49.019   2.193  16.630  0.00  0.00    +0.000 C 
ATOM     14  C   UNL     1      48.486   3.583  16.870  0.00  0.00    +0.000 C 
ATOM     15  C   UNL     1      49.474   4.536  17.493  0.00  0.00    +0.000 C 
ATOM     16  C   UNL     1      47.021   3.728  17.211  0.00  0.00    +0.000 C 
ATOM     17  C   UNL     1      47.517   4.180  15.870  0.00  0.00    +0.000 C 
ENDBRANCH  11  17
ENDBRANCH   1  11
BRANCH   3  18
ATOM     18  S   UNL     1      45.385   7.900  12.391  0.00  0.00    +0.000 S 
BRANCH  18  19
ATOM     19  C   UNL     1      46.851   8.553  13.275  0.00  0.00    +0.000 C 
BRANCH  19  20
ATOM     20  C   UNL     1      48.107   8.513  12.389  0.00  0.00    +0.000 C 
ATOM     21  F   UNL     1      47.935   7.585  11.400  0.00  0.00    +0.000 F 
ATOM     22  F   UNL     1      48.236   9.714  11.744  0.00  0.00    +0.000 F 
BRANCH  20  23
ATOM     23  C   UNL     1      49.337   8.209  13.241  0.00  0.00    +0.000 A 
ATOM     24  C   UNL     1      49.192   7.491  14.431  0.00  0.00    +0.000 A 
ATOM     25  C   UNL     1      50.317   7.230  15.208  0.00  0.00    +0.000 A 
ATOM     26  C   UNL     1      51.561   7.700  14.812  0.00  0.00    +0.000 A 
ATOM     27  C   UNL     1      51.630   8.420  13.621  0.00  0.00    +0.000 A 
ATOM     28  N   UNL     1      50.551   8.665  12.832  0.00  0.00    +0.000 NA
BRANCH  26  29
ATOM     29  C   UNL     1      52.764   7.472  15.657  0.00  0.00    +0.000 C 
ATOM     30  N   UNL     1      53.842   6.853  15.073  0.00  0.00    +0.000 N 
ATOM     31  O   UNL     1      52.793   7.810  16.821  0.00  0.00    +0.000 OA
ATOM     32  H   UNL     1      53.925   6.597  14.103  0.00  0.00    +0.000 HD
ATOM     33  H   UNL     1      54.653   6.726  15.668  0.00  0.00    +0.000 HD
ENDBRANCH  26  29
ENDBRANCH  20  23
ENDBRANCH  19  20
ENDBRANCH  18  19
ENDBRANCH   3  18
TORSDOF 8
ENDMDL
MODEL 7
REMARK VINA RESULT:    -6.935      3.966      7.438
REMARK INTER + INTRA:         -11.215
REMARK INTER:                  -9.590
REMARK INTRA:                  -1.625
REMARK UNBOUND:                -1.036
REMARK  Name = 
REMARK  10 active torsions:
REMARK  status: ('A' for Active; 'I' for Inactive)
REMARK    1  A    between atoms: C_1  and  C_2
REMARK    2  A    between atoms: C_2  and  C_3
REMARK    3  A    between atoms: C_5  and  N_6
REMARK    4  A    between atoms: N_6  and  C_7
REMARK    5  A    between atoms: C_9  and  S_10
REMARK    6  A    between atoms: S_10  and  C_11
REMARK    7  A    between atoms: C_11  and  C_12
REMARK    8  A    between atoms: C_12  and  C_15
REMARK    9  A    between atoms: C_18  and  C_19
REMARK   10  A    between atoms: C_25  and  C_26
REMARK                            x       y       z     vdW  Elec       q    Type
REMARK                         _______ _______ _______ _____ _____    ______ ____
ROOT
ATOM      1  C   UNL     1      46.648   3.991  13.763  0.00  0.00    +0.000 A 
ATOM      2  C   UNL     1      46.936   5.357  13.593  0.00  0.00    +0.000 A 
ATOM      3  C   UNL     1      46.391   6.079  12.526  0.00  0.00    +0.000 A 
ATOM      4  C   UNL     1      45.557   5.417  11.618  0.00  0.00    +0.000 A 
ATOM      5  C   UNL     1      45.261   4.052  11.763  0.00  0.00    +0.000 A 
ATOM      6  C   UNL     1      45.809   3.358  12.843  0.00  0.00    +0.000 A 
ENDROOT
BRANCH   5   7
ATOM      7  C   UNL     1      44.413   3.338  10.744  0.00  0.00    +0.000 C 
ATOM      8  F   UNL     1      45.132   2.484   9.963  0.00  0.00    +0.000 F 
ATOM      9  F   UNL     1      43.437   2.585  11.318  0.00  0.00    +0.000 F 
ATOM     10  F   UNL     1      43.779   4.184   9.885  0.00  0.00    +0.000 F 
ENDBRANCH   5   7
BRANCH   1  11
ATOM     11  N   UNL     1      47.244   3.269  14.813  0.00  0.00    +0.000 N 
ATOM     12  H   UNL     1      47.186   2.259  14.746  0.00  0.00    +0.000 HD
BRANCH  11  17
ATOM     13  C   UNL     1      49.350   2.101  16.639  0.00  0.00    +0.000 C 
ATOM     14  C   UNL     1      48.603   3.350  17.034  0.00  0.00    +0.000 C 
ATOM     15  C   UNL     1      49.432   4.374  17.766  0.00  0.00    +0.000 C 
ATOM     16  C   UNL     1      47.138   3.217  17.382  0.00  0.00    +0.000 C 
ATOM     17  C   UNL     1      47.537   3.892  16.103  0.00  0.00    +0.000 C 
ENDBRANCH  11  17
ENDBRANCH   1  11
BRANCH   3  18
ATOM     18  S   UNL     1      46.750   7.789  12.150  0.00  0.00    +0.000 S 
BRANCH  18  19
ATOM     19  C   UNL     1      48.511   7.756  11.644  0.00  0.00    +0.000 C 
BRANCH  19  20
ATOM     20  C   UNL     1      49.334   8.813  12.400  0.00  0.00    +0.000 C 
ATOM     21  F   UNL     1      50.641   8.737  12.007  0.00  0.00    +0.000 F 
ATOM     22  F   UNL     1      48.912  10.060  12.023  0.00  0.00    +0.000 F 
BRANCH  20  23
ATOM     23  C   UNL     1      49.184   8.611  13.906  0.00  0.00    +0.000 A 
ATOM     24  C   UNL     1      49.730   7.474  14.508  0.00  0.00    +0.000 A 
ATOM     25  C   UNL     1      49.577   7.291  15.880  0.00  0.00    +0.000 A 
ATOM     26  C   UNL     1      48.869   8.219  16.630  0.00  0.00    +0.000 A 
ATOM     27  C   UNL     1      48.341   9.321  15.963  0.00  0.00    +0.000 A 
ATOM     28  N   UNL     1      48.498   9.536  14.630  0.00  0.00    +0.000 NA
BRANCH  26  29
ATOM     29  C   UNL     1      48.654   8.012  18.088  0.00  0.00    +0.000 C 
ATOM     30  N   UNL     1      47.364   7.819  18.519  0.00  0.00    +0.000 N 
ATOM     31  O   UNL     1      49.580   8.022  18.871  0.00  0.00    +0.000 OA
ATOM     32  H   UNL     1      46.550   7.735  17.933  0.00  0.00    +0.000 HD
ATOM     33  H   UNL     1      47.250   7.664  19.514  0.00  0.00    +0.000 HD
ENDBRANCH  26  29
ENDBRANCH  20  23
ENDBRANCH  19  20
ENDBRANCH  18  19
ENDBRANCH   3  18
TORSDOF 8
ENDMDL
MODEL 8
REMARK VINA RESULT:    -6.698      1.876      2.560
REMARK INTER + INTRA:         -10.867
REMARK INTER:                  -9.865
REMARK INTRA:                  -1.002
REMARK UNBOUND:                -1.036
REMARK  Name = 
REMARK  10 active torsions:
REMARK  status: ('A' for Active; 'I' for Inactive)
REMARK    1  A    between atoms: C_1  and  C_2
REMARK    2  A    between atoms: C_2  and  C_3
REMARK    3  A    between atoms: C_5  and  N_6
REMARK    4  A    between atoms: N_6  and  C_7
REMARK    5  A    between atoms: C_9  and  S_10
REMARK    6  A    between atoms: S_10  and  C_11
REMARK    7  A    between atoms: C_11  and  C_12
REMARK    8  A    between atoms: C_12  and  C_15
REMARK    9  A    between atoms: C_18  and  C_19
REMARK   10  A    between atoms: C_25  and  C_26
REMARK                            x       y       z     vdW  Elec       q    Type
REMARK                         _______ _______ _______ _____ _____    ______ ____
ROOT
ATOM      1  C   UNL     1      48.091   7.282  13.213  0.00  0.00    +0.000 A 
ATOM      2  C   UNL     1      46.893   6.624  12.883  0.00  0.00    +0.000 A 
ATOM      3  C   UNL     1      45.865   7.296  12.212  0.00  0.00    +0.000 A 
ATOM      4  C   UNL     1      46.043   8.643  11.879  0.00  0.00    +0.000 A 
ATOM      5  C   UNL     1      47.227   9.323  12.205  0.00  0.00    +0.000 A 
ATOM      6  C   UNL     1      48.241   8.626  12.864  0.00  0.00    +0.000 A 
ENDROOT
BRANCH   5   7
ATOM      7  C   UNL     1      47.380  10.789  11.896  0.00  0.00    +0.000 C 
ATOM      8  F   UNL     1      47.820  11.511  12.965  0.00  0.00    +0.000 F 
ATOM      9  F   UNL     1      48.275  11.019  10.898  0.00  0.00    +0.000 F 
ATOM     10  F   UNL     1      46.218  11.379  11.502  0.00  0.00    +0.000 F 
ENDBRANCH   5   7
BRANCH   1  11
ATOM     11  N   UNL     1      49.093   6.606  13.932  0.00  0.00    +0.000 N 
ATOM     12  H   UNL     1      49.132   5.601  13.802  0.00  0.00    +0.000 HD
BRANCH  11  17
ATOM     13  C   UNL     1      48.973   5.255  16.633  0.00  0.00    +0.000 C 
ATOM     14  C   UNL     1      49.726   6.549  16.458  0.00  0.00    +0.000 C 
ATOM     15  C   UNL     1      50.994   6.653  17.266  0.00  0.00    +0.000 C 
ATOM     16  C   UNL     1      48.923   7.804  16.201  0.00  0.00    +0.000 C 
ATOM     17  C   UNL     1      49.743   7.210  15.095  0.00  0.00    +0.000 C 
ENDBRANCH  11  17
ENDBRANCH   1  11
BRANCH   3  18
ATOM     18  S   UNL     1      44.266   6.601  11.818  0.00  0.00    +0.000 S 
BRANCH  18  19
ATOM     19  C   UNL     1      44.507   4.801  12.065  0.00  0.00    +0.000 C 
BRANCH  19  20
ATOM     20  C   UNL     1      43.643   3.979  11.095  0.00  0.00    +0.000 C 
ATOM     21  F   UNL     1      43.084   2.927  11.766  0.00  0.00    +0.000 F 
ATOM     22  F   UNL     1      42.590   4.746  10.676  0.00  0.00    +0.000 F 
BRANCH  20  23
ATOM     23  C   UNL     1      44.489   3.509   9.913  0.00  0.00    +0.000 A 
ATOM     24  C   UNL     1      44.830   2.159   9.801  0.00  0.00    +0.000 A 
ATOM     25  C   UNL     1      45.611   1.742   8.727  0.00  0.00    +0.000 A 
ATOM     26  C   UNL     1      46.063   2.667   7.796  0.00  0.00    +0.000 A 
ATOM     27  C   UNL     1      45.697   3.998   7.977  0.00  0.00    +0.000 A 
ATOM     28  N   UNL     1      44.912   4.425   9.002  0.00  0.00    +0.000 NA
BRANCH  26  29
ATOM     29  C   UNL     1      46.941   2.245   6.671  0.00  0.00    +0.000 C 
ATOM     30  N   UNL     1      47.501   3.232   5.897  0.00  0.00    +0.000 N 
ATOM     31  O   UNL     1      47.151   1.073   6.437  0.00  0.00    +0.000 OA
ATOM     32  H   UNL     1      47.429   4.223   6.057  0.00  0.00    +0.000 HD
ATOM     33  H   UNL     1      48.107   2.915   5.149  0.00  0.00    +0.000 HD
ENDBRANCH  26  29
ENDBRANCH  20  23
ENDBRANCH  19  20
ENDBRANCH  18  19
ENDBRANCH   3  18
TORSDOF 8
ENDMDL
MODEL 9
REMARK VINA RESULT:    -6.443      3.445      4.868
REMARK INTER + INTRA:         -10.493
REMARK INTER:                  -9.262
REMARK INTRA:                  -1.231
REMARK UNBOUND:                -1.036
REMARK  Name = 
REMARK  10 active torsions:
REMARK  status: ('A' for Active; 'I' for Inactive)
REMARK    1  A    between atoms: C_1  and  C_2
REMARK    2  A    between atoms: C_2  and  C_3
REMARK    3  A    between atoms: C_5  and  N_6
REMARK    4  A    between atoms: N_6  and  C_7
REMARK    5  A    between atoms: C_9  and  S_10
REMARK    6  A    between atoms: S_10  and  C_11
REMARK    7  A    between atoms: C_11  and  C_12
REMARK    8  A    between atoms: C_12  and  C_15
REMARK    9  A    between atoms: C_18  and  C_19
REMARK   10  A    between atoms: C_25  and  C_26
REMARK                            x       y       z     vdW  Elec       q    Type
REMARK                         _______ _______ _______ _____ _____    ______ ____
ROOT
ATOM      1  C   UNL     1      48.835   6.954  16.462  0.00  0.00    +0.000 A 
ATOM      2  C   UNL     1      48.836   7.403  15.129  0.00  0.00    +0.000 A 
ATOM      3  C   UNL     1      48.596   8.747  14.823  0.00  0.00    +0.000 A 
ATOM      4  C   UNL     1      48.345   9.644  15.867  0.00  0.00    +0.000 A 
ATOM      5  C   UNL     1      48.332   9.218  17.205  0.00  0.00    +0.000 A 
ATOM      6  C   UNL     1      48.586   7.874  17.483  0.00  0.00    +0.000 A 
ENDROOT
BRANCH   5   7
ATOM      7  C   UNL     1      47.999  10.180  18.314  0.00  0.00    +0.000 C 
ATOM      8  F   UNL     1      47.421  11.328  17.861  0.00  0.00    +0.000 F 
ATOM      9  F   UNL     1      47.126   9.654  19.214  0.00  0.00    +0.000 F 
ATOM     10  F   UNL     1      49.089  10.570  19.031  0.00  0.00    +0.000 F 
ENDBRANCH   5   7
BRANCH   1  11
ATOM     11  N   UNL     1      49.029   5.591  16.748  0.00  0.00    +0.000 N 
ATOM     12  H   UNL     1      49.960   5.228  16.573  0.00  0.00    +0.000 HD
BRANCH  11  17
ATOM     13  C   UNL     1      49.507   2.618  17.007  0.00  0.00    +0.000 C 
ATOM     14  C   UNL     1      48.105   3.171  17.025  0.00  0.00    +0.000 C 
ATOM     15  C   UNL     1      47.163   2.467  17.968  0.00  0.00    +0.000 C 
ATOM     16  C   UNL     1      47.555   3.742  15.738  0.00  0.00    +0.000 C 
ATOM     17  C   UNL     1      47.903   4.665  16.868  0.00  0.00    +0.000 C 
ENDBRANCH  11  17
ENDBRANCH   1  11
BRANCH   3  18
ATOM     18  S   UNL     1      48.479   9.422  13.172  0.00  0.00    +0.000 S 
BRANCH  18  19
ATOM     19  C   UNL     1      47.711   8.067  12.207  0.00  0.00    +0.000 C 
BRANCH  19  20
ATOM     20  C   UNL     1      46.178   8.087  12.330  0.00  0.00    +0.000 C 
ATOM     21  F   UNL     1      45.829   8.478  13.593  0.00  0.00    +0.000 F 
ATOM     22  F   UNL     1      45.677   9.051  11.497  0.00  0.00    +0.000 F 
BRANCH  20  23
ATOM     23  C   UNL     1      45.610   6.711  11.987  0.00  0.00    +0.000 A 
ATOM     24  C   UNL     1      45.771   6.200  10.696  0.00  0.00    +0.000 A 
ATOM     25  C   UNL     1      45.239   4.951  10.389  0.00  0.00    +0.000 A 
ATOM     26  C   UNL     1      44.536   4.239  11.351  0.00  0.00    +0.000 A 
ATOM     27  C   UNL     1      44.402   4.815  12.612  0.00  0.00    +0.000 A 
ATOM     28  N   UNL     1      44.935   6.020  12.944  0.00  0.00    +0.000 NA
BRANCH  26  29
ATOM     29  C   UNL     1      43.918   2.925  11.023  0.00  0.00    +0.000 C 
ATOM     30  N   UNL     1      44.466   2.206   9.989  0.00  0.00    +0.000 N 
ATOM     31  O   UNL     1      42.960   2.506  11.637  0.00  0.00    +0.000 OA
ATOM     32  H   UNL     1      45.293   2.450   9.470  0.00  0.00    +0.000 HD
ATOM     33  H   UNL     1      44.035   1.309   9.799  0.00  0.00    +0.000 HD
ENDBRANCH  26  29
ENDBRANCH  20  23
ENDBRANCH  19  20
ENDBRANCH  18  19
ENDBRANCH   3  18
TORSDOF 8
ENDMDL
