MODEL 1
REMARK VINA RESULT:    -7.749      0.000      0.000
REMARK INTER + INTRA:          -9.511
REMARK INTER:                  -9.108
REMARK INTRA:                  -0.403
REMARK UNBOUND:                -0.403
REMARK  Name = 
REMARK  3 active torsions:
REMARK  status: ('A' for Active; 'I' for Inactive)
REMARK    1  A    between atoms: C_2  and  C_4
REMARK    2  A    between atoms: N_8  and  C_9
REMARK    3  A    between atoms: C_9  and  C_10
REMARK                            x       y       z     vdW  Elec       q    Type
REMARK                         _______ _______ _______ _____ _____    ______ ____
ROOT
ATOM      1  C   UNL     1      46.338   4.838  13.028  0.00  0.00    +0.000 A 
ATOM      2  C   UNL     1      46.578   5.917  12.184  0.00  0.00    +0.000 A 
ATOM      3  C   UNL     1      46.052   5.891  10.892  0.00  0.00    +0.000 A 
ATOM      4  C   UNL     1      45.324   4.784  10.457  0.00  0.00    +0.000 A 
ATOM      5  N   UNL     1      44.936   4.755   9.125  0.00  0.00    +0.000 N 
ATOM      6  N   UNL     1      45.095   3.733  11.267  0.00  0.00    +0.000 NA
ATOM      7  C   UNL     1      45.602   3.777  12.528  0.00  0.00    +0.000 A 
ATOM      8  H   UNL     1      44.385   5.557   8.848  0.00  0.00    +0.000 HD
ENDROOT
BRANCH   1  10
ATOM      9  N   UNL     1      47.511   5.865  14.890  0.00  0.00    +0.000 N 
ATOM     10  C   UNL     1      46.861   4.764  14.409  0.00  0.00    +0.000 C 
ATOM     11  O   UNL     1      46.691   3.773  15.104  0.00  0.00    +0.000 OA
ATOM     12  H   UNL     1      47.777   5.840  15.868  0.00  0.00    +0.000 HD
ATOM     13  H   UNL     1      47.460   6.768  14.444  0.00  0.00    +0.000 HD
ENDBRANCH   1  10
BRANCH   5  14
ATOM     14  C   UNL     1      44.501   3.496   8.547  0.00  0.00    +0.000 C 
BRANCH  14  15
ATOM     15  C   UNL     1      45.721   2.822   7.958  0.00  0.00    +0.000 A 
ATOM     16  C   UNL     1      45.954   1.464   8.216  0.00  0.00    +0.000 A 
ATOM     17  C   UNL     1      47.072   0.858   7.669  0.00  0.00    +0.000 A 
ATOM     18  N   UNL     1      47.958   1.502   6.883  0.00  0.00    +0.000 NA
ATOM     19  C   UNL     1      47.712   2.807   6.634  0.00  0.00    +0.000 A 
ATOM     20  C   UNL     1      46.622   3.504   7.140  0.00  0.00    +0.000 A 
ENDBRANCH  14  15
ENDBRANCH   5  14
TORSDOF 3
ENDMDL
MODEL 2
REMARK VINA RESULT:    -7.633      2.477      6.130
REMARK INTER + INTRA:          -9.374
REMARK INTER:                  -8.998
REMARK INTRA:                  -0.377
REMARK UNBOUND:                -0.403
REMARK  Name = 
REMARK  3 active torsions:
REMARK  status: ('A' for Active; 'I' for Inactive)
REMARK    1  A    between atoms: C_2  and  C_4
REMARK    2  A    between atoms: N_8  and  C_9
REMARK    3  A    between atoms: C_9  and  C_10
REMARK                            x       y       z     vdW  Elec       q    Type
REMARK                         _______ _______ _______ _____ _____    ______ ____
ROOT
ATOM      1  C   UNL     1      46.492   2.625   7.439  0.00  0.00    +0.000 A 
ATOM      2  C   UNL     1      45.922   1.675   8.281  0.00  0.00    +0.000 A 
ATOM      3  C   UNL     1      44.993   2.091   9.235  0.00  0.00    +0.000 A 
ATOM      4  C   UNL     1      44.672   3.444   9.351  0.00  0.00    +0.000 A 
ATOM      5  N   UNL     1      43.842   3.816  10.400  0.00  0.00    +0.000 N 
ATOM      6  N   UNL     1      45.226   4.369   8.546  0.00  0.00    +0.000 NA
ATOM      7  C   UNL     1      46.119   3.947   7.611  0.00  0.00    +0.000 A 
ATOM      8  H   UNL     1      42.953   3.334  10.402  0.00  0.00    +0.000 HD
ENDROOT
BRANCH   1  10
ATOM      9  N   UNL     1      47.489   3.036   5.264  0.00  0.00    +0.000 N 
ATOM     10  C   UNL     1      47.494   2.287   6.406  0.00  0.00    +0.000 C 
ATOM     11  O   UNL     1      48.316   1.398   6.579  0.00  0.00    +0.000 OA
ATOM     12  H   UNL     1      48.242   2.862   4.607  0.00  0.00    +0.000 HD
ATOM     13  H   UNL     1      46.999   3.913   5.187  0.00  0.00    +0.000 HD
ENDBRANCH   1  10
BRANCH   5  14
ATOM     14  C   UNL     1      43.769   5.218  10.773  0.00  0.00    +0.000 C 
BRANCH  14  15
ATOM     15  C   UNL     1      44.921   5.498  11.712  0.00  0.00    +0.000 A 
ATOM     16  C   UNL     1      45.052   4.750  12.890  0.00  0.00    +0.000 A 
ATOM     17  C   UNL     1      46.113   5.014  13.739  0.00  0.00    +0.000 A 
ATOM     18  N   UNL     1      47.048   5.953  13.493  0.00  0.00    +0.000 NA
ATOM     19  C   UNL     1      46.914   6.656  12.347  0.00  0.00    +0.000 A 
ATOM     20  C   UNL     1      45.884   6.469  11.435  0.00  0.00    +0.000 A 
ENDBRANCH  14  15
ENDBRANCH   5  14
TORSDOF 3
ENDMDL
MODEL 3
REMARK VINA RESULT:    -7.020      1.671      2.067
REMARK INTER + INTRA:          -8.654
REMARK INTER:                  -8.316
REMARK INTRA:                  -0.337
REMARK UNBOUND:                -0.403
REMARK  Name = 
REMARK  3 active torsions:
REMARK  status: ('A' for Active; 'I' for Inactive)
REMARK    1  A    between atoms: C_2  and  C_4
REMARK    2  A    between atoms: N_8  and  C_9
REMARK    3  A    between atoms: C_9  and  C_10
REMARK                            x       y       z     vdW  Elec       q    Type
REMARK                         _______ _______ _______ _____ _____    ______ ____
ROOT
ATOM      1  C   UNL     1      45.902   6.548  12.439  0.00  0.00    +0.000 A 
ATOM      2  C   UNL     1      45.228   5.451  12.964  0.00  0.00    +0.000 A 
ATOM      3  C   UNL     1      44.879   4.403  12.111  0.00  0.00    +0.000 A 
ATOM      4  C   UNL     1      45.183   4.479  10.752  0.00  0.00    +0.000 A 
ATOM      5  N   UNL     1      44.699   3.471   9.931  0.00  0.00    +0.000 N 
ATOM      6  N   UNL     1      45.828   5.542  10.236  0.00  0.00    +0.000 NA
ATOM      7  C   UNL     1      46.174   6.550  11.081  0.00  0.00    +0.000 A 
ATOM      8  H   UNL     1      44.992   2.545  10.213  0.00  0.00    +0.000 HD
ENDROOT
BRANCH   1  10
ATOM      9  N   UNL     1      47.366   7.548  14.098  0.00  0.00    +0.000 N 
ATOM     10  C   UNL     1      46.304   7.713  13.255  0.00  0.00    +0.000 C 
ATOM     11  O   UNL     1      45.732   8.789  13.157  0.00  0.00    +0.000 OA
ATOM     12  H   UNL     1      47.694   8.378  14.578  0.00  0.00    +0.000 HD
ATOM     13  H   UNL     1      48.001   6.767  14.032  0.00  0.00    +0.000 HD
ENDBRANCH   1  10
BRANCH   5  14
ATOM     14  C   UNL     1      44.678   3.684   8.494  0.00  0.00    +0.000 C 
BRANCH  14  15
ATOM     15  C   UNL     1      45.813   2.881   7.900  0.00  0.00    +0.000 A 
ATOM     16  C   UNL     1      45.939   1.520   8.216  0.00  0.00    +0.000 A 
ATOM     17  C   UNL     1      46.980   0.795   7.663  0.00  0.00    +0.000 A 
ATOM     18  N   UNL     1      47.888   1.322   6.818  0.00  0.00    +0.000 NA
ATOM     19  C   UNL     1      47.745   2.630   6.513  0.00  0.00    +0.000 A 
ATOM     20  C   UNL     1      46.738   3.442   7.019  0.00  0.00    +0.000 A 
ENDBRANCH  14  15
ENDBRANCH   5  14
TORSDOF 3
ENDMDL
MODEL 4
REMARK VINA RESULT:    -6.518      1.254      1.961
REMARK INTER + INTRA:          -8.064
REMARK INTER:                  -7.659
REMARK INTRA:                  -0.405
REMARK UNBOUND:                -0.403
REMARK  Name = 
REMARK  3 active torsions:
REMARK  status: ('A' for Active; 'I' for Inactive)
REMARK    1  A    between atoms: C_2  and  C_4
REMARK    2  A    between atoms: N_8  and  C_9
REMARK    3  A    between atoms: C_9  and  C_10
REMARK                            x       y       z     vdW  Elec       q    Type
REMARK                         _______ _______ _______ _____ _____    ______ ____
ROOT
ATOM      1  C   UNL     1      47.036   5.050  14.256  0.00  0.00    +0.000 A 
ATOM      2  C   UNL     1      47.540   6.020  13.397  0.00  0.00    +0.000 A 
ATOM      3  C   UNL     1      46.886   6.254  12.187  0.00  0.00    +0.000 A 
ATOM      4  C   UNL     1      45.762   5.500  11.845  0.00  0.00    +0.000 A 
ATOM      5  N   UNL     1      45.230   5.685  10.577  0.00  0.00    +0.000 N 
ATOM      6  N   UNL     1      45.275   4.555  12.669  0.00  0.00    +0.000 NA
ATOM      7  C   UNL     1      45.914   4.347  13.850  0.00  0.00    +0.000 A 
ATOM      8  H   UNL     1      44.972   6.644  10.383  0.00  0.00    +0.000 HD
ENDROOT
BRANCH   1  10
ATOM      9  N   UNL     1      47.673   5.695  16.509  0.00  0.00    +0.000 N 
ATOM     10  C   UNL     1      47.663   4.719  15.553  0.00  0.00    +0.000 C 
ATOM     11  O   UNL     1      48.124   3.608  15.776  0.00  0.00    +0.000 OA
ATOM     12  H   UNL     1      48.015   5.426  17.425  0.00  0.00    +0.000 HD
ATOM     13  H   UNL     1      47.102   6.524  16.450  0.00  0.00    +0.000 HD
ENDBRANCH   1  10
BRANCH   5  14
ATOM     14  C   UNL     1      44.307   4.694  10.051  0.00  0.00    +0.000 C 
BRANCH  14  15
ATOM     15  C   UNL     1      45.095   3.776   9.144  0.00  0.00    +0.000 A 
ATOM     16  C   UNL     1      45.870   4.321   8.111  0.00  0.00    +0.000 A 
ATOM     17  C   UNL     1      46.589   3.471   7.290  0.00  0.00    +0.000 A 
ATOM     18  N   UNL     1      46.599   2.130   7.431  0.00  0.00    +0.000 NA
ATOM     19  C   UNL     1      45.858   1.622   8.440  0.00  0.00    +0.000 A 
ATOM     20  C   UNL     1      45.099   2.391   9.313  0.00  0.00    +0.000 A 
ENDBRANCH  14  15
ENDBRANCH   5  14
TORSDOF 3
ENDMDL
MODEL 5
REMARK VINA RESULT:    -6.399      1.698      1.904
REMARK INTER + INTRA:          -7.924
REMARK INTER:                  -7.640
REMARK INTRA:                  -0.284
REMARK UNBOUND:                -0.403
REMARK  Name = 
REMARK  3 active torsions:
REMARK  status: ('A' for Active; 'I' for Inactive)
REMARK    1  A    between atoms: C_2  and  C_4
REMARK    2  A    between atoms: N_8  and  C_9
REMARK    3  A    between atoms: C_9  and  C_10
REMARK                            x       y       z     vdW  Elec       q    Type
REMARK                         _______ _______ _______ _____ _____    ______ ____
ROOT
ATOM      1  C   UNL     1      46.591   6.841  12.782  0.00  0.00    +0.000 A 
ATOM      2  C   UNL     1      45.902   7.548  11.802  0.00  0.00    +0.000 A 
ATOM      3  C   UNL     1      45.017   6.860  10.972  0.00  0.00    +0.000 A 
ATOM      4  C   UNL     1      44.856   5.482  11.114  0.00  0.00    +0.000 A 
ATOM      5  N   UNL     1      44.063   4.830  10.180  0.00  0.00    +0.000 N 
ATOM      6  N   UNL     1      45.526   4.790  12.055  0.00  0.00    +0.000 NA
ATOM      7  C   UNL     1      46.375   5.476  12.866  0.00  0.00    +0.000 A 
ATOM      8  H   UNL     1      43.123   5.199  10.120  0.00  0.00    +0.000 HD
ENDROOT
BRANCH   1  10
ATOM      9  N   UNL     1      47.124   8.554  14.419  0.00  0.00    +0.000 N 
ATOM     10  C   UNL     1      47.558   7.475  13.702  0.00  0.00    +0.000 C 
ATOM     11  O   UNL     1      48.690   7.033  13.843  0.00  0.00    +0.000 OA
ATOM     12  H   UNL     1      47.762   8.919  15.117  0.00  0.00    +0.000 HD
ATOM     13  H   UNL     1      46.149   8.794  14.509  0.00  0.00    +0.000 HD
ENDBRANCH   1  10
BRANCH   5  14
ATOM     14  C   UNL     1      44.152   3.384  10.070  0.00  0.00    +0.000 C 
BRANCH  14  15
ATOM     15  C   UNL     1      45.156   3.073   8.982  0.00  0.00    +0.000 A 
ATOM     16  C   UNL     1      45.606   1.756   8.811  0.00  0.00    +0.000 A 
ATOM     17  C   UNL     1      46.523   1.484   7.811  0.00  0.00    +0.000 A 
ATOM     18  N   UNL     1      47.009   2.420   6.971  0.00  0.00    +0.000 NA
ATOM     19  C   UNL     1      46.555   3.681   7.141  0.00  0.00    +0.000 A 
ATOM     20  C   UNL     1      45.641   4.055   8.118  0.00  0.00    +0.000 A 
ENDBRANCH  14  15
ENDBRANCH   5  14
TORSDOF 3
ENDMDL
MODEL 6
REMARK VINA RESULT:    -6.090      3.087      7.147
REMARK INTER + INTRA:          -7.561
REMARK INTER:                  -7.269
REMARK INTRA:                  -0.292
REMARK UNBOUND:                -0.403
REMARK  Name = 
REMARK  3 active torsions:
REMARK  status: ('A' for Active; 'I' for Inactive)
REMARK    1  A    between atoms: C_2  and  C_4
REMARK    2  A    between atoms: N_8  and  C_9
REMARK    3  A    between atoms: C_9  and  C_10
REMARK                            x       y       z     vdW  Elec       q    Type
REMARK                         _______ _______ _______ _____ _____    ______ ____
ROOT
ATOM      1  C   UNL     1      45.233   4.346  11.518  0.00  0.00    +0.000 A 
ATOM      2  C   UNL     1      45.802   5.594  11.747  0.00  0.00    +0.000 A 
ATOM      3  C   UNL     1      46.514   5.803  12.928  0.00  0.00    +0.000 A 
ATOM      4  C   UNL     1      46.621   4.778  13.868  0.00  0.00    +0.000 A 
ATOM      5  N   UNL     1      47.229   5.081  15.079  0.00  0.00    +0.000 N 
ATOM      6  N   UNL     1      46.065   3.571  13.656  0.00  0.00    +0.000 NA
ATOM      7  C   UNL     1      45.386   3.377  12.495  0.00  0.00    +0.000 A 
ATOM      8  H   UNL     1      48.167   5.445  14.980  0.00  0.00    +0.000 HD
ENDROOT
BRANCH   1  10
ATOM      9  N   UNL     1      44.587   4.868   9.236  0.00  0.00    +0.000 N 
ATOM     10  C   UNL     1      44.450   4.029  10.305  0.00  0.00    +0.000 C 
ATOM     11  O   UNL     1      43.735   3.038  10.247  0.00  0.00    +0.000 OA
ATOM     12  H   UNL     1      44.124   4.586   8.379  0.00  0.00    +0.000 HD
ATOM     13  H   UNL     1      45.334   5.541   9.162  0.00  0.00    +0.000 HD
ENDBRANCH   1  10
BRANCH   5  14
ATOM     14  C   UNL     1      47.048   4.176  16.201  0.00  0.00    +0.000 C 
BRANCH  14  15
ATOM     15  C   UNL     1      48.423   3.807  16.712  0.00  0.00    +0.000 A 
ATOM     16  C   UNL     1      48.841   2.469  16.675  0.00  0.00    +0.000 A 
ATOM     17  C   UNL     1      50.102   2.146  17.142  0.00  0.00    +0.000 A 
ATOM     18  N   UNL     1      50.972   3.054  17.629  0.00  0.00    +0.000 NA
ATOM     19  C   UNL     1      50.559   4.340  17.645  0.00  0.00    +0.000 A 
ATOM     20  C   UNL     1      49.312   4.764  17.204  0.00  0.00    +0.000 A 
ENDBRANCH  14  15
ENDBRANCH   5  14
TORSDOF 3
ENDMDL
MODEL 7
REMARK VINA RESULT:    -5.771      3.919      6.115
REMARK INTER + INTRA:          -7.186
REMARK INTER:                  -6.947
REMARK INTRA:                  -0.238
REMARK UNBOUND:                -0.403
REMARK  Name = 
REMARK  3 active torsions:
REMARK  status: ('A' for Active; 'I' for Inactive)
REMARK    1  A    between atoms: C_2  and  C_4
REMARK    2  A    between atoms: N_8  and  C_9
REMARK    3  A    between atoms: C_9  and  C_10
REMARK                            x       y       z     vdW  Elec       q    Type
REMARK                         _______ _______ _______ _____ _____    ______ ____
ROOT
ATOM      1  C   UNL     1      48.943   4.564  18.142  0.00  0.00    +0.000 A 
ATOM      2  C   UNL     1      48.081   3.473  18.113  0.00  0.00    +0.000 A 
ATOM      3  C   UNL     1      47.320   3.247  16.966  0.00  0.00    +0.000 A 
ATOM      4  C   UNL     1      47.410   4.124  15.885  0.00  0.00    +0.000 A 
ATOM      5  N   UNL     1      46.537   3.924  14.824  0.00  0.00    +0.000 N 
ATOM      6  N   UNL     1      48.236   5.186  15.910  0.00  0.00    +0.000 NA
ATOM      7  C   UNL     1      48.982   5.387  17.029  0.00  0.00    +0.000 A 
ATOM      8  H   UNL     1      46.600   3.000  14.418  0.00  0.00    +0.000 HD
ENDROOT
BRANCH   1  10
ATOM      9  N   UNL     1      49.460   4.301  20.500  0.00  0.00    +0.000 N 
ATOM     10  C   UNL     1      49.782   4.896  19.313  0.00  0.00    +0.000 C 
ATOM     11  O   UNL     1      50.744   5.645  19.218  0.00  0.00    +0.000 OA
ATOM     12  H   UNL     1      50.100   4.459  21.271  0.00  0.00    +0.000 HD
ATOM     13  H   UNL     1      48.839   3.511  20.565  0.00  0.00    +0.000 HD
ENDBRANCH   1  10
BRANCH   5  14
ATOM     14  C   UNL     1      46.347   4.995  13.861  0.00  0.00    +0.000 C 
BRANCH  14  15
ATOM     15  C   UNL     1      45.139   4.640  13.023  0.00  0.00    +0.000 A 
ATOM     16  C   UNL     1      45.116   3.428  12.318  0.00  0.00    +0.000 A 
ATOM     17  C   UNL     1      44.003   3.114  11.557  0.00  0.00    +0.000 A 
ATOM     18  N   UNL     1      42.919   3.909  11.459  0.00  0.00    +0.000 NA
ATOM     19  C   UNL     1      42.952   5.067  12.155  0.00  0.00    +0.000 A 
ATOM     20  C   UNL     1      44.022   5.473  12.941  0.00  0.00    +0.000 A 
ENDBRANCH  14  15
ENDBRANCH   5  14
TORSDOF 3
ENDMDL
MODEL 8
REMARK VINA RESULT:    -5.403      3.356      6.170
REMARK INTER + INTRA:          -6.753
REMARK INTER:                  -6.441
REMARK INTRA:                  -0.312
REMARK UNBOUND:                -0.403
REMARK  Name = 
REMARK  3 active torsions:
REMARK  status: ('A' for Active; 'I' for Inactive)
REMARK    1  A    between atoms: C_2  and  C_4
REMARK    2  A    between atoms: N_8  and  C_9
REMARK    3  A    between atoms: C_9  and  C_10
REMARK                            x       y       z     vdW  Elec       q    Type
REMARK                         _______ _______ _______ _____ _____    ______ ____
ROOT
ATOM      1  C   UNL     1      44.691   3.887  11.842  0.00  0.00    +0.000 A 
ATOM      2  C   UNL     1      45.689   3.639  12.779  0.00  0.00    +0.000 A 
ATOM      3  C   UNL     1      46.313   4.722  13.400  0.00  0.00    +0.000 A 
ATOM      4  C   UNL     1      45.954   6.025  13.055  0.00  0.00    +0.000 A 
ATOM      5  N   UNL     1      46.697   7.060  13.607  0.00  0.00    +0.000 N 
ATOM      6  N   UNL     1      44.996   6.271  12.143  0.00  0.00    +0.000 NA
ATOM      7  C   UNL     1      44.386   5.207  11.556  0.00  0.00    +0.000 A 
ATOM      8  H   UNL     1      46.713   7.051  14.618  0.00  0.00    +0.000 HD
ENDROOT
BRANCH   1  10
ATOM      9  N   UNL     1      44.587   2.291  10.014  0.00  0.00    +0.000 N 
ATOM     10  C   UNL     1      43.979   2.810  11.122  0.00  0.00    +0.000 C 
ATOM     11  O   UNL     1      42.907   2.377  11.519  0.00  0.00    +0.000 OA
ATOM     12  H   UNL     1      44.138   1.489   9.587  0.00  0.00    +0.000 HD
ATOM     13  H   UNL     1      45.559   2.450   9.799  0.00  0.00    +0.000 HD
ENDBRANCH   1  10
BRANCH   5  14
ATOM     14  C   UNL     1      46.601   8.384  13.017  0.00  0.00    +0.000 C 
BRANCH  14  15
ATOM     15  C   UNL     1      47.947   8.707  12.407  0.00  0.00    +0.000 A 
ATOM     16  C   UNL     1      48.956   7.733  12.401  0.00  0.00    +0.000 A 
ATOM     17  C   UNL     1      50.182   8.040  11.837  0.00  0.00    +0.000 A 
ATOM     18  N   UNL     1      50.467   9.232  11.275  0.00  0.00    +0.000 NA
ATOM     19  C   UNL     1      49.479  10.154  11.277  0.00  0.00    +0.000 A 
ATOM     20  C   UNL     1      48.219   9.944  11.822  0.00  0.00    +0.000 A 
ENDBRANCH  14  15
ENDBRANCH   5  14
TORSDOF 3
ENDMDL
MODEL 9
REMARK VINA RESULT:    -5.247      3.386      5.043
REMARK INTER + INTRA:          -6.570
REMARK INTER:                  -6.254
REMARK INTRA:                  -0.316
REMARK UNBOUND:                -0.403
REMARK  Name = 
REMARK  3 active torsions:
REMARK  status: ('A' for Active; 'I' for Inactive)
REMARK    1  A    between atoms: C_2  and  C_4
REMARK    2  A    between atoms: N_8  and  C_9
REMARK    3  A    between atoms: C_9  and  C_10
REMARK                            x       y       z     vdW  Elec       q    Type
REMARK                         _______ _______ _______ _____ _____    ______ ____
ROOT
ATOM      1  C   UNL     1      49.396   7.561  12.606  0.00  0.00    +0.000 A 
ATOM      2  C   UNL     1      49.176   7.028  13.871  0.00  0.00    +0.000 A 
ATOM      3  C   UNL     1      47.946   6.430  14.146  0.00  0.00    +0.000 A 
ATOM      4  C   UNL     1      46.952   6.398  13.167  0.00  0.00    +0.000 A 
ATOM      5  N   UNL     1      45.707   5.907  13.536  0.00  0.00    +0.000 N 
ATOM      6  N   UNL     1      47.156   6.919  11.943  0.00  0.00    +0.000 NA
ATOM      7  C   UNL     1      48.364   7.487  11.685  0.00  0.00    +0.000 A 
ATOM      8  H   UNL     1      45.738   4.968  13.909  0.00  0.00    +0.000 HD
ENDROOT
BRANCH   1  10
ATOM      9  N   UNL     1      51.426   7.609  11.273  0.00  0.00    +0.000 N 
ATOM     10  C   UNL     1      50.659   8.226  12.220  0.00  0.00    +0.000 C 
ATOM     11  O   UNL     1      50.988   9.300  12.703  0.00  0.00    +0.000 OA
ATOM     12  H   UNL     1      52.237   8.121  10.946  0.00  0.00    +0.000 HD
ATOM     13  H   UNL     1      51.079   6.864  10.690  0.00  0.00    +0.000 HD
ENDBRANCH   1  10
BRANCH   5  14
ATOM     14  C   UNL     1      44.564   6.180  12.681  0.00  0.00    +0.000 C 
BRANCH  14  15
ATOM     15  C   UNL     1      44.242   4.905  11.935  0.00  0.00    +0.000 A 
ATOM     16  C   UNL     1      44.605   4.781  10.586  0.00  0.00    +0.000 A 
ATOM     17  C   UNL     1      44.307   3.607   9.916  0.00  0.00    +0.000 A 
ATOM     18  N   UNL     1      43.690   2.556  10.491  0.00  0.00    +0.000 NA
ATOM     19  C   UNL     1      43.359   2.687  11.795  0.00  0.00    +0.000 A 
ATOM     20  C   UNL     1      43.610   3.824  12.551  0.00  0.00    +0.000 A 
ENDBRANCH  14  15
ENDBRANCH   5  14
TORSDOF 3
ENDMDL
