MODEL 1
REMARK VINA RESULT:    -8.343      0.000      0.000
REMARK INTER + INTRA:         -12.808
REMARK INTER:                 -11.514
REMARK INTRA:                  -1.294
REMARK UNBOUND:                -1.294
REMARK  Name = 
REMARK  7 active torsions:
REMARK  status: ('A' for Active; 'I' for Inactive)
REMARK    1  A    between atoms: N_1  and  C_2
REMARK    2  A    between atoms: C_2  and  N_3
REMARK    3  A    between atoms: C_2  and  C_16
REMARK    4  A    between atoms: C_4  and  C_6
REMARK    5  A    between atoms: C_19  and  C_20
REMARK    6  A    between atoms: C_20  and  N_21
REMARK    7  A    between atoms: C_22  and  C_24
REMARK                            x       y       z     vdW  Elec       q    Type
REMARK                         _______ _______ _______ _____ _____    ______ ____
ROOT
ATOM      1  C   UNL     1      47.078   8.047  13.247  0.00  0.00    +0.000 C 
ENDROOT
BRANCH   1   2
ATOM      2  C   UNL     1      46.220   7.112  12.410  0.00  0.00    +0.000 A 
ATOM      3  C   UNL     1      46.653   6.674  11.151  0.00  0.00    +0.000 A 
ATOM      4  C   UNL     1      45.865   5.803  10.385  0.00  0.00    +0.000 A 
ATOM      5  C   UNL     1      44.621   5.361  10.856  0.00  0.00    +0.000 A 
ATOM      6  C   UNL     1      44.189   5.785  12.117  0.00  0.00    +0.000 A 
ATOM      7  C   UNL     1      44.975   6.653  12.881  0.00  0.00    +0.000 A 
BRANCH   5   8
ATOM      8  C   UNL     1      43.768   4.424  10.038  0.00  0.00    +0.000 C 
BRANCH   8   9
ATOM      9  N   UNL     1      44.384   4.134   8.765  0.00  0.00    +0.000 N 
ATOM     10  C   UNL     1      45.132   2.989   8.576  0.00  0.00    +0.000 C 
ATOM     11  O   UNL     1      45.243   2.121   9.434  0.00  0.00    +0.000 OA
ATOM     12  H   UNL     1      44.402   4.871   8.074  0.00  0.00    +0.000 HD
BRANCH  10  13
ATOM     13  C   UNL     1      45.758   2.890   7.187  0.00  0.00    +0.000 C 
ATOM     14  C   UNL     1      46.413   1.543   6.885  0.00  0.00    +0.000 C 
ATOM     15  C   UNL     1      47.897   1.809   7.050  0.00  0.00    +0.000 C 
ATOM     16  N   UNL     1      48.071   3.177   6.548  0.00  0.00    +0.000 NA
ATOM     17  C   UNL     1      46.884   3.908   7.015  0.00  0.00    +0.000 C 
ATOM     18  H   UNL     1      48.069   3.151   5.529  0.00  0.00    +0.000 HD
ENDBRANCH  10  13
ENDBRANCH   8   9
ENDBRANCH   5   8
ENDBRANCH   1   2
BRANCH   1  19
ATOM     19  N   UNL     1      47.520   7.374  14.434  0.00  0.00    +0.000 N 
ATOM     20  C   UNL     1      48.774   6.841  14.595  0.00  0.00    +0.000 C 
ATOM     21  O   UNL     1      49.671   7.001  13.772  0.00  0.00    +0.000 OA
ATOM     22  H   UNL     1      46.772   6.913  14.940  0.00  0.00    +0.000 HD
BRANCH  20  23
ATOM     23  C   UNL     1      49.019   6.181  15.883  0.00  0.00    +0.000 A 
ATOM     24  C   UNL     1      50.015   6.657  16.725  0.00  0.00    +0.000 A 
ATOM     25  S   UNL     1      50.101   5.830  18.214  0.00  0.00    +0.000 S 
ATOM     26  C   UNL     1      48.847   4.772  17.763  0.00  0.00    +0.000 A 
ATOM     27  N   UNL     1      48.427   3.784  18.597  0.00  0.00    +0.000 NA
ATOM     28  C   UNL     1      47.492   3.034  18.113  0.00  0.00    +0.000 A 
ATOM     29  N   UNL     1      46.936   3.188  16.868  0.00  0.00    +0.000 N 
ATOM     30  C   UNL     1      47.305   4.192  16.004  0.00  0.00    +0.000 A 
ATOM     31  O   UNL     1      46.758   4.341  14.918  0.00  0.00    +0.000 OA
ATOM     32  C   UNL     1      48.361   5.054  16.499  0.00  0.00    +0.000 A 
ATOM     33  H   UNL     1      46.206   2.568  16.550  0.00  0.00    +0.000 HD
ENDBRANCH  20  23
ENDBRANCH   1  19
BRANCH   1  34
ATOM     34  N   UNL     1      46.309   9.195  13.678  0.00  0.00    +0.000 NA
ATOM     35  H   UNL     1      45.327   8.902  13.666  0.00  0.00    +0.000 HD
ATOM     36  H   UNL     1      46.377   9.905  12.956  0.00  0.00    +0.000 HD
ENDBRANCH   1  34
TORSDOF 7
ENDMDL
MODEL 2
REMARK VINA RESULT:    -8.342      2.140      3.762
REMARK INTER + INTRA:         -12.806
REMARK INTER:                 -11.562
REMARK INTRA:                  -1.244
REMARK UNBOUND:                -1.294
REMARK  Name = 
REMARK  7 active torsions:
REMARK  status: ('A' for Active; 'I' for Inactive)
REMARK    1  A    between atoms: N_1  and  C_2
REMARK    2  A    between atoms: C_2  and  N_3
REMARK    3  A    between atoms: C_2  and  C_16
REMARK    4  A    between atoms: C_4  and  C_6
REMARK    5  A    between atoms: C_19  and  C_20
REMARK    6  A    between atoms: C_20  and  N_21
REMARK    7  A    between atoms: C_22  and  C_24
REMARK                            x       y       z     vdW  Elec       q    Type
REMARK                         _______ _______ _______ _____ _____    ______ ____
ROOT
ATOM      1  C   UNL     1      46.619   4.392  14.390  0.00  0.00    +0.000 C 
ENDROOT
BRANCH   1   2
ATOM      2  C   UNL     1      45.952   4.415  13.024  0.00  0.00    +0.000 A 
ATOM      3  C   UNL     1      45.966   5.575  12.237  0.00  0.00    +0.000 A 
ATOM      4  C   UNL     1      45.360   5.591  10.973  0.00  0.00    +0.000 A 
ATOM      5  C   UNL     1      44.714   4.452  10.473  0.00  0.00    +0.000 A 
ATOM      6  C   UNL     1      44.707   3.287  11.249  0.00  0.00    +0.000 A 
ATOM      7  C   UNL     1      45.312   3.272  12.510  0.00  0.00    +0.000 A 
BRANCH   5   8
ATOM      8  C   UNL     1      44.060   4.460   9.115  0.00  0.00    +0.000 C 
BRANCH   8   9
ATOM      9  N   UNL     1      44.628   3.447   8.256  0.00  0.00    +0.000 N 
ATOM     10  C   UNL     1      45.786   3.682   7.541  0.00  0.00    +0.000 C 
ATOM     11  O   UNL     1      46.437   4.714   7.656  0.00  0.00    +0.000 OA
ATOM     12  H   UNL     1      44.067   2.631   8.057  0.00  0.00    +0.000 HD
BRANCH  10  13
ATOM     13  C   UNL     1      46.195   2.520   6.640  0.00  0.00    +0.000 C 
ATOM     14  C   UNL     1      47.094   1.486   7.314  0.00  0.00    +0.000 C 
ATOM     15  C   UNL     1      48.481   1.803   6.787  0.00  0.00    +0.000 C 
ATOM     16  N   UNL     1      48.247   2.219   5.400  0.00  0.00    +0.000 NA
ATOM     17  C   UNL     1      47.008   3.009   5.443  0.00  0.00    +0.000 C 
ATOM     18  H   UNL     1      48.094   1.385   4.833  0.00  0.00    +0.000 HD
ENDBRANCH  10  13
ENDBRANCH   8   9
ENDBRANCH   5   8
ENDBRANCH   1   2
BRANCH   1  19
ATOM     19  N   UNL     1      47.393   5.585  14.577  0.00  0.00    +0.000 N 
ATOM     20  C   UNL     1      48.267   5.781  15.616  0.00  0.00    +0.000 C 
ATOM     21  O   UNL     1      48.550   4.895  16.417  0.00  0.00    +0.000 OA
ATOM     22  H   UNL     1      46.948   6.417  14.206  0.00  0.00    +0.000 HD
BRANCH  20  23
ATOM     23  C   UNL     1      48.950   7.080  15.631  0.00  0.00    +0.000 A 
ATOM     24  C   UNL     1      49.060   7.789  16.818  0.00  0.00    +0.000 A 
ATOM     25  S   UNL     1      49.962   9.229  16.671  0.00  0.00    +0.000 S 
ATOM     26  C   UNL     1      50.189   8.982  15.003  0.00  0.00    +0.000 A 
ATOM     27  N   UNL     1      50.881   9.877  14.248  0.00  0.00    +0.000 NA
ATOM     28  C   UNL     1      50.946   9.581  12.991  0.00  0.00    +0.000 A 
ATOM     29  N   UNL     1      50.385   8.465  12.423  0.00  0.00    +0.000 N 
ATOM     30  C   UNL     1      49.708   7.516  13.152  0.00  0.00    +0.000 A 
ATOM     31  O   UNL     1      49.261   6.501  12.631  0.00  0.00    +0.000 OA
ATOM     32  C   UNL     1      49.597   7.811  14.568  0.00  0.00    +0.000 A 
ATOM     33  H   UNL     1      50.476   8.291  11.434  0.00  0.00    +0.000 HD
ENDBRANCH  20  23
ENDBRANCH   1  19
BRANCH   1  34
ATOM     34  N   UNL     1      47.535   3.277  14.490  0.00  0.00    +0.000 NA
ATOM     35  H   UNL     1      47.822   3.056  13.532  0.00  0.00    +0.000 HD
ATOM     36  H   UNL     1      47.007   2.466  14.796  0.00  0.00    +0.000 HD
ENDBRANCH   1  34
TORSDOF 7
ENDMDL
MODEL 3
REMARK VINA RESULT:    -7.798      2.489      3.585
REMARK INTER + INTRA:         -12.056
REMARK INTER:                 -11.051
REMARK INTRA:                  -1.006
REMARK UNBOUND:                -1.294
REMARK  Name = 
REMARK  7 active torsions:
REMARK  status: ('A' for Active; 'I' for Inactive)
REMARK    1  A    between atoms: N_1  and  C_2
REMARK    2  A    between atoms: C_2  and  N_3
REMARK    3  A    between atoms: C_2  and  C_16
REMARK    4  A    between atoms: C_4  and  C_6
REMARK    5  A    between atoms: C_19  and  C_20
REMARK    6  A    between atoms: C_20  and  N_21
REMARK    7  A    between atoms: C_22  and  C_24
REMARK                            x       y       z     vdW  Elec       q    Type
REMARK                         _______ _______ _______ _____ _____    ______ ____
ROOT
ATOM      1  C   UNL     1      46.666   4.395  14.472  0.00  0.00    +0.000 C 
ENDROOT
BRANCH   1   2
ATOM      2  C   UNL     1      45.999   4.431  13.106  0.00  0.00    +0.000 A 
ATOM      3  C   UNL     1      45.846   5.639  12.412  0.00  0.00    +0.000 A 
ATOM      4  C   UNL     1      45.240   5.668  11.148  0.00  0.00    +0.000 A 
ATOM      5  C   UNL     1      44.762   4.492  10.555  0.00  0.00    +0.000 A 
ATOM      6  C   UNL     1      44.923   3.281  11.238  0.00  0.00    +0.000 A 
ATOM      7  C   UNL     1      45.528   3.252  12.498  0.00  0.00    +0.000 A 
BRANCH   5   8
ATOM      8  C   UNL     1      44.109   4.514   9.196  0.00  0.00    +0.000 C 
BRANCH   8   9
ATOM      9  N   UNL     1      44.639   3.474   8.346  0.00  0.00    +0.000 N 
ATOM     10  C   UNL     1      45.778   3.676   7.592  0.00  0.00    +0.000 C 
ATOM     11  O   UNL     1      46.446   4.701   7.664  0.00  0.00    +0.000 OA
ATOM     12  H   UNL     1      44.062   2.661   8.183  0.00  0.00    +0.000 HD
BRANCH  10  13
ATOM     13  C   UNL     1      46.146   2.487   6.708  0.00  0.00    +0.000 C 
ATOM     14  C   UNL     1      47.045   1.453   7.384  0.00  0.00    +0.000 C 
ATOM     15  C   UNL     1      48.423   1.735   6.817  0.00  0.00    +0.000 C 
ATOM     16  N   UNL     1      48.162   2.124   5.426  0.00  0.00    +0.000 NA
ATOM     17  C   UNL     1      46.938   2.936   5.481  0.00  0.00    +0.000 C 
ATOM     18  H   UNL     1      47.981   1.281   4.882  0.00  0.00    +0.000 HD
ENDBRANCH  10  13
ENDBRANCH   8   9
ENDBRANCH   5   8
ENDBRANCH   1   2
BRANCH   1  19
ATOM     19  N   UNL     1      47.516   5.539  14.631  0.00  0.00    +0.000 N 
ATOM     20  C   UNL     1      48.248   5.803  15.761  0.00  0.00    +0.000 C 
ATOM     21  O   UNL     1      48.331   5.011  16.695  0.00  0.00    +0.000 OA
ATOM     22  H   UNL     1      47.209   6.347  14.101  0.00  0.00    +0.000 HD
BRANCH  20  23
ATOM     23  C   UNL     1      49.043   7.037  15.725  0.00  0.00    +0.000 A 
ATOM     24  C   UNL     1      49.781   7.350  14.593  0.00  0.00    +0.000 A 
ATOM     25  S   UNL     1      50.569   8.860  14.689  0.00  0.00    +0.000 S 
ATOM     26  C   UNL     1      49.995   9.121  16.269  0.00  0.00    +0.000 A 
ATOM     27  N   UNL     1      50.322  10.247  16.959  0.00  0.00    +0.000 NA
ATOM     28  C   UNL     1      49.847  10.297  18.160  0.00  0.00    +0.000 A 
ATOM     29  N   UNL     1      49.067   9.323  18.731  0.00  0.00    +0.000 N 
ATOM     30  C   UNL     1      48.683   8.186  18.061  0.00  0.00    +0.000 A 
ATOM     31  O   UNL     1      47.944   7.354  18.575  0.00  0.00    +0.000 OA
ATOM     32  C   UNL     1      49.203   8.077  16.712  0.00  0.00    +0.000 A 
ATOM     33  H   UNL     1      48.725   9.426  19.674  0.00  0.00    +0.000 HD
ENDBRANCH  20  23
ENDBRANCH   1  19
BRANCH   1  34
ATOM     34  N   UNL     1      47.509   3.226  14.595  0.00  0.00    +0.000 NA
ATOM     35  H   UNL     1      46.879   2.419  14.616  0.00  0.00    +0.000 HD
ATOM     36  H   UNL     1      47.937   3.245  15.516  0.00  0.00    +0.000 HD
ENDBRANCH   1  34
TORSDOF 7
ENDMDL
MODEL 4
REMARK VINA RESULT:    -7.498      4.553      9.223
REMARK INTER + INTRA:         -11.641
REMARK INTER:                 -10.679
REMARK INTRA:                  -0.962
REMARK UNBOUND:                -1.294
REMARK  Name = 
REMARK  7 active torsions:
REMARK  status: ('A' for Active; 'I' for Inactive)
REMARK    1  A    between atoms: N_1  and  C_2
REMARK    2  A    between atoms: C_2  and  N_3
REMARK    3  A    between atoms: C_2  and  C_16
REMARK    4  A    between atoms: C_4  and  C_6
REMARK    5  A    between atoms: C_19  and  C_20
REMARK    6  A    between atoms: C_20  and  N_21
REMARK    7  A    between atoms: C_22  and  C_24
REMARK                            x       y       z     vdW  Elec       q    Type
REMARK                         _______ _______ _______ _____ _____    ______ ____
ROOT
ATOM      1  C   UNL     1      47.434   3.031  16.679  0.00  0.00    +0.000 C 
ENDROOT
BRANCH   1   2
ATOM      2  C   UNL     1      48.895   3.235  17.047  0.00  0.00    +0.000 A 
ATOM      3  C   UNL     1      49.788   2.155  17.075  0.00  0.00    +0.000 A 
ATOM      4  C   UNL     1      51.137   2.347  17.404  0.00  0.00    +0.000 A 
ATOM      5  C   UNL     1      51.621   3.622  17.724  0.00  0.00    +0.000 A 
ATOM      6  C   UNL     1      50.738   4.707  17.686  0.00  0.00    +0.000 A 
ATOM      7  C   UNL     1      49.393   4.515  17.358  0.00  0.00    +0.000 A 
BRANCH   5   8
ATOM      8  C   UNL     1      53.071   3.838  18.079  0.00  0.00    +0.000 C 
BRANCH   8   9
ATOM      9  N   UNL     1      53.860   2.665  17.784  0.00  0.00    +0.000 N 
ATOM     10  C   UNL     1      54.379   1.879  18.795  0.00  0.00    +0.000 C 
ATOM     11  O   UNL     1      54.134   2.076  19.979  0.00  0.00    +0.000 OA
ATOM     12  H   UNL     1      54.168   2.533  16.832  0.00  0.00    +0.000 HD
BRANCH  10  13
ATOM     13  C   UNL     1      55.239   0.723  18.290  0.00  0.00    +0.000 C 
ATOM     14  C   UNL     1      55.436   0.697  16.776  0.00  0.00    +0.000 C 
ATOM     15  C   UNL     1      54.485  -0.383  16.298  0.00  0.00    +0.000 C 
ATOM     16  N   UNL     1      54.532  -1.393  17.362  0.00  0.00    +0.000 NA
ATOM     17  C   UNL     1      54.596  -0.625  18.613  0.00  0.00    +0.000 C 
ATOM     18  H   UNL     1      55.389  -1.935  17.256  0.00  0.00    +0.000 HD
ENDBRANCH  10  13
ENDBRANCH   8   9
ENDBRANCH   5   8
ENDBRANCH   1   2
BRANCH   1  19
ATOM     19  N   UNL     1      47.001   4.074  15.796  0.00  0.00    +0.000 N 
ATOM     20  C   UNL     1      47.000   3.974  14.428  0.00  0.00    +0.000 C 
ATOM     21  O   UNL     1      47.260   2.928  13.842  0.00  0.00    +0.000 OA
ATOM     22  H   UNL     1      47.138   5.006  16.174  0.00  0.00    +0.000 HD
BRANCH  20  23
ATOM     23  C   UNL     1      46.531   5.164  13.707  0.00  0.00    +0.000 A 
ATOM     24  C   UNL     1      47.323   6.302  13.664  0.00  0.00    +0.000 A 
ATOM     25  S   UNL     1      46.666   7.554  12.709  0.00  0.00    +0.000 S 
ATOM     26  C   UNL     1      45.274   6.637  12.367  0.00  0.00    +0.000 A 
ATOM     27  N   UNL     1      44.274   7.140  11.594  0.00  0.00    +0.000 NA
ATOM     28  C   UNL     1      43.263   6.350  11.445  0.00  0.00    +0.000 A 
ATOM     29  N   UNL     1      43.164   5.097  11.996  0.00  0.00    +0.000 N 
ATOM     30  C   UNL     1      44.163   4.535  12.755  0.00  0.00    +0.000 A 
ATOM     31  O   UNL     1      44.074   3.394  13.194  0.00  0.00    +0.000 OA
ATOM     32  C   UNL     1      45.316   5.389  12.961  0.00  0.00    +0.000 A 
ATOM     33  H   UNL     1      42.346   4.528  11.838  0.00  0.00    +0.000 HD
ENDBRANCH  20  23
ENDBRANCH   1  19
BRANCH   1  34
ATOM     34  N   UNL     1      46.598   3.105  17.857  0.00  0.00    +0.000 NA
ATOM     35  H   UNL     1      46.298   4.081  17.935  0.00  0.00    +0.000 HD
ATOM     36  H   UNL     1      47.188   2.949  18.669  0.00  0.00    +0.000 HD
ENDBRANCH   1  34
TORSDOF 7
ENDMDL
MODEL 5
REMARK VINA RESULT:    -7.403      1.939      2.336
REMARK INTER + INTRA:         -11.510
REMARK INTER:                 -10.316
REMARK INTRA:                  -1.194
REMARK UNBOUND:                -1.294
REMARK  Name = 
REMARK  7 active torsions:
REMARK  status: ('A' for Active; 'I' for Inactive)
REMARK    1  A    between atoms: N_1  and  C_2
REMARK    2  A    between atoms: C_2  and  N_3
REMARK    3  A    between atoms: C_2  and  C_16
REMARK    4  A    between atoms: C_4  and  C_6
REMARK    5  A    between atoms: C_19  and  C_20
REMARK    6  A    between atoms: C_20  and  N_21
REMARK    7  A    between atoms: C_22  and  C_24
REMARK                            x       y       z     vdW  Elec       q    Type
REMARK                         _______ _______ _______ _____ _____    ______ ____
ROOT
ATOM      1  C   UNL     1      48.149   6.831  13.697  0.00  0.00    +0.000 C 
ENDROOT
BRANCH   1   2
ATOM      2  C   UNL     1      47.072   6.245  12.798  0.00  0.00    +0.000 A 
ATOM      3  C   UNL     1      46.901   6.707  11.486  0.00  0.00    +0.000 A 
ATOM      4  C   UNL     1      45.915   6.158  10.654  0.00  0.00    +0.000 A 
ATOM      5  C   UNL     1      45.070   5.142  11.120  0.00  0.00    +0.000 A 
ATOM      6  C   UNL     1      45.244   4.667  12.425  0.00  0.00    +0.000 A 
ATOM      7  C   UNL     1      46.228   5.215  13.253  0.00  0.00    +0.000 A 
BRANCH   5   8
ATOM      8  C   UNL     1      44.006   4.545  10.233  0.00  0.00    +0.000 C 
BRANCH   8   9
ATOM      9  N   UNL     1      44.538   4.219   8.930  0.00  0.00    +0.000 N 
ATOM     10  C   UNL     1      45.190   3.023   8.702  0.00  0.00    +0.000 C 
ATOM     11  O   UNL     1      45.278   2.145   9.551  0.00  0.00    +0.000 OA
ATOM     12  H   UNL     1      44.577   4.956   8.241  0.00  0.00    +0.000 HD
BRANCH  10  13
ATOM     13  C   UNL     1      45.740   2.887   7.284  0.00  0.00    +0.000 C 
ATOM     14  C   UNL     1      46.405   1.543   6.992  0.00  0.00    +0.000 C 
ATOM     15  C   UNL     1      47.890   1.843   7.064  0.00  0.00    +0.000 C 
ATOM     16  N   UNL     1      48.007   3.195   6.507  0.00  0.00    +0.000 NA
ATOM     17  C   UNL     1      46.834   3.919   7.015  0.00  0.00    +0.000 C 
ATOM     18  H   UNL     1      47.949   3.133   5.491  0.00  0.00    +0.000 HD
ENDBRANCH  10  13
ENDBRANCH   8   9
ENDBRANCH   5   8
ENDBRANCH   1   2
BRANCH   1  19
ATOM     19  N   UNL     1      48.049   6.266  15.012  0.00  0.00    +0.000 N 
ATOM     20  C   UNL     1      48.993   6.427  15.993  0.00  0.00    +0.000 C 
ATOM     21  O   UNL     1      49.959   7.174  15.865  0.00  0.00    +0.000 OA
ATOM     22  H   UNL     1      47.519   5.402  15.041  0.00  0.00    +0.000 HD
BRANCH  20  23
ATOM     23  C   UNL     1      48.705   5.754  17.265  0.00  0.00    +0.000 A 
ATOM     24  C   UNL     1      48.875   4.381  17.374  0.00  0.00    +0.000 A 
ATOM     25  S   UNL     1      48.583   3.781  18.944  0.00  0.00    +0.000 S 
ATOM     26  C   UNL     1      48.166   5.327  19.518  0.00  0.00    +0.000 A 
ATOM     27  N   UNL     1      47.788   5.519  20.810  0.00  0.00    +0.000 NA
ATOM     28  C   UNL     1      47.466   6.736  21.100  0.00  0.00    +0.000 A 
ATOM     29  N   UNL     1      47.493   7.782  20.212  0.00  0.00    +0.000 N 
ATOM     30  C   UNL     1      47.900   7.643  18.906  0.00  0.00    +0.000 A 
ATOM     31  O   UNL     1      47.965   8.601  18.146  0.00  0.00    +0.000 OA
ATOM     32  C   UNL     1      48.261   6.290  18.529  0.00  0.00    +0.000 A 
ATOM     33  H   UNL     1      47.231   8.712  20.504  0.00  0.00    +0.000 HD
ENDBRANCH  20  23
ENDBRANCH   1  19
BRANCH   1  34
ATOM     34  N   UNL     1      47.971   8.259  13.839  0.00  0.00    +0.000 NA
ATOM     35  H   UNL     1      46.980   8.404  14.054  0.00  0.00    +0.000 HD
ATOM     36  H   UNL     1      48.103   8.682  12.926  0.00  0.00    +0.000 HD
ENDBRANCH   1  34
TORSDOF 7
ENDMDL
MODEL 6
REMARK VINA RESULT:    -7.364      3.201      5.303
REMARK INTER + INTRA:         -11.457
REMARK INTER:                 -10.333
REMARK INTRA:                  -1.124
REMARK UNBOUND:                -1.294
REMARK  Name = 
REMARK  7 active torsions:
REMARK  status: ('A' for Active; 'I' for Inactive)
REMARK    1  A    between atoms: N_1  and  C_2
REMARK    2  A    between atoms: C_2  and  N_3
REMARK    3  A    between atoms: C_2  and  C_16
REMARK    4  A    between atoms: C_4  and  C_6
REMARK    5  A    between atoms: C_19  and  C_20
REMARK    6  A    between atoms: C_20  and  N_21
REMARK    7  A    between atoms: C_22  and  C_24
REMARK                            x       y       z     vdW  Elec       q    Type
REMARK                         _______ _______ _______ _____ _____    ______ ____
ROOT
ATOM      1  C   UNL     1      47.728   4.066  17.481  0.00  0.00    +0.000 C 
ENDROOT
BRANCH   1   2
ATOM      2  C   UNL     1      47.576   4.676  16.097  0.00  0.00    +0.000 A 
ATOM      3  C   UNL     1      48.258   5.850  15.749  0.00  0.00    +0.000 A 
ATOM      4  C   UNL     1      48.125   6.405  14.469  0.00  0.00    +0.000 A 
ATOM      5  C   UNL     1      47.296   5.805  13.511  0.00  0.00    +0.000 A 
ATOM      6  C   UNL     1      46.622   4.626  13.848  0.00  0.00    +0.000 A 
ATOM      7  C   UNL     1      46.755   4.073  15.125  0.00  0.00    +0.000 A 
BRANCH   5   8
ATOM      8  C   UNL     1      47.147   6.395  12.131  0.00  0.00    +0.000 C 
BRANCH   8   9
ATOM      9  N   UNL     1      46.089   5.741  11.396  0.00  0.00    +0.000 N 
ATOM     10  C   UNL     1      44.789   6.204  11.449  0.00  0.00    +0.000 C 
ATOM     11  O   UNL     1      44.475   7.230  12.041  0.00  0.00    +0.000 OA
ATOM     12  H   UNL     1      46.289   4.839  10.987  0.00  0.00    +0.000 HD
BRANCH  10  13
ATOM     13  C   UNL     1      43.801   5.345  10.663  0.00  0.00    +0.000 C 
ATOM     14  C   UNL     1      42.802   4.580  11.528  0.00  0.00    +0.000 C 
ATOM     15  C   UNL     1      43.339   3.162  11.547  0.00  0.00    +0.000 C 
ATOM     16  N   UNL     1      43.895   2.975  10.201  0.00  0.00    +0.000 NA
ATOM     17  C   UNL     1      44.525   4.260   9.868  0.00  0.00    +0.000 C 
ATOM     18  H   UNL     1      43.125   2.801   9.555  0.00  0.00    +0.000 HD
ENDBRANCH  10  13
ENDBRANCH   8   9
ENDBRANCH   5   8
ENDBRANCH   1   2
BRANCH   1  19
ATOM     19  N   UNL     1      49.087   3.659  17.690  0.00  0.00    +0.000 N 
ATOM     20  C   UNL     1      49.681   2.602  17.048  0.00  0.00    +0.000 C 
ATOM     21  O   UNL     1      49.129   1.982  16.144  0.00  0.00    +0.000 OA
ATOM     22  H   UNL     1      49.433   3.866  18.620  0.00  0.00    +0.000 HD
BRANCH  20  23
ATOM     23  C   UNL     1      51.079   2.344  17.416  0.00  0.00    +0.000 A 
ATOM     24  C   UNL     1      51.515   1.039  17.598  0.00  0.00    +0.000 A 
ATOM     25  S   UNL     1      53.183   0.918  17.931  0.00  0.00    +0.000 S 
ATOM     26  C   UNL     1      53.369   2.610  17.897  0.00  0.00    +0.000 A 
ATOM     27  N   UNL     1      54.578   3.189  18.128  0.00  0.00    +0.000 NA
ATOM     28  C   UNL     1      54.566   4.481  18.106  0.00  0.00    +0.000 A 
ATOM     29  N   UNL     1      53.452   5.247  17.869  0.00  0.00    +0.000 N 
ATOM     30  C   UNL     1      52.218   4.705  17.598  0.00  0.00    +0.000 A 
ATOM     31  O   UNL     1      51.249   5.409  17.338  0.00  0.00    +0.000 OA
ATOM     32  C   UNL     1      52.177   3.256  17.623  0.00  0.00    +0.000 A 
ATOM     33  H   UNL     1      53.512   6.254  17.863  0.00  0.00    +0.000 HD
ENDBRANCH  20  23
ENDBRANCH   1  19
BRANCH   1  34
ATOM     34  N   UNL     1      46.911   2.880  17.607  0.00  0.00    +0.000 NA
ATOM     35  H   UNL     1      46.852   2.677  18.609  0.00  0.00    +0.000 HD
ATOM     36  H   UNL     1      47.429   2.101  17.214  0.00  0.00    +0.000 HD
ENDBRANCH   1  34
TORSDOF 7
ENDMDL
MODEL 7
REMARK VINA RESULT:    -7.283      3.558      5.175
REMARK INTER + INTRA:         -11.344
REMARK INTER:                 -10.124
REMARK INTRA:                  -1.220
REMARK UNBOUND:                -1.294
REMARK  Name = 
REMARK  7 active torsions:
REMARK  status: ('A' for Active; 'I' for Inactive)
REMARK    1  A    between atoms: N_1  and  C_2
REMARK    2  A    between atoms: C_2  and  N_3
REMARK    3  A    between atoms: C_2  and  C_16
REMARK    4  A    between atoms: C_4  and  C_6
REMARK    5  A    between atoms: C_19  and  C_20
REMARK    6  A    between atoms: C_20  and  N_21
REMARK    7  A    between atoms: C_22  and  C_24
REMARK                            x       y       z     vdW  Elec       q    Type
REMARK                         _______ _______ _______ _____ _____    ______ ____
ROOT
ATOM      1  C   UNL     1      48.571   4.870  17.562  0.00  0.00    +0.000 C 
ENDROOT
BRANCH   1   2
ATOM      2  C   UNL     1      48.099   5.221  16.159  0.00  0.00    +0.000 A 
ATOM      3  C   UNL     1      48.587   6.357  15.499  0.00  0.00    +0.000 A 
ATOM      4  C   UNL     1      48.159   6.672  14.202  0.00  0.00    +0.000 A 
ATOM      5  C   UNL     1      47.223   5.866  13.541  0.00  0.00    +0.000 A 
ATOM      6  C   UNL     1      46.741   4.724  14.189  0.00  0.00    +0.000 A 
ATOM      7  C   UNL     1      47.169   4.409  15.483  0.00  0.00    +0.000 A 
BRANCH   5   8
ATOM      8  C   UNL     1      46.757   6.198  12.145  0.00  0.00    +0.000 C 
BRANCH   8   9
ATOM      9  N   UNL     1      45.608   5.404  11.777  0.00  0.00    +0.000 N 
ATOM     10  C   UNL     1      45.281   5.189  10.453  0.00  0.00    +0.000 C 
ATOM     11  O   UNL     1      45.983   5.577   9.526  0.00  0.00    +0.000 OA
ATOM     12  H   UNL     1      44.953   5.160  12.506  0.00  0.00    +0.000 HD
BRANCH  10  13
ATOM     13  C   UNL     1      43.999   4.383  10.262  0.00  0.00    +0.000 C 
ATOM     14  C   UNL     1      43.119   4.293  11.508  0.00  0.00    +0.000 C 
ATOM     15  C   UNL     1      43.388   2.902  12.049  0.00  0.00    +0.000 C 
ATOM     16  N   UNL     1      43.561   2.080  10.846  0.00  0.00    +0.000 NA
ATOM     17  C   UNL     1      44.308   2.929   9.909  0.00  0.00    +0.000 C 
ATOM     18  H   UNL     1      42.640   1.878  10.457  0.00  0.00    +0.000 HD
ENDBRANCH  10  13
ENDBRANCH   8   9
ENDBRANCH   5   8
ENDBRANCH   1   2
BRANCH   1  19
ATOM     19  N   UNL     1      49.923   4.395  17.518  0.00  0.00    +0.000 N 
ATOM     20  C   UNL     1      50.767   4.373  18.599  0.00  0.00    +0.000 C 
ATOM     21  O   UNL     1      50.393   4.652  19.735  0.00  0.00    +0.000 OA
ATOM     22  H   UNL     1      50.364   4.513  16.612  0.00  0.00    +0.000 HD
BRANCH  20  23
ATOM     23  C   UNL     1      52.117   3.861  18.337  0.00  0.00    +0.000 A 
ATOM     24  C   UNL     1      53.220   4.673  18.562  0.00  0.00    +0.000 A 
ATOM     25  S   UNL     1      54.710   3.889  18.294  0.00  0.00    +0.000 S 
ATOM     26  C   UNL     1      53.932   2.454  17.814  0.00  0.00    +0.000 A 
ATOM     27  N   UNL     1      54.646   1.363  17.427  0.00  0.00    +0.000 NA
ATOM     28  C   UNL     1      53.927   0.356  17.055  0.00  0.00    +0.000 A 
ATOM     29  N   UNL     1      52.555   0.341  17.040  0.00  0.00    +0.000 N 
ATOM     30  C   UNL     1      51.792   1.407  17.455  0.00  0.00    +0.000 A 
ATOM     31  O   UNL     1      50.568   1.352  17.481  0.00  0.00    +0.000 OA
ATOM     32  C   UNL     1      52.555   2.568  17.870  0.00  0.00    +0.000 A 
ATOM     33  H   UNL     1      52.052  -0.481  16.741  0.00  0.00    +0.000 HD
ENDBRANCH  20  23
ENDBRANCH   1  19
BRANCH   1  34
ATOM     34  N   UNL     1      47.769   3.801  18.116  0.00  0.00    +0.000 NA
ATOM     35  H   UNL     1      48.420   3.174  18.597  0.00  0.00    +0.000 HD
ATOM     36  H   UNL     1      47.403   3.254  17.344  0.00  0.00    +0.000 HD
ENDBRANCH   1  34
TORSDOF 7
ENDMDL
MODEL 8
REMARK VINA RESULT:    -6.891      1.749      2.230
REMARK INTER + INTRA:         -10.805
REMARK INTER:                  -9.474
REMARK INTRA:                  -1.330
REMARK UNBOUND:                -1.294
REMARK  Name = 
REMARK  7 active torsions:
REMARK  status: ('A' for Active; 'I' for Inactive)
REMARK    1  A    between atoms: N_1  and  C_2
REMARK    2  A    between atoms: C_2  and  N_3
REMARK    3  A    between atoms: C_2  and  C_16
REMARK    4  A    between atoms: C_4  and  C_6
REMARK    5  A    between atoms: C_19  and  C_20
REMARK    6  A    between atoms: C_20  and  N_21
REMARK    7  A    between atoms: C_22  and  C_24
REMARK                            x       y       z     vdW  Elec       q    Type
REMARK                         _______ _______ _______ _____ _____    ______ ____
ROOT
ATOM      1  C   UNL     1      49.100   7.067  13.901  0.00  0.00    +0.000 C 
ENDROOT
BRANCH   1   2
ATOM      2  C   UNL     1      47.887   6.515  13.168  0.00  0.00    +0.000 A 
ATOM      3  C   UNL     1      47.091   5.516  13.745  0.00  0.00    +0.000 A 
ATOM      4  C   UNL     1      45.968   5.016  13.073  0.00  0.00    +0.000 A 
ATOM      5  C   UNL     1      45.621   5.495  11.802  0.00  0.00    +0.000 A 
ATOM      6  C   UNL     1      46.404   6.501  11.226  0.00  0.00    +0.000 A 
ATOM      7  C   UNL     1      47.525   7.000  11.897  0.00  0.00    +0.000 A 
BRANCH   5   8
ATOM      8  C   UNL     1      44.414   4.963  11.072  0.00  0.00    +0.000 C 
BRANCH   8   9
ATOM      9  N   UNL     1      44.733   4.643   9.700  0.00  0.00    +0.000 N 
ATOM     10  C   UNL     1      45.009   3.347   9.313  0.00  0.00    +0.000 C 
ATOM     11  O   UNL     1      44.915   2.393  10.077  0.00  0.00    +0.000 OA
ATOM     12  H   UNL     1      44.922   5.411   9.071  0.00  0.00    +0.000 HD
BRANCH  10  13
ATOM     13  C   UNL     1      45.390   3.216   7.841  0.00  0.00    +0.000 C 
ATOM     14  C   UNL     1      45.979   1.859   7.459  0.00  0.00    +0.000 C 
ATOM     15  C   UNL     1      47.470   2.117   7.365  0.00  0.00    +0.000 C 
ATOM     16  N   UNL     1      47.562   3.474   6.813  0.00  0.00    +0.000 NA
ATOM     17  C   UNL     1      46.475   4.222   7.460  0.00  0.00    +0.000 C 
ATOM     18  H   UNL     1      47.387   3.427   5.809  0.00  0.00    +0.000 HD
ENDBRANCH  10  13
ENDBRANCH   8   9
ENDBRANCH   5   8
ENDBRANCH   1   2
BRANCH   1  19
ATOM     19  N   UNL     1      48.891   6.994  15.318  0.00  0.00    +0.000 N 
ATOM     20  C   UNL     1      49.819   7.371  16.253  0.00  0.00    +0.000 C 
ATOM     21  O   UNL     1      50.875   7.921  15.953  0.00  0.00    +0.000 OA
ATOM     22  H   UNL     1      48.256   6.253  15.594  0.00  0.00    +0.000 HD
BRANCH  20  23
ATOM     23  C   UNL     1      49.411   7.202  17.653  0.00  0.00    +0.000 A 
ATOM     24  C   UNL     1      49.152   8.318  18.437  0.00  0.00    +0.000 A 
ATOM     25  S   UNL     1      48.602   7.936  20.005  0.00  0.00    +0.000 S 
ATOM     26  C   UNL     1      48.745   6.267  19.710  0.00  0.00    +0.000 A 
ATOM     27  N   UNL     1      48.442   5.354  20.671  0.00  0.00    +0.000 NA
ATOM     28  C   UNL     1      48.630   4.124  20.322  0.00  0.00    +0.000 A 
ATOM     29  N   UNL     1      49.090   3.725  19.092  0.00  0.00    +0.000 N 
ATOM     30  C   UNL     1      49.377   4.609  18.079  0.00  0.00    +0.000 A 
ATOM     31  O   UNL     1      49.738   4.226  16.973  0.00  0.00    +0.000 OA
ATOM     32  C   UNL     1      49.194   6.004  18.428  0.00  0.00    +0.000 A 
ATOM     33  H   UNL     1      49.212   2.746  18.882  0.00  0.00    +0.000 HD
ENDBRANCH  20  23
ENDBRANCH   1  19
BRANCH   1  34
ATOM     34  N   UNL     1      49.297   8.463  13.577  0.00  0.00    +0.000 NA
ATOM     35  H   UNL     1      48.362   8.864  13.457  0.00  0.00    +0.000 HD
ATOM     36  H   UNL     1      49.722   8.513  12.657  0.00  0.00    +0.000 HD
ENDBRANCH   1  34
TORSDOF 7
ENDMDL
MODEL 9
REMARK VINA RESULT:    -6.732      2.892      8.570
REMARK INTER + INTRA:         -10.585
REMARK INTER:                  -9.395
REMARK INTRA:                  -1.190
REMARK UNBOUND:                -1.294
REMARK  Name = 
REMARK  7 active torsions:
REMARK  status: ('A' for Active; 'I' for Inactive)
REMARK    1  A    between atoms: N_1  and  C_2
REMARK    2  A    between atoms: C_2  and  N_3
REMARK    3  A    between atoms: C_2  and  C_16
REMARK    4  A    between atoms: C_4  and  C_6
REMARK    5  A    between atoms: C_19  and  C_20
REMARK    6  A    between atoms: C_20  and  N_21
REMARK    7  A    between atoms: C_22  and  C_24
REMARK                            x       y       z     vdW  Elec       q    Type
REMARK                         _______ _______ _______ _____ _____    ______ ____
ROOT
ATOM      1  C   UNL     1      47.544   7.764  12.132  0.00  0.00    +0.000 C 
ENDROOT
BRANCH   1   2
ATOM      2  C   UNL     1      47.948   7.821  13.596  0.00  0.00    +0.000 A 
ATOM      3  C   UNL     1      48.329   6.659  14.283  0.00  0.00    +0.000 A 
ATOM      4  C   UNL     1      48.712   6.715  15.630  0.00  0.00    +0.000 A 
ATOM      5  C   UNL     1      48.709   7.932  16.326  0.00  0.00    +0.000 A 
ATOM      6  C   UNL     1      48.342   9.097  15.643  0.00  0.00    +0.000 A 
ATOM      7  C   UNL     1      47.961   9.040  14.299  0.00  0.00    +0.000 A 
BRANCH   5   8
ATOM      8  C   UNL     1      49.120   8.002  17.775  0.00  0.00    +0.000 C 
BRANCH   8   9
ATOM      9  N   UNL     1      49.208   6.682  18.355  0.00  0.00    +0.000 N 
ATOM     10  C   UNL     1      50.431   6.094  18.613  0.00  0.00    +0.000 C 
ATOM     11  O   UNL     1      51.495   6.681  18.451  0.00  0.00    +0.000 OA
ATOM     12  H   UNL     1      48.362   6.133  18.404  0.00  0.00    +0.000 HD
BRANCH  10  13
ATOM     13  C   UNL     1      50.324   4.675  19.163  0.00  0.00    +0.000 C 
ATOM     14  C   UNL     1      50.220   3.589  18.093  0.00  0.00    +0.000 C 
ATOM     15  C   UNL     1      48.749   3.222  18.081  0.00  0.00    +0.000 C 
ATOM     16  N   UNL     1      48.345   3.326  19.487  0.00  0.00    +0.000 NA
ATOM     17  C   UNL     1      49.059   4.503  20.003  0.00  0.00    +0.000 C 
ATOM     18  H   UNL     1      48.669   2.494  19.980  0.00  0.00    +0.000 HD
ENDBRANCH  10  13
ENDBRANCH   8   9
ENDBRANCH   5   8
ENDBRANCH   1   2
BRANCH   1  19
ATOM     19  N   UNL     1      46.808   6.560  11.873  0.00  0.00    +0.000 N 
ATOM     20  C   UNL     1      45.442   6.503  11.759  0.00  0.00    +0.000 C 
ATOM     21  O   UNL     1      44.737   7.507  11.750  0.00  0.00    +0.000 OA
ATOM     22  H   UNL     1      47.260   5.726  12.230  0.00  0.00    +0.000 HD
BRANCH  20  23
ATOM     23  C   UNL     1      44.885   5.169  11.507  0.00  0.00    +0.000 A 
ATOM     24  C   UNL     1      44.177   4.516  12.507  0.00  0.00    +0.000 A 
ATOM     25  S   UNL     1      43.524   3.020  12.014  0.00  0.00    +0.000 S 
ATOM     26  C   UNL     1      44.211   3.167  10.464  0.00  0.00    +0.000 A 
ATOM     27  N   UNL     1      44.046   2.195   9.526  0.00  0.00    +0.000 NA
ATOM     28  C   UNL     1      44.651   2.422   8.407  0.00  0.00    +0.000 A 
ATOM     29  N   UNL     1      45.403   3.539   8.139  0.00  0.00    +0.000 N 
ATOM     30  C   UNL     1      45.568   4.562   9.043  0.00  0.00    +0.000 A 
ATOM     31  O   UNL     1      46.201   5.573   8.762  0.00  0.00    +0.000 OA
ATOM     32  C   UNL     1      44.917   4.347  10.321  0.00  0.00    +0.000 A 
ATOM     33  H   UNL     1      45.847   3.657   7.241  0.00  0.00    +0.000 HD
ENDBRANCH  20  23
ENDBRANCH   1  19
BRANCH   1  34
ATOM     34  N   UNL     1      48.715   7.730  11.283  0.00  0.00    +0.000 NA
ATOM     35  H   UNL     1      48.374   7.563  10.331  0.00  0.00    +0.000 HD
ATOM     36  H   UNL     1      49.246   6.898  11.517  0.00  0.00    +0.000 HD
ENDBRANCH   1  34
TORSDOF 7
ENDMDL
