MODEL 1
REMARK VINA RESULT:    -8.039      0.000      0.000
REMARK INTER + INTRA:         -12.827
REMARK INTER:                 -11.798
REMARK INTRA:                  -1.028
REMARK UNBOUND:                -1.028
REMARK  Name = 
REMARK  11 active torsions:
REMARK  status: ('A' for Active; 'I' for Inactive)
REMARK    1  A    between atoms: C_1  and  O_2
REMARK    2  A    between atoms: O_2  and  C_3
REMARK    3  A    between atoms: C_6  and  N_7
REMARK    4  A    between atoms: N_7  and  C_8
REMARK    5  A    between atoms: C_8  and  C_9
REMARK    6  A    between atoms: C_9  and  C_10
REMARK    7  A    between atoms: C_9  and  C_11
REMARK    8  A    between atoms: C_9  and  C_12
REMARK    9  A    between atoms: C_15  and  C_16
REMARK   10  A    between atoms: C_22  and  O_23
REMARK   11  A    between atoms: O_23  and  C_24
REMARK                            x       y       z     vdW  Elec       q    Type
REMARK                         _______ _______ _______ _____ _____    ______ ____
ROOT
ATOM      1  N   UNL     1      45.381   5.729  12.237  0.00  0.00    +0.000 N 
ATOM      2  H   UNL     1      45.163   6.251  11.391  0.00  0.00    +0.000 HD
ENDROOT
BRANCH   1   6
ATOM      3  C   UNL     1      49.029   7.014  14.005  0.00  0.00    +0.000 A 
ATOM      4  C   UNL     1      48.558   7.604  12.824  0.00  0.00    +0.000 A 
ATOM      5  C   UNL     1      47.350   7.206  12.241  0.00  0.00    +0.000 A 
ATOM      6  C   UNL     1      46.555   6.221  12.823  0.00  0.00    +0.000 A 
ATOM      7  C   UNL     1      47.051   5.606  13.982  0.00  0.00    +0.000 A 
ATOM      8  C   UNL     1      48.267   5.991  14.578  0.00  0.00    +0.000 A 
BRANCH   3  10
ATOM      9  C   UNL     1      51.031   8.289  13.878  0.00  0.00    +0.000 C 
ATOM     10  O   UNL     1      50.199   7.388  14.608  0.00  0.00    +0.000 OA
ENDBRANCH   3  10
BRANCH   8  11
ATOM     11  O   UNL     1      48.520   5.321  15.755  0.00  0.00    +0.000 OA
BRANCH  11  12
ATOM     12  C   UNL     1      47.488   4.539  16.398  0.00  0.00    +0.000 C 
ATOM     13  C   UNL     1      47.282   4.688  17.918  0.00  0.00    +0.000 C 
ATOM     14  N   UNL     1      47.456   3.239  18.108  0.00  0.00    +0.000 NA
ATOM     15  C   UNL     1      47.910   3.087  16.721  0.00  0.00    +0.000 C 
ATOM     16  H   UNL     1      46.593   2.740  18.318  0.00  0.00    +0.000 HD
ENDBRANCH  11  12
ENDBRANCH   8  11
ENDBRANCH   1   6
BRANCH   1  17
ATOM     17  C   UNL     1      45.223   4.277  12.080  0.00  0.00    +0.000 C 
BRANCH  17  18
ATOM     18  C   UNL     1      44.192   3.894  10.973  0.00  0.00    +0.000 C 
ATOM     19  C   UNL     1      43.311   2.721  11.468  0.00  0.00    +0.000 C 
ATOM     20  C   UNL     1      43.233   5.079  10.692  0.00  0.00    +0.000 C 
BRANCH  18  21
ATOM     21  C   UNL     1      45.000   3.511   9.707  0.00  0.00    +0.000 A 
ATOM     22  C   UNL     1      45.268   2.167   9.386  0.00  0.00    +0.000 A 
ATOM     23  C   UNL     1      46.042   1.823   8.270  0.00  0.00    +0.000 A 
ATOM     24  C   UNL     1      46.571   2.815   7.441  0.00  0.00    +0.000 A 
ATOM     25  C   UNL     1      46.333   4.153   7.751  0.00  0.00    +0.000 A 
ATOM     26  C   UNL     1      45.564   4.495   8.868  0.00  0.00    +0.000 A 
BRANCH  24  27
ATOM     27  C   UNL     1      47.409   2.403   6.283  0.00  0.00    +0.000 C 
ATOM     28  N   UNL     1      47.223   3.065   5.100  0.00  0.00    +0.000 N 
ATOM     29  O   UNL     1      48.219   1.490   6.368  0.00  0.00    +0.000 OA
ATOM     30  H   UNL     1      46.421   3.650   4.920  0.00  0.00    +0.000 HD
ATOM     31  H   UNL     1      47.736   2.709   4.304  0.00  0.00    +0.000 HD
ENDBRANCH  24  27
ENDBRANCH  18  21
ENDBRANCH  17  18
ENDBRANCH   1  17
TORSDOF 8
ENDMDL
MODEL 2
REMARK VINA RESULT:    -7.616      1.384      1.664
REMARK INTER + INTRA:         -12.207
REMARK INTER:                 -11.602
REMARK INTRA:                  -0.605
REMARK UNBOUND:                -1.028
REMARK  Name = 
REMARK  11 active torsions:
REMARK  status: ('A' for Active; 'I' for Inactive)
REMARK    1  A    between atoms: C_1  and  O_2
REMARK    2  A    between atoms: O_2  and  C_3
REMARK    3  A    between atoms: C_6  and  N_7
REMARK    4  A    between atoms: N_7  and  C_8
REMARK    5  A    between atoms: C_8  and  C_9
REMARK    6  A    between atoms: C_9  and  C_10
REMARK    7  A    between atoms: C_9  and  C_11
REMARK    8  A    between atoms: C_9  and  C_12
REMARK    9  A    between atoms: C_15  and  C_16
REMARK   10  A    between atoms: C_22  and  O_23
REMARK   11  A    between atoms: O_23  and  C_24
REMARK                            x       y       z     vdW  Elec       q    Type
REMARK                         _______ _______ _______ _____ _____    ______ ____
ROOT
ATOM      1  N   UNL     1      46.073   4.307  12.934  0.00  0.00    +0.000 N 
ATOM      2  H   UNL     1      45.556   3.542  13.361  0.00  0.00    +0.000 HD
ENDROOT
BRANCH   1   6
ATOM      3  C   UNL     1      48.604   6.070  15.860  0.00  0.00    +0.000 A 
ATOM      4  C   UNL     1      48.507   6.616  14.573  0.00  0.00    +0.000 A 
ATOM      5  C   UNL     1      47.663   6.060  13.606  0.00  0.00    +0.000 A 
ATOM      6  C   UNL     1      46.870   4.951  13.890  0.00  0.00    +0.000 A 
ATOM      7  C   UNL     1      47.001   4.384  15.166  0.00  0.00    +0.000 A 
ATOM      8  C   UNL     1      47.849   4.929  16.149  0.00  0.00    +0.000 A 
BRANCH   3  10
ATOM      9  C   UNL     1      50.804   6.663  16.539  0.00  0.00    +0.000 C 
ATOM     10  O   UNL     1      49.409   6.597  16.833  0.00  0.00    +0.000 OA
ENDBRANCH   3  10
BRANCH   8  11
ATOM     11  O   UNL     1      47.759   4.271  17.356  0.00  0.00    +0.000 OA
BRANCH  11  12
ATOM     12  C   UNL     1      48.534   3.077  17.607  0.00  0.00    +0.000 C 
ATOM     13  C   UNL     1      50.071   3.162  17.536  0.00  0.00    +0.000 C 
ATOM     14  N   UNL     1      50.110   2.077  16.543  0.00  0.00    +0.000 NA
ATOM     15  C   UNL     1      48.652   2.136  16.386  0.00  0.00    +0.000 C 
ATOM     16  H   UNL     1      50.450   1.188  16.909  0.00  0.00    +0.000 HD
ENDBRANCH  11  12
ENDBRANCH   8  11
ENDBRANCH   1   6
BRANCH   1  17
ATOM     17  C   UNL     1      45.254   5.124  12.028  0.00  0.00    +0.000 C 
BRANCH  17  18
ATOM     18  C   UNL     1      44.225   4.281  11.212  0.00  0.00    +0.000 C 
ATOM     19  C   UNL     1      43.706   3.110  12.082  0.00  0.00    +0.000 C 
ATOM     20  C   UNL     1      42.989   5.140  10.844  0.00  0.00    +0.000 C 
BRANCH  18  21
ATOM     21  C   UNL     1      44.956   3.772   9.942  0.00  0.00    +0.000 A 
ATOM     22  C   UNL     1      45.095   2.397   9.677  0.00  0.00    +0.000 A 
ATOM     23  C   UNL     1      45.800   1.938   8.556  0.00  0.00    +0.000 A 
ATOM     24  C   UNL     1      46.386   2.841   7.667  0.00  0.00    +0.000 A 
ATOM     25  C   UNL     1      46.276   4.208   7.921  0.00  0.00    +0.000 A 
ATOM     26  C   UNL     1      45.576   4.665   9.043  0.00  0.00    +0.000 A 
BRANCH  24  27
ATOM     27  C   UNL     1      47.147   2.306   6.506  0.00  0.00    +0.000 C 
ATOM     28  N   UNL     1      47.087   3.008   5.333  0.00  0.00    +0.000 N 
ATOM     29  O   UNL     1      47.786   1.265   6.581  0.00  0.00    +0.000 OA
ATOM     30  H   UNL     1      46.399   3.725   5.158  0.00  0.00    +0.000 HD
ATOM     31  H   UNL     1      47.535   2.579   4.534  0.00  0.00    +0.000 HD
ENDBRANCH  24  27
ENDBRANCH  18  21
ENDBRANCH  17  18
ENDBRANCH   1  17
TORSDOF 8
ENDMDL
MODEL 3
REMARK VINA RESULT:    -7.347      1.586      3.416
REMARK INTER + INTRA:         -11.812
REMARK INTER:                 -10.772
REMARK INTRA:                  -1.040
REMARK UNBOUND:                -1.028
REMARK  Name = 
REMARK  11 active torsions:
REMARK  status: ('A' for Active; 'I' for Inactive)
REMARK    1  A    between atoms: C_1  and  O_2
REMARK    2  A    between atoms: O_2  and  C_3
REMARK    3  A    between atoms: C_6  and  N_7
REMARK    4  A    between atoms: N_7  and  C_8
REMARK    5  A    between atoms: C_8  and  C_9
REMARK    6  A    between atoms: C_9  and  C_10
REMARK    7  A    between atoms: C_9  and  C_11
REMARK    8  A    between atoms: C_9  and  C_12
REMARK    9  A    between atoms: C_15  and  C_16
REMARK   10  A    between atoms: C_22  and  O_23
REMARK   11  A    between atoms: O_23  and  C_24
REMARK                            x       y       z     vdW  Elec       q    Type
REMARK                         _______ _______ _______ _____ _____    ______ ____
ROOT
ATOM      1  N   UNL     1      45.804   4.104  13.245  0.00  0.00    +0.000 N 
ATOM      2  H   UNL     1      45.081   3.616  13.768  0.00  0.00    +0.000 HD
ENDROOT
BRANCH   1   6
ATOM      3  C   UNL     1      48.536   5.995  15.899  0.00  0.00    +0.000 A 
ATOM      4  C   UNL     1      47.897   4.801  16.259  0.00  0.00    +0.000 A 
ATOM      5  C   UNL     1      47.012   4.156  15.389  0.00  0.00    +0.000 A 
ATOM      6  C   UNL     1      46.745   4.665  14.120  0.00  0.00    +0.000 A 
ATOM      7  C   UNL     1      47.355   5.882  13.780  0.00  0.00    +0.000 A 
ATOM      8  C   UNL     1      48.245   6.545  14.646  0.00  0.00    +0.000 A 
BRANCH   3  10
ATOM      9  C   UNL     1      48.851   7.486  17.723  0.00  0.00    +0.000 C 
ATOM     10  O   UNL     1      49.417   6.644  16.721  0.00  0.00    +0.000 OA
ENDBRANCH   3  10
BRANCH   8  11
ATOM     11  O   UNL     1      48.798   7.673  14.081  0.00  0.00    +0.000 OA
BRANCH  11  12
ATOM     12  C   UNL     1      49.271   7.660  12.715  0.00  0.00    +0.000 C 
ATOM     13  C   UNL     1      50.664   8.242  12.407  0.00  0.00    +0.000 C 
ATOM     14  N   UNL     1      50.089   9.159  11.411  0.00  0.00    +0.000 NA
ATOM     15  C   UNL     1      48.730   8.823  11.852  0.00  0.00    +0.000 C 
ATOM     16  H   UNL     1      50.285   8.902  10.445  0.00  0.00    +0.000 HD
ENDBRANCH  11  12
ENDBRANCH   8  11
ENDBRANCH   1   6
BRANCH   1  17
ATOM     17  C   UNL     1      45.271   4.932  12.154  0.00  0.00    +0.000 C 
BRANCH  17  18
ATOM     18  C   UNL     1      44.195   4.192  11.301  0.00  0.00    +0.000 C 
ATOM     19  C   UNL     1      43.621   3.001  12.107  0.00  0.00    +0.000 C 
ATOM     20  C   UNL     1      43.004   5.134  10.993  0.00  0.00    +0.000 C 
BRANCH  18  21
ATOM     21  C   UNL     1      44.890   3.719   9.998  0.00  0.00    +0.000 A 
ATOM     22  C   UNL     1      45.023   2.352   9.691  0.00  0.00    +0.000 A 
ATOM     23  C   UNL     1      45.697   1.924   8.539  0.00  0.00    +0.000 A 
ATOM     24  C   UNL     1      46.257   2.853   7.659  0.00  0.00    +0.000 A 
ATOM     25  C   UNL     1      46.154   4.212   7.954  0.00  0.00    +0.000 A 
ATOM     26  C   UNL     1      45.485   4.637   9.107  0.00  0.00    +0.000 A 
BRANCH  24  27
ATOM     27  C   UNL     1      46.986   2.352   6.463  0.00  0.00    +0.000 C 
ATOM     28  N   UNL     1      47.004   3.150   5.353  0.00  0.00    +0.000 N 
ATOM     29  O   UNL     1      47.532   1.256   6.456  0.00  0.00    +0.000 OA
ATOM     30  H   UNL     1      46.384   3.937   5.233  0.00  0.00    +0.000 HD
ATOM     31  H   UNL     1      47.425   2.752   4.523  0.00  0.00    +0.000 HD
ENDBRANCH  24  27
ENDBRANCH  18  21
ENDBRANCH  17  18
ENDBRANCH   1  17
TORSDOF 8
ENDMDL
MODEL 4
REMARK VINA RESULT:    -6.542      3.145      4.979
REMARK INTER + INTRA:         -10.630
REMARK INTER:                  -9.366
REMARK INTRA:                  -1.265
REMARK UNBOUND:                -1.028
REMARK  Name = 
REMARK  11 active torsions:
REMARK  status: ('A' for Active; 'I' for Inactive)
REMARK    1  A    between atoms: C_1  and  O_2
REMARK    2  A    between atoms: O_2  and  C_3
REMARK    3  A    between atoms: C_6  and  N_7
REMARK    4  A    between atoms: N_7  and  C_8
REMARK    5  A    between atoms: C_8  and  C_9
REMARK    6  A    between atoms: C_9  and  C_10
REMARK    7  A    between atoms: C_9  and  C_11
REMARK    8  A    between atoms: C_9  and  C_12
REMARK    9  A    between atoms: C_15  and  C_16
REMARK   10  A    between atoms: C_22  and  O_23
REMARK   11  A    between atoms: O_23  and  C_24
REMARK                            x       y       z     vdW  Elec       q    Type
REMARK                         _______ _______ _______ _____ _____    ______ ____
ROOT
ATOM      1  N   UNL     1      49.702   8.131  14.213  0.00  0.00    +0.000 N 
ATOM      2  H   UNL     1      50.264   8.110  13.365  0.00  0.00    +0.000 HD
ENDROOT
BRANCH   1   6
ATOM      3  C   UNL     1      51.562   5.799  17.243  0.00  0.00    +0.000 A 
ATOM      4  C   UNL     1      52.323   6.629  16.408  0.00  0.00    +0.000 A 
ATOM      5  C   UNL     1      51.724   7.417  15.421  0.00  0.00    +0.000 A 
ATOM      6  C   UNL     1      50.343   7.425  15.240  0.00  0.00    +0.000 A 
ATOM      7  C   UNL     1      49.589   6.562  16.050  0.00  0.00    +0.000 A 
ATOM      8  C   UNL     1      50.178   5.759  17.045  0.00  0.00    +0.000 A 
BRANCH   3  10
ATOM      9  C   UNL     1      52.330   3.650  17.910  0.00  0.00    +0.000 C 
ATOM     10  O   UNL     1      52.114   5.025  18.227  0.00  0.00    +0.000 OA
ENDBRANCH   3  10
BRANCH   8  11
ATOM     11  O   UNL     1      49.249   5.057  17.782  0.00  0.00    +0.000 OA
BRANCH  11  12
ATOM     12  C   UNL     1      48.565   3.916  17.217  0.00  0.00    +0.000 C 
ATOM     13  C   UNL     1      47.085   4.063  16.815  0.00  0.00    +0.000 C 
ATOM     14  N   UNL     1      46.715   2.921  17.666  0.00  0.00    +0.000 NA
ATOM     15  C   UNL     1      48.052   2.907  18.270  0.00  0.00    +0.000 C 
ATOM     16  H   UNL     1      46.486   2.072  17.148  0.00  0.00    +0.000 HD
ENDBRANCH  11  12
ENDBRANCH   8  11
ENDBRANCH   1   6
BRANCH   1  17
ATOM     17  C   UNL     1      48.274   7.885  13.968  0.00  0.00    +0.000 C 
BRANCH  17  18
ATOM     18  C   UNL     1      47.912   7.865  12.451  0.00  0.00    +0.000 C 
ATOM     19  C   UNL     1      47.254   9.210  12.056  0.00  0.00    +0.000 C 
ATOM     20  C   UNL     1      49.193   7.730  11.589  0.00  0.00    +0.000 C 
BRANCH  18  21
ATOM     21  C   UNL     1      46.952   6.669  12.226  0.00  0.00    +0.000 A 
ATOM     22  C   UNL     1      46.250   6.509  11.016  0.00  0.00    +0.000 A 
ATOM     23  C   UNL     1      45.344   5.455  10.833  0.00  0.00    +0.000 A 
ATOM     24  C   UNL     1      45.114   4.531  11.854  0.00  0.00    +0.000 A 
ATOM     25  C   UNL     1      45.786   4.682  13.066  0.00  0.00    +0.000 A 
ATOM     26  C   UNL     1      46.686   5.736  13.250  0.00  0.00    +0.000 A 
BRANCH  24  27
ATOM     27  C   UNL     1      44.124   3.446  11.623  0.00  0.00    +0.000 C 
ATOM     28  N   UNL     1      43.955   2.520  12.616  0.00  0.00    +0.000 N 
ATOM     29  O   UNL     1      43.496   3.361  10.575  0.00  0.00    +0.000 OA
ATOM     30  H   UNL     1      44.605   2.413  13.381  0.00  0.00    +0.000 HD
ATOM     31  H   UNL     1      43.347   1.741  12.402  0.00  0.00    +0.000 HD
ENDBRANCH  24  27
ENDBRANCH  18  21
ENDBRANCH  17  18
ENDBRANCH   1  17
TORSDOF 8
ENDMDL
MODEL 5
REMARK VINA RESULT:    -6.528      3.987      5.632
REMARK INTER + INTRA:         -10.610
REMARK INTER:                  -9.011
REMARK INTRA:                  -1.599
REMARK UNBOUND:                -1.028
REMARK  Name = 
REMARK  11 active torsions:
REMARK  status: ('A' for Active; 'I' for Inactive)
REMARK    1  A    between atoms: C_1  and  O_2
REMARK    2  A    between atoms: O_2  and  C_3
REMARK    3  A    between atoms: C_6  and  N_7
REMARK    4  A    between atoms: N_7  and  C_8
REMARK    5  A    between atoms: C_8  and  C_9
REMARK    6  A    between atoms: C_9  and  C_10
REMARK    7  A    between atoms: C_9  and  C_11
REMARK    8  A    between atoms: C_9  and  C_12
REMARK    9  A    between atoms: C_15  and  C_16
REMARK   10  A    between atoms: C_22  and  O_23
REMARK   11  A    between atoms: O_23  and  C_24
REMARK                            x       y       z     vdW  Elec       q    Type
REMARK                         _______ _______ _______ _____ _____    ______ ____
ROOT
ATOM      1  N   UNL     1      48.888   8.807  14.841  0.00  0.00    +0.000 N 
ATOM      2  H   UNL     1      49.268   9.741  14.976  0.00  0.00    +0.000 HD
ENDROOT
BRANCH   1   6
ATOM      3  C   UNL     1      48.611   6.809  18.584  0.00  0.00    +0.000 A 
ATOM      4  C   UNL     1      48.198   8.142  18.450  0.00  0.00    +0.000 A 
ATOM      5  C   UNL     1      48.263   8.806  17.221  0.00  0.00    +0.000 A 
ATOM      6  C   UNL     1      48.724   8.163  16.075  0.00  0.00    +0.000 A 
ATOM      7  C   UNL     1      49.174   6.843  16.223  0.00  0.00    +0.000 A 
ATOM      8  C   UNL     1      49.119   6.162  17.454  0.00  0.00    +0.000 A 
BRANCH   3  10
ATOM      9  C   UNL     1      47.249   5.944  20.329  0.00  0.00    +0.000 C 
ATOM     10  O   UNL     1      48.548   6.127  19.769  0.00  0.00    +0.000 OA
ENDBRANCH   3  10
BRANCH   8  11
ATOM     11  O   UNL     1      49.527   4.850  17.356  0.00  0.00    +0.000 OA
BRANCH  11  12
ATOM     12  C   UNL     1      48.608   3.818  16.930  0.00  0.00    +0.000 C 
ATOM     13  C   UNL     1      47.127   4.186  16.718  0.00  0.00    +0.000 C 
ATOM     14  N   UNL     1      46.705   3.132  17.655  0.00  0.00    +0.000 NA
ATOM     15  C   UNL     1      48.094   2.922  18.081  0.00  0.00    +0.000 C 
ATOM     16  H   UNL     1      46.284   2.320  17.206  0.00  0.00    +0.000 HD
ENDBRANCH  11  12
ENDBRANCH   8  11
ENDBRANCH   1   6
BRANCH   1  17
ATOM     17  C   UNL     1      49.529   8.075  13.740  0.00  0.00    +0.000 C 
BRANCH  17  18
ATOM     18  C   UNL     1      48.709   8.130  12.414  0.00  0.00    +0.000 C 
ATOM     19  C   UNL     1      48.339   9.599  12.093  0.00  0.00    +0.000 C 
ATOM     20  C   UNL     1      49.562   7.620  11.226  0.00  0.00    +0.000 C 
BRANCH  18  21
ATOM     21  C   UNL     1      47.447   7.253  12.619  0.00  0.00    +0.000 A 
ATOM     22  C   UNL     1      47.540   5.937  13.108  0.00  0.00    +0.000 A 
ATOM     23  C   UNL     1      46.404   5.127  13.245  0.00  0.00    +0.000 A 
ATOM     24  C   UNL     1      45.141   5.612  12.897  0.00  0.00    +0.000 A 
ATOM     25  C   UNL     1      45.029   6.907  12.393  0.00  0.00    +0.000 A 
ATOM     26  C   UNL     1      46.165   7.712  12.252  0.00  0.00    +0.000 A 
BRANCH  24  27
ATOM     27  C   UNL     1      43.969   4.707  13.034  0.00  0.00    +0.000 C 
ATOM     28  N   UNL     1      42.737   5.285  13.181  0.00  0.00    +0.000 N 
ATOM     29  O   UNL     1      44.093   3.490  13.041  0.00  0.00    +0.000 OA
ATOM     30  H   UNL     1      42.614   6.259  13.414  0.00  0.00    +0.000 HD
ATOM     31  H   UNL     1      41.967   4.655  13.364  0.00  0.00    +0.000 HD
ENDBRANCH  24  27
ENDBRANCH  18  21
ENDBRANCH  17  18
ENDBRANCH   1  17
TORSDOF 8
ENDMDL
MODEL 6
REMARK VINA RESULT:    -6.451      3.559      8.361
REMARK INTER + INTRA:         -10.497
REMARK INTER:                  -9.905
REMARK INTRA:                  -0.592
REMARK UNBOUND:                -1.028
REMARK  Name = 
REMARK  11 active torsions:
REMARK  status: ('A' for Active; 'I' for Inactive)
REMARK    1  A    between atoms: C_1  and  O_2
REMARK    2  A    between atoms: O_2  and  C_3
REMARK    3  A    between atoms: C_6  and  N_7
REMARK    4  A    between atoms: N_7  and  C_8
REMARK    5  A    between atoms: C_8  and  C_9
REMARK    6  A    between atoms: C_9  and  C_10
REMARK    7  A    between atoms: C_9  and  C_11
REMARK    8  A    between atoms: C_9  and  C_12
REMARK    9  A    between atoms: C_15  and  C_16
REMARK   10  A    between atoms: C_22  and  O_23
REMARK   11  A    between atoms: O_23  and  C_24
REMARK                            x       y       z     vdW  Elec       q    Type
REMARK                         _______ _______ _______ _____ _____    ______ ____
ROOT
ATOM      1  N   UNL     1      47.085   4.105  15.178  0.00  0.00    +0.000 N 
ATOM      2  H   UNL     1      47.272   3.147  14.891  0.00  0.00    +0.000 HD
ENDROOT
BRANCH   1   6
ATOM      3  C   UNL     1      45.607   6.498  11.989  0.00  0.00    +0.000 A 
ATOM      4  C   UNL     1      46.931   6.630  12.431  0.00  0.00    +0.000 A 
ATOM      5  C   UNL     1      47.438   5.836  13.465  0.00  0.00    +0.000 A 
ATOM      6  C   UNL     1      46.652   4.867  14.084  0.00  0.00    +0.000 A 
ATOM      7  C   UNL     1      45.317   4.767  13.667  0.00  0.00    +0.000 A 
ATOM      8  C   UNL     1      44.790   5.562  12.631  0.00  0.00    +0.000 A 
BRANCH   3  10
ATOM      9  C   UNL     1      44.504   8.501  11.338  0.00  0.00    +0.000 C 
ATOM     10  O   UNL     1      45.084   7.249  10.972  0.00  0.00    +0.000 OA
ENDBRANCH   3  10
BRANCH   8  11
ATOM     11  O   UNL     1      43.487   5.239  12.321  0.00  0.00    +0.000 OA
BRANCH  11  12
ATOM     12  C   UNL     1      43.190   4.234  11.326  0.00  0.00    +0.000 C 
ATOM     13  C   UNL     1      43.329   2.748  11.708  0.00  0.00    +0.000 C 
ATOM     14  N   UNL     1      44.250   2.519  10.584  0.00  0.00    +0.000 NA
ATOM     15  C   UNL     1      44.352   3.962  10.342  0.00  0.00    +0.000 C 
ATOM     16  H   UNL     1      43.842   1.998   9.809  0.00  0.00    +0.000 HD
ENDBRANCH  11  12
ENDBRANCH   8  11
ENDBRANCH   1   6
BRANCH   1  17
ATOM     17  C   UNL     1      48.123   4.658  16.059  0.00  0.00    +0.000 C 
BRANCH  17  18
ATOM     18  C   UNL     1      48.169   3.962  17.455  0.00  0.00    +0.000 C 
ATOM     19  C   UNL     1      47.822   4.990  18.560  0.00  0.00    +0.000 C 
ATOM     20  C   UNL     1      47.099   2.845  17.540  0.00  0.00    +0.000 C 
BRANCH  18  21
ATOM     21  C   UNL     1      49.598   3.389  17.633  0.00  0.00    +0.000 A 
ATOM     22  C   UNL     1      50.648   4.178  18.140  0.00  0.00    +0.000 A 
ATOM     23  C   UNL     1      51.951   3.675  18.252  0.00  0.00    +0.000 A 
ATOM     24  C   UNL     1      52.242   2.366  17.862  0.00  0.00    +0.000 A 
ATOM     25  C   UNL     1      51.221   1.573  17.340  0.00  0.00    +0.000 A 
ATOM     26  C   UNL     1      49.921   2.079  17.223  0.00  0.00    +0.000 A 
BRANCH  24  27
ATOM     27  C   UNL     1      53.645   1.884  17.975  0.00  0.00    +0.000 C 
ATOM     28  N   UNL     1      54.622   2.638  17.385  0.00  0.00    +0.000 N 
ATOM     29  O   UNL     1      53.922   0.840  18.550  0.00  0.00    +0.000 OA
ATOM     30  H   UNL     1      54.423   3.364  16.712  0.00  0.00    +0.000 HD
ATOM     31  H   UNL     1      55.555   2.247  17.394  0.00  0.00    +0.000 HD
ENDBRANCH  24  27
ENDBRANCH  18  21
ENDBRANCH  17  18
ENDBRANCH   1  17
TORSDOF 8
ENDMDL
MODEL 7
REMARK VINA RESULT:    -5.932      3.273      8.220
REMARK INTER + INTRA:          -9.735
REMARK INTER:                  -8.761
REMARK INTRA:                  -0.974
REMARK UNBOUND:                -1.028
REMARK  Name = 
REMARK  11 active torsions:
REMARK  status: ('A' for Active; 'I' for Inactive)
REMARK    1  A    between atoms: C_1  and  O_2
REMARK    2  A    between atoms: O_2  and  C_3
REMARK    3  A    between atoms: C_6  and  N_7
REMARK    4  A    between atoms: N_7  and  C_8
REMARK    5  A    between atoms: C_8  and  C_9
REMARK    6  A    between atoms: C_9  and  C_10
REMARK    7  A    between atoms: C_9  and  C_11
REMARK    8  A    between atoms: C_9  and  C_12
REMARK    9  A    between atoms: C_15  and  C_16
REMARK   10  A    between atoms: C_22  and  O_23
REMARK   11  A    between atoms: O_23  and  C_24
REMARK                            x       y       z     vdW  Elec       q    Type
REMARK                         _______ _______ _______ _____ _____    ______ ____
ROOT
ATOM      1  N   UNL     1      46.993   4.741  15.400  0.00  0.00    +0.000 N 
ATOM      2  H   UNL     1      46.009   4.523  15.265  0.00  0.00    +0.000 HD
ENDROOT
BRANCH   1   6
ATOM      3  C   UNL     1      48.201   7.325  12.247  0.00  0.00    +0.000 A 
ATOM      4  C   UNL     1      48.884   7.320  13.470  0.00  0.00    +0.000 A 
ATOM      5  C   UNL     1      48.511   6.461  14.510  0.00  0.00    +0.000 A 
ATOM      6  C   UNL     1      47.458   5.562  14.364  0.00  0.00    +0.000 A 
ATOM      7  C   UNL     1      46.752   5.599  13.152  0.00  0.00    +0.000 A 
ATOM      8  C   UNL     1      47.111   6.461  12.098  0.00  0.00    +0.000 A 
BRANCH   3  10
ATOM      9  C   UNL     1      49.047   9.434  11.549  0.00  0.00    +0.000 C 
ATOM     10  O   UNL     1      48.547   8.142  11.205  0.00  0.00    +0.000 OA
ENDBRANCH   3  10
BRANCH   8  11
ATOM     11  O   UNL     1      46.343   6.272  10.970  0.00  0.00    +0.000 OA
BRANCH  11  12
ATOM     12  C   UNL     1      45.365   5.210  10.910  0.00  0.00    +0.000 C 
ATOM     13  C   UNL     1      45.039   4.577   9.544  0.00  0.00    +0.000 C 
ATOM     14  N   UNL     1      43.608   4.872   9.720  0.00  0.00    +0.000 NA
ATOM     15  C   UNL     1      43.900   5.705  10.892  0.00  0.00    +0.000 C 
ATOM     16  H   UNL     1      43.036   4.054   9.927  0.00  0.00    +0.000 HD
ENDBRANCH  11  12
ENDBRANCH   8  11
ENDBRANCH   1   6
BRANCH   1  17
ATOM     17  C   UNL     1      47.796   3.575  15.795  0.00  0.00    +0.000 C 
BRANCH  17  18
ATOM     18  C   UNL     1      48.089   3.530  17.327  0.00  0.00    +0.000 C 
ATOM     19  C   UNL     1      47.773   4.908  17.958  0.00  0.00    +0.000 C 
ATOM     20  C   UNL     1      47.165   2.501  18.026  0.00  0.00    +0.000 C 
BRANCH  18  21
ATOM     21  C   UNL     1      49.583   3.151  17.495  0.00  0.00    +0.000 A 
ATOM     22  C   UNL     1      50.074   1.899  17.082  0.00  0.00    +0.000 A 
ATOM     23  C   UNL     1      51.414   1.538  17.282  0.00  0.00    +0.000 A 
ATOM     24  C   UNL     1      52.301   2.420  17.901  0.00  0.00    +0.000 A 
ATOM     25  C   UNL     1      51.831   3.659  18.335  0.00  0.00    +0.000 A 
ATOM     26  C   UNL     1      50.493   4.016  18.140  0.00  0.00    +0.000 A 
BRANCH  24  27
ATOM     27  C   UNL     1      53.707   1.983  18.115  0.00  0.00    +0.000 C 
ATOM     28  N   UNL     1      54.198   2.035  19.391  0.00  0.00    +0.000 N 
ATOM     29  O   UNL     1      54.414   1.613  17.187  0.00  0.00    +0.000 OA
ATOM     30  H   UNL     1      53.742   2.545  20.133  0.00  0.00    +0.000 HD
ATOM     31  H   UNL     1      55.181   1.822  19.500  0.00  0.00    +0.000 HD
ENDBRANCH  24  27
ENDBRANCH  18  21
ENDBRANCH  17  18
ENDBRANCH   1  17
TORSDOF 8
ENDMDL
MODEL 8
REMARK VINA RESULT:    -5.852      3.609      7.632
REMARK INTER + INTRA:          -9.617
REMARK INTER:                  -7.512
REMARK INTRA:                  -2.105
REMARK UNBOUND:                -1.028
REMARK  Name = 
REMARK  11 active torsions:
REMARK  status: ('A' for Active; 'I' for Inactive)
REMARK    1  A    between atoms: C_1  and  O_2
REMARK    2  A    between atoms: O_2  and  C_3
REMARK    3  A    between atoms: C_6  and  N_7
REMARK    4  A    between atoms: N_7  and  C_8
REMARK    5  A    between atoms: C_8  and  C_9
REMARK    6  A    between atoms: C_9  and  C_10
REMARK    7  A    between atoms: C_9  and  C_11
REMARK    8  A    between atoms: C_9  and  C_12
REMARK    9  A    between atoms: C_15  and  C_16
REMARK   10  A    between atoms: C_22  and  O_23
REMARK   11  A    between atoms: O_23  and  C_24
REMARK                            x       y       z     vdW  Elec       q    Type
REMARK                         _______ _______ _______ _____ _____    ______ ____
ROOT
ATOM      1  N   UNL     1      48.315   7.319  12.220  0.00  0.00    +0.000 N 
ATOM      2  H   UNL     1      48.707   7.219  11.287  0.00  0.00    +0.000 HD
ENDROOT
BRANCH   1   6
ATOM      3  C   UNL     1      45.152   4.593  13.022  0.00  0.00    +0.000 A 
ATOM      4  C   UNL     1      45.034   5.549  12.004  0.00  0.00    +0.000 A 
ATOM      5  C   UNL     1      46.073   6.439  11.714  0.00  0.00    +0.000 A 
ATOM      6  C   UNL     1      47.277   6.398  12.414  0.00  0.00    +0.000 A 
ATOM      7  C   UNL     1      47.374   5.467  13.460  0.00  0.00    +0.000 A 
ATOM      8  C   UNL     1      46.335   4.568  13.767  0.00  0.00    +0.000 A 
BRANCH   3  10
ATOM      9  C   UNL     1      43.590   2.988  12.225  0.00  0.00    +0.000 C 
ATOM     10  O   UNL     1      44.159   3.700  13.322  0.00  0.00    +0.000 OA
ENDBRANCH   3  10
BRANCH   8  11
ATOM     11  O   UNL     1      46.674   3.684  14.767  0.00  0.00    +0.000 OA
BRANCH  11  12
ATOM     12  C   UNL     1      47.536   4.090  15.854  0.00  0.00    +0.000 C 
ATOM     13  C   UNL     1      48.292   3.007  16.647  0.00  0.00    +0.000 C 
ATOM     14  N   UNL     1      47.717   3.496  17.910  0.00  0.00    +0.000 NA
ATOM     15  C   UNL     1      46.788   4.366  17.179  0.00  0.00    +0.000 C 
ATOM     16  H   UNL     1      48.377   4.000  18.501  0.00  0.00    +0.000 HD
ENDBRANCH  11  12
ENDBRANCH   8  11
ENDBRANCH   1   6
BRANCH   1  17
ATOM     17  C   UNL     1      48.101   8.719  12.612  0.00  0.00    +0.000 C 
BRANCH  17  18
ATOM     18  C   UNL     1      49.300   9.316  13.413  0.00  0.00    +0.000 C 
ATOM     19  C   UNL     1      50.551   9.384  12.502  0.00  0.00    +0.000 C 
ATOM     20  C   UNL     1      48.992  10.770  13.849  0.00  0.00    +0.000 C 
BRANCH  18  21
ATOM     21  C   UNL     1      49.533   8.397  14.639  0.00  0.00    +0.000 A 
ATOM     22  C   UNL     1      48.585   8.300  15.675  0.00  0.00    +0.000 A 
ATOM     23  C   UNL     1      48.820   7.509  16.808  0.00  0.00    +0.000 A 
ATOM     24  C   UNL     1      50.010   6.791  16.938  0.00  0.00    +0.000 A 
ATOM     25  C   UNL     1      50.972   6.888  15.933  0.00  0.00    +0.000 A 
ATOM     26  C   UNL     1      50.739   7.682  14.804  0.00  0.00    +0.000 A 
BRANCH  24  27
ATOM     27  C   UNL     1      50.227   5.986  18.170  0.00  0.00    +0.000 C 
ATOM     28  N   UNL     1      49.264   6.044  19.140  0.00  0.00    +0.000 N 
ATOM     29  O   UNL     1      51.237   5.315  18.330  0.00  0.00    +0.000 OA
ATOM     30  H   UNL     1      48.544   6.751  19.157  0.00  0.00    +0.000 HD
ATOM     31  H   UNL     1      49.473   5.564  20.005  0.00  0.00    +0.000 HD
ENDBRANCH  24  27
ENDBRANCH  18  21
ENDBRANCH  17  18
ENDBRANCH   1  17
TORSDOF 8
ENDMDL
MODEL 9
REMARK VINA RESULT:    -5.362      3.324      8.431
REMARK INTER + INTRA:          -8.899
REMARK INTER:                  -7.897
REMARK INTRA:                  -1.002
REMARK UNBOUND:                -1.028
REMARK  Name = 
REMARK  11 active torsions:
REMARK  status: ('A' for Active; 'I' for Inactive)
REMARK    1  A    between atoms: C_1  and  O_2
REMARK    2  A    between atoms: O_2  and  C_3
REMARK    3  A    between atoms: C_6  and  N_7
REMARK    4  A    between atoms: N_7  and  C_8
REMARK    5  A    between atoms: C_8  and  C_9
REMARK    6  A    between atoms: C_9  and  C_10
REMARK    7  A    between atoms: C_9  and  C_11
REMARK    8  A    between atoms: C_9  and  C_12
REMARK    9  A    between atoms: C_15  and  C_16
REMARK   10  A    between atoms: C_22  and  O_23
REMARK   11  A    between atoms: O_23  and  C_24
REMARK                            x       y       z     vdW  Elec       q    Type
REMARK                         _______ _______ _______ _____ _____    ______ ____
ROOT
ATOM      1  N   UNL     1      48.966   7.038  13.986  0.00  0.00    +0.000 N 
ATOM      2  H   UNL     1      49.316   6.134  13.678  0.00  0.00    +0.000 HD
ENDROOT
BRANCH   1   6
ATOM      3  C   UNL     1      45.347   7.917  11.934  0.00  0.00    +0.000 A 
ATOM      4  C   UNL     1      46.002   8.902  12.687  0.00  0.00    +0.000 A 
ATOM      5  C   UNL     1      47.204   8.633  13.351  0.00  0.00    +0.000 A 
ATOM      6  C   UNL     1      47.809   7.381  13.274  0.00  0.00    +0.000 A 
ATOM      7  C   UNL     1      47.129   6.388  12.554  0.00  0.00    +0.000 A 
ATOM      8  C   UNL     1      45.916   6.641  11.884  0.00  0.00    +0.000 A 
BRANCH   3  10
ATOM      9  C   UNL     1      43.879   9.511  10.958  0.00  0.00    +0.000 C 
ATOM     10  O   UNL     1      44.178   8.150  11.263  0.00  0.00    +0.000 OA
ENDBRANCH   3  10
BRANCH   8  11
ATOM     11  O   UNL     1      45.467   5.554  11.166  0.00  0.00    +0.000 OA
BRANCH  11  12
ATOM     12  C   UNL     1      44.752   4.481  11.819  0.00  0.00    +0.000 C 
ATOM     13  C   UNL     1      44.364   3.239  10.995  0.00  0.00    +0.000 C 
ATOM     14  N   UNL     1      42.949   3.404  11.364  0.00  0.00    +0.000 NA
ATOM     15  C   UNL     1      43.229   4.724  11.940  0.00  0.00    +0.000 C 
ATOM     16  H   UNL     1      42.612   2.720  12.041  0.00  0.00    +0.000 HD
ENDBRANCH  11  12
ENDBRANCH   8  11
ENDBRANCH   1   6
BRANCH   1  17
ATOM     17  C   UNL     1      50.023   8.045  14.147  0.00  0.00    +0.000 C 
BRANCH  17  18
ATOM     18  C   UNL     1      50.312   8.390  15.641  0.00  0.00    +0.000 C 
ATOM     19  C   UNL     1      51.820   8.688  15.824  0.00  0.00    +0.000 C 
ATOM     20  C   UNL     1      49.554   9.676  16.058  0.00  0.00    +0.000 C 
BRANCH  18  21
ATOM     21  C   UNL     1      49.861   7.171  16.487  0.00  0.00    +0.000 A 
ATOM     22  C   UNL     1      48.636   7.171  17.179  0.00  0.00    +0.000 A 
ATOM     23  C   UNL     1      48.253   6.090  17.985  0.00  0.00    +0.000 A 
ATOM     24  C   UNL     1      49.085   4.977  18.121  0.00  0.00    +0.000 A 
ATOM     25  C   UNL     1      50.313   4.965  17.460  0.00  0.00    +0.000 A 
ATOM     26  C   UNL     1      50.696   6.047  16.660  0.00  0.00    +0.000 A 
BRANCH  24  27
ATOM     27  C   UNL     1      48.649   3.865  19.008  0.00  0.00    +0.000 C 
ATOM     28  N   UNL     1      48.709   4.073  20.359  0.00  0.00    +0.000 N 
ATOM     29  O   UNL     1      48.273   2.792  18.556  0.00  0.00    +0.000 OA
ATOM     30  H   UNL     1      49.224   4.835  20.774  0.00  0.00    +0.000 HD
ATOM     31  H   UNL     1      48.497   3.275  20.943  0.00  0.00    +0.000 HD
ENDBRANCH  24  27
ENDBRANCH  18  21
ENDBRANCH  17  18
ENDBRANCH   1  17
TORSDOF 8
ENDMDL
