MODEL 1
REMARK VINA RESULT:    -8.434      0.000      0.000
REMARK INTER + INTRA:         -12.262
REMARK INTER:                 -11.638
REMARK INTRA:                  -0.623
REMARK UNBOUND:                -0.623
REMARK  Name = 
REMARK  7 active torsions:
REMARK  status: ('A' for Active; 'I' for Inactive)
REMARK    1  A    between atoms: N_1  and  C_2
REMARK    2  A    between atoms: C_2  and  C_3
REMARK    3  A    between atoms: C_2  and  C_18
REMARK    4  A    between atoms: C_3  and  N_4
REMARK    5  A    between atoms: C_7  and  N_8
REMARK    6  A    between atoms: N_8  and  C_9
REMARK    7  A    between atoms: C_9  and  C_10
REMARK                            x       y       z     vdW  Elec       q    Type
REMARK                         _______ _______ _______ _____ _____    ______ ____
ROOT
ATOM      1  C   UNL     1      46.935   5.496  13.410  0.00  0.00    +0.000 C 
ENDROOT
BRANCH   1   2
ATOM      2  N   UNL     1      45.615   5.599  12.738  0.00  0.00    +0.000 NA
ATOM      3  C   UNL     1      45.743   5.887  11.301  0.00  0.00    +0.000 C 
ATOM      4  C   UNL     1      44.377   5.961  10.605  0.00  0.00    +0.000 C 
ATOM      5  C   UNL     1      43.527   4.699  10.824  0.00  0.00    +0.000 C 
ATOM      6  C   UNL     1      43.451   4.450  12.336  0.00  0.00    +0.000 C 
ATOM      7  C   UNL     1      44.839   4.372  12.976  0.00  0.00    +0.000 C 
BRANCH   5   8
ATOM      8  N   UNL     1      44.088   3.582  10.041  0.00  0.00    +0.000 NA
ATOM      9  H   UNL     1      43.415   2.819   9.989  0.00  0.00    +0.000 HD
BRANCH   8  10
ATOM     10  C   UNL     1      44.507   3.957   8.693  0.00  0.00    +0.000 C 
BRANCH  10  11
ATOM     11  C   UNL     1      45.550   3.020   8.168  0.00  0.00    +0.000 A 
ATOM     12  C   UNL     1      45.591   1.684   8.520  0.00  0.00    +0.000 A 
ATOM     13  N   UNL     1      46.512   0.811   8.065  0.00  0.00    +0.000 NA
ATOM     14  C   UNL     1      47.418   1.318   7.216  0.00  0.00    +0.000 A 
ATOM     15  N   UNL     1      47.481   2.589   6.793  0.00  0.00    +0.000 NA
ATOM     16  C   UNL     1      46.536   3.416   7.286  0.00  0.00    +0.000 A 
ENDBRANCH  10  11
ENDBRANCH   8  10
ENDBRANCH   5   8
ENDBRANCH   1   2
BRANCH   1  17
ATOM     17  C   UNL     1      47.034   4.588  14.687  0.00  0.00    +0.000 C 
BRANCH  17  18
ATOM     18  C   UNL     1      47.885   5.228  15.774  0.00  0.00    +0.000 A 
ATOM     19  C   UNL     1      48.564   6.422  15.590  0.00  0.00    +0.000 A 
ATOM     20  S   UNL     1      49.595   6.823  16.891  0.00  0.00    +0.000 S 
ATOM     21  C   UNL     1      49.127   5.438  17.763  0.00  0.00    +0.000 A 
ATOM     22  N   UNL     1      49.692   5.135  18.963  0.00  0.00    +0.000 NA
ATOM     23  C   UNL     1      49.208   4.075  19.523  0.00  0.00    +0.000 A 
ATOM     24  N   UNL     1      48.194   3.309  19.008  0.00  0.00    +0.000 N 
ATOM     25  C   UNL     1      47.561   3.604  17.821  0.00  0.00    +0.000 A 
ATOM     26  O   UNL     1      46.575   2.978  17.446  0.00  0.00    +0.000 OA
ATOM     27  C   UNL     1      48.139   4.728  17.107  0.00  0.00    +0.000 A 
ATOM     28  H   UNL     1      47.814   2.537  19.534  0.00  0.00    +0.000 HD
ENDBRANCH  17  18
BRANCH  17  29
ATOM     29  N   UNL     1      47.541   3.244  14.424  0.00  0.00    +0.000 NA
ATOM     30  H   UNL     1      46.941   2.769  13.756  0.00  0.00    +0.000 HD
ATOM     31  H   UNL     1      47.499   2.707  15.296  0.00  0.00    +0.000 HD
ENDBRANCH  17  29
ENDBRANCH   1  17
TORSDOF 7
ENDMDL
MODEL 2
REMARK VINA RESULT:    -7.706      3.971      4.806
REMARK INTER + INTRA:         -11.258
REMARK INTER:                 -10.249
REMARK INTRA:                  -1.009
REMARK UNBOUND:                -0.623
REMARK  Name = 
REMARK  7 active torsions:
REMARK  status: ('A' for Active; 'I' for Inactive)
REMARK    1  A    between atoms: N_1  and  C_2
REMARK    2  A    between atoms: C_2  and  C_3
REMARK    3  A    between atoms: C_2  and  C_18
REMARK    4  A    between atoms: C_3  and  N_4
REMARK    5  A    between atoms: C_7  and  N_8
REMARK    6  A    between atoms: N_8  and  C_9
REMARK    7  A    between atoms: C_9  and  C_10
REMARK                            x       y       z     vdW  Elec       q    Type
REMARK                         _______ _______ _______ _____ _____    ______ ____
ROOT
ATOM      1  C   UNL     1      45.773   7.379  11.653  0.00  0.00    +0.000 C 
ENDROOT
BRANCH   1   2
ATOM      2  N   UNL     1      44.949   6.194  11.999  0.00  0.00    +0.000 NA
ATOM      3  C   UNL     1      43.653   6.194  11.302  0.00  0.00    +0.000 C 
ATOM      4  C   UNL     1      42.818   4.951  11.640  0.00  0.00    +0.000 C 
ATOM      5  C   UNL     1      43.569   3.637  11.373  0.00  0.00    +0.000 C 
ATOM      6  C   UNL     1      44.912   3.714  12.112  0.00  0.00    +0.000 C 
ATOM      7  C   UNL     1      45.708   4.963  11.729  0.00  0.00    +0.000 C 
BRANCH   5   8
ATOM      8  N   UNL     1      43.677   3.415   9.918  0.00  0.00    +0.000 NA
ATOM      9  H   UNL     1      44.126   4.214   9.475  0.00  0.00    +0.000 HD
BRANCH   8  10
ATOM     10  C   UNL     1      44.391   2.192   9.558  0.00  0.00    +0.000 C 
BRANCH  10  11
ATOM     11  C   UNL     1      45.466   2.466   8.552  0.00  0.00    +0.000 A 
ATOM     12  C   UNL     1      46.320   1.481   8.093  0.00  0.00    +0.000 A 
ATOM     13  N   UNL     1      47.295   1.689   7.187  0.00  0.00    +0.000 NA
ATOM     14  C   UNL     1      47.399   2.946   6.729  0.00  0.00    +0.000 A 
ATOM     15  N   UNL     1      46.630   3.985   7.089  0.00  0.00    +0.000 NA
ATOM     16  C   UNL     1      45.675   3.715   8.002  0.00  0.00    +0.000 A 
ENDBRANCH  10  11
ENDBRANCH   8  10
ENDBRANCH   5   8
ENDBRANCH   1   2
BRANCH   1  17
ATOM     17  C   UNL     1      46.347   8.238  12.835  0.00  0.00    +0.000 C 
BRANCH  17  18
ATOM     18  C   UNL     1      47.525   9.094  12.394  0.00  0.00    +0.000 A 
ATOM     19  C   UNL     1      47.439  10.469  12.239  0.00  0.00    +0.000 A 
ATOM     20  S   UNL     1      48.840  11.163  11.553  0.00  0.00    +0.000 S 
ATOM     21  C   UNL     1      49.626   9.655  11.490  0.00  0.00    +0.000 A 
ATOM     22  N   UNL     1      50.863   9.527  10.940  0.00  0.00    +0.000 NA
ATOM     23  C   UNL     1      51.347   8.330  10.998  0.00  0.00    +0.000 A 
ATOM     24  N   UNL     1      50.719   7.258  11.580  0.00  0.00    +0.000 N 
ATOM     25  C   UNL     1      49.488   7.351  12.189  0.00  0.00    +0.000 A 
ATOM     26  O   UNL     1      49.007   6.410  12.812  0.00  0.00    +0.000 OA
ATOM     27  C   UNL     1      48.862   8.654  12.060  0.00  0.00    +0.000 A 
ATOM     28  H   UNL     1      51.187   6.367  11.656  0.00  0.00    +0.000 HD
ENDBRANCH  17  18
BRANCH  17  29
ATOM     29  N   UNL     1      46.746   7.456  14.002  0.00  0.00    +0.000 NA
ATOM     30  H   UNL     1      46.300   6.543  13.979  0.00  0.00    +0.000 HD
ATOM     31  H   UNL     1      46.403   7.933  14.842  0.00  0.00    +0.000 HD
ENDBRANCH  17  29
ENDBRANCH   1  17
TORSDOF 7
ENDMDL
MODEL 3
REMARK VINA RESULT:    -7.575      3.049      4.745
REMARK INTER + INTRA:         -11.077
REMARK INTER:                 -10.196
REMARK INTRA:                  -0.881
REMARK UNBOUND:                -0.623
REMARK  Name = 
REMARK  7 active torsions:
REMARK  status: ('A' for Active; 'I' for Inactive)
REMARK    1  A    between atoms: N_1  and  C_2
REMARK    2  A    between atoms: C_2  and  C_3
REMARK    3  A    between atoms: C_2  and  C_18
REMARK    4  A    between atoms: C_3  and  N_4
REMARK    5  A    between atoms: C_7  and  N_8
REMARK    6  A    between atoms: N_8  and  C_9
REMARK    7  A    between atoms: C_9  and  C_10
REMARK                            x       y       z     vdW  Elec       q    Type
REMARK                         _______ _______ _______ _____ _____    ______ ____
ROOT
ATOM      1  C   UNL     1      47.078   5.218  13.216  0.00  0.00    +0.000 C 
ENDROOT
BRANCH   1   2
ATOM      2  N   UNL     1      45.698   5.211  12.669  0.00  0.00    +0.000 NA
ATOM      3  C   UNL     1      45.663   5.575  11.243  0.00  0.00    +0.000 C 
ATOM      4  C   UNL     1      44.238   5.535  10.675  0.00  0.00    +0.000 C 
ATOM      5  C   UNL     1      43.542   4.183  10.900  0.00  0.00    +0.000 C 
ATOM      6  C   UNL     1      43.633   3.861  12.397  0.00  0.00    +0.000 C 
ATOM      7  C   UNL     1      45.075   3.901  12.908  0.00  0.00    +0.000 C 
BRANCH   5   8
ATOM      8  N   UNL     1      44.138   3.167  10.012  0.00  0.00    +0.000 NA
ATOM      9  H   UNL     1      43.493   2.388   9.889  0.00  0.00    +0.000 HD
BRANCH   8  10
ATOM     10  C   UNL     1      44.533   3.683   8.704  0.00  0.00    +0.000 C 
BRANCH  10  11
ATOM     11  C   UNL     1      45.640   2.869   8.109  0.00  0.00    +0.000 A 
ATOM     12  C   UNL     1      46.587   3.412   7.262  0.00  0.00    +0.000 A 
ATOM     13  N   UNL     1      47.599   2.712   6.712  0.00  0.00    +0.000 NA
ATOM     14  C   UNL     1      47.648   1.413   7.042  0.00  0.00    +0.000 A 
ATOM     15  N   UNL     1      46.795   0.770   7.854  0.00  0.00    +0.000 NA
ATOM     16  C   UNL     1      45.803   1.523   8.371  0.00  0.00    +0.000 A 
ENDBRANCH  10  11
ENDBRANCH   8  10
ENDBRANCH   5   8
ENDBRANCH   1   2
BRANCH   1  17
ATOM     17  C   UNL     1      47.549   6.500  13.991  0.00  0.00    +0.000 C 
BRANCH  17  18
ATOM     18  C   UNL     1      48.199   7.516  13.065  0.00  0.00    +0.000 A 
ATOM     19  C   UNL     1      49.507   7.399  12.620  0.00  0.00    +0.000 A 
ATOM     20  S   UNL     1      50.053   8.764  11.752  0.00  0.00    +0.000 S 
ATOM     21  C   UNL     1      48.541   9.533  11.899  0.00  0.00    +0.000 A 
ATOM     22  N   UNL     1      48.339  10.790  11.420  0.00  0.00    +0.000 NA
ATOM     23  C   UNL     1      47.132  11.226  11.570  0.00  0.00    +0.000 A 
ATOM     24  N   UNL     1      46.104  10.510  12.128  0.00  0.00    +0.000 N 
ATOM     25  C   UNL     1      46.250   9.220  12.583  0.00  0.00    +0.000 A 
ATOM     26  O   UNL     1      45.287   8.559  12.961  0.00  0.00    +0.000 OA
ATOM     27  C   UNL     1      47.613   8.724  12.528  0.00  0.00    +0.000 A 
ATOM     28  H   UNL     1      45.167  10.885  12.146  0.00  0.00    +0.000 HD
ENDBRANCH  17  18
BRANCH  17  29
ATOM     29  N   UNL     1      48.459   6.225  15.100  0.00  0.00    +0.000 NA
ATOM     30  H   UNL     1      49.268   6.838  15.048  0.00  0.00    +0.000 HD
ATOM     31  H   UNL     1      48.807   5.265  15.000  0.00  0.00    +0.000 HD
ENDBRANCH  17  29
ENDBRANCH   1  17
TORSDOF 7
ENDMDL
MODEL 4
REMARK VINA RESULT:    -7.548      1.921      2.353
REMARK INTER + INTRA:         -11.039
REMARK INTER:                 -10.401
REMARK INTRA:                  -0.638
REMARK UNBOUND:                -0.623
REMARK  Name = 
REMARK  7 active torsions:
REMARK  status: ('A' for Active; 'I' for Inactive)
REMARK    1  A    between atoms: N_1  and  C_2
REMARK    2  A    between atoms: C_2  and  C_3
REMARK    3  A    between atoms: C_2  and  C_18
REMARK    4  A    between atoms: C_3  and  N_4
REMARK    5  A    between atoms: C_7  and  N_8
REMARK    6  A    between atoms: N_8  and  C_9
REMARK    7  A    between atoms: C_9  and  C_10
REMARK                            x       y       z     vdW  Elec       q    Type
REMARK                         _______ _______ _______ _____ _____    ______ ____
ROOT
ATOM      1  C   UNL     1      46.208   6.268  13.263  0.00  0.00    +0.000 C 
ENDROOT
BRANCH   1   2
ATOM      2  N   UNL     1      45.112   5.717  12.427  0.00  0.00    +0.000 NA
ATOM      3  C   UNL     1      45.488   5.622  11.008  0.00  0.00    +0.000 C 
ATOM      4  C   UNL     1      44.363   5.022  10.154  0.00  0.00    +0.000 C 
ATOM      5  C   UNL     1      43.881   3.658  10.672  0.00  0.00    +0.000 C 
ATOM      6  C   UNL     1      43.525   3.827  12.155  0.00  0.00    +0.000 C 
ATOM      7  C   UNL     1      44.685   4.415  12.961  0.00  0.00    +0.000 C 
BRANCH   5   8
ATOM      8  N   UNL     1      44.907   2.634  10.397  0.00  0.00    +0.000 NA
ATOM      9  H   UNL     1      44.947   1.963  11.162  0.00  0.00    +0.000 HD
BRANCH   8  10
ATOM     10  C   UNL     1      44.708   1.922   9.136  0.00  0.00    +0.000 C 
BRANCH  10  11
ATOM     11  C   UNL     1      45.889   2.081   8.230  0.00  0.00    +0.000 A 
ATOM     12  C   UNL     1      46.667   1.010   7.832  0.00  0.00    +0.000 A 
ATOM     13  N   UNL     1      47.734   1.114   7.015  0.00  0.00    +0.000 NA
ATOM     14  C   UNL     1      48.014   2.353   6.586  0.00  0.00    +0.000 A 
ATOM     15  N   UNL     1      47.336   3.469   6.893  0.00  0.00    +0.000 NA
ATOM     16  C   UNL     1      46.281   3.302   7.717  0.00  0.00    +0.000 A 
ENDBRANCH  10  11
ENDBRANCH   8  10
ENDBRANCH   5   8
ENDBRANCH   1   2
BRANCH   1  17
ATOM     17  C   UNL     1      47.487   5.381  13.465  0.00  0.00    +0.000 C 
BRANCH  17  18
ATOM     18  C   UNL     1      47.685   4.995  14.924  0.00  0.00    +0.000 A 
ATOM     19  C   UNL     1      47.347   3.747  15.423  0.00  0.00    +0.000 A 
ATOM     20  S   UNL     1      47.488   3.635  17.121  0.00  0.00    +0.000 S 
ATOM     21  C   UNL     1      48.055   5.235  17.236  0.00  0.00    +0.000 A 
ATOM     22  N   UNL     1      48.314   5.808  18.443  0.00  0.00    +0.000 NA
ATOM     23  C   UNL     1      48.775   7.013  18.370  0.00  0.00    +0.000 A 
ATOM     24  N   UNL     1      49.027   7.686  17.202  0.00  0.00    +0.000 N 
ATOM     25  C   UNL     1      48.824   7.131  15.959  0.00  0.00    +0.000 A 
ATOM     26  O   UNL     1      49.176   7.706  14.934  0.00  0.00    +0.000 OA
ATOM     27  C   UNL     1      48.213   5.816  15.991  0.00  0.00    +0.000 A 
ATOM     28  H   UNL     1      49.456   8.599  17.217  0.00  0.00    +0.000 HD
ENDBRANCH  17  18
BRANCH  17  29
ATOM     29  N   UNL     1      48.719   5.989  12.969  0.00  0.00    +0.000 NA
ATOM     30  H   UNL     1      48.508   6.644  12.221  0.00  0.00    +0.000 HD
ATOM     31  H   UNL     1      49.301   5.250  12.562  0.00  0.00    +0.000 HD
ENDBRANCH  17  29
ENDBRANCH   1  17
TORSDOF 7
ENDMDL
MODEL 5
REMARK VINA RESULT:    -7.514      3.258      4.064
REMARK INTER + INTRA:         -10.993
REMARK INTER:                 -10.094
REMARK INTRA:                  -0.899
REMARK UNBOUND:                -0.623
REMARK  Name = 
REMARK  7 active torsions:
REMARK  status: ('A' for Active; 'I' for Inactive)
REMARK    1  A    between atoms: N_1  and  C_2
REMARK    2  A    between atoms: C_2  and  C_3
REMARK    3  A    between atoms: C_2  and  C_18
REMARK    4  A    between atoms: C_3  and  N_4
REMARK    5  A    between atoms: C_7  and  N_8
REMARK    6  A    between atoms: N_8  and  C_9
REMARK    7  A    between atoms: C_9  and  C_10
REMARK                            x       y       z     vdW  Elec       q    Type
REMARK                         _______ _______ _______ _____ _____    ______ ____
ROOT
ATOM      1  C   UNL     1      47.027   6.540  12.144  0.00  0.00    +0.000 C 
ENDROOT
BRANCH   1   2
ATOM      2  N   UNL     1      45.748   5.812  11.948  0.00  0.00    +0.000 NA
ATOM      3  C   UNL     1      45.451   5.581  10.525  0.00  0.00    +0.000 C 
ATOM      4  C   UNL     1      44.144   4.801  10.331  0.00  0.00    +0.000 C 
ATOM      5  C   UNL     1      44.120   3.473  11.105  0.00  0.00    +0.000 C 
ATOM      6  C   UNL     1      44.454   3.786  12.569  0.00  0.00    +0.000 C 
ATOM      7  C   UNL     1      45.772   4.552  12.706  0.00  0.00    +0.000 C 
BRANCH   5   8
ATOM      8  N   UNL     1      45.026   2.506  10.457  0.00  0.00    +0.000 NA
ATOM      9  H   UNL     1      45.075   1.650  11.006  0.00  0.00    +0.000 HD
BRANCH   8  10
ATOM     10  C   UNL     1      44.659   2.182   9.080  0.00  0.00    +0.000 C 
BRANCH  10  11
ATOM     11  C   UNL     1      45.850   2.230   8.174  0.00  0.00    +0.000 A 
ATOM     12  C   UNL     1      46.286   3.402   7.585  0.00  0.00    +0.000 A 
ATOM     13  N   UNL     1      47.355   3.485   6.768  0.00  0.00    +0.000 NA
ATOM     14  C   UNL     1      48.005   2.332   6.550  0.00  0.00    +0.000 A 
ATOM     15  N   UNL     1      47.687   1.135   7.065  0.00  0.00    +0.000 NA
ATOM     16  C   UNL     1      46.606   1.115   7.871  0.00  0.00    +0.000 A 
ENDBRANCH  10  11
ENDBRANCH   8  10
ENDBRANCH   5   8
ENDBRANCH   1   2
BRANCH   1  17
ATOM     17  C   UNL     1      46.955   8.089  12.390  0.00  0.00    +0.000 C 
BRANCH  17  18
ATOM     18  C   UNL     1      48.334   8.729  12.386  0.00  0.00    +0.000 A 
ATOM     19  C   UNL     1      48.703   9.713  11.481  0.00  0.00    +0.000 A 
ATOM     20  S   UNL     1      50.358  10.125  11.565  0.00  0.00    +0.000 S 
ATOM     21  C   UNL     1      50.623   9.038  12.847  0.00  0.00    +0.000 A 
ATOM     22  N   UNL     1      51.866   8.846  13.365  0.00  0.00    +0.000 NA
ATOM     23  C   UNL     1      51.904   8.021  14.359  0.00  0.00    +0.000 A 
ATOM     24  N   UNL     1      50.811   7.393  14.899  0.00  0.00    +0.000 N 
ATOM     25  C   UNL     1      49.529   7.592  14.438  0.00  0.00    +0.000 A 
ATOM     26  O   UNL     1      48.557   7.119  15.018  0.00  0.00    +0.000 OA
ATOM     27  C   UNL     1      49.449   8.434  13.258  0.00  0.00    +0.000 A 
ATOM     28  H   UNL     1      50.903   6.817  15.723  0.00  0.00    +0.000 HD
ENDBRANCH  17  18
BRANCH  17  29
ATOM     29  N   UNL     1      46.266   8.464  13.623  0.00  0.00    +0.000 NA
ATOM     30  H   UNL     1      46.741   8.059  14.425  0.00  0.00    +0.000 HD
ATOM     31  H   UNL     1      45.324   8.061  13.600  0.00  0.00    +0.000 HD
ENDBRANCH  17  29
ENDBRANCH   1  17
TORSDOF 7
ENDMDL
MODEL 6
REMARK VINA RESULT:    -7.324      3.549      4.569
REMARK INTER + INTRA:         -10.731
REMARK INTER:                  -9.920
REMARK INTRA:                  -0.811
REMARK UNBOUND:                -0.623
REMARK  Name = 
REMARK  7 active torsions:
REMARK  status: ('A' for Active; 'I' for Inactive)
REMARK    1  A    between atoms: N_1  and  C_2
REMARK    2  A    between atoms: C_2  and  C_3
REMARK    3  A    between atoms: C_2  and  C_18
REMARK    4  A    between atoms: C_3  and  N_4
REMARK    5  A    between atoms: C_7  and  N_8
REMARK    6  A    between atoms: N_8  and  C_9
REMARK    7  A    between atoms: C_9  and  C_10
REMARK                            x       y       z     vdW  Elec       q    Type
REMARK                         _______ _______ _______ _____ _____    ______ ____
ROOT
ATOM      1  C   UNL     1      45.674   6.004  13.325  0.00  0.00    +0.000 C 
ENDROOT
BRANCH   1   2
ATOM      2  N   UNL     1      44.649   5.313  12.503  0.00  0.00    +0.000 NA
ATOM      3  C   UNL     1      44.955   5.373  11.065  0.00  0.00    +0.000 C 
ATOM      4  C   UNL     1      43.909   4.630  10.223  0.00  0.00    +0.000 C 
ATOM      5  C   UNL     1      43.711   3.172  10.668  0.00  0.00    +0.000 C 
ATOM      6  C   UNL     1      43.415   3.184  12.173  0.00  0.00    +0.000 C 
ATOM      7  C   UNL     1      44.494   3.925  12.965  0.00  0.00    +0.000 C 
BRANCH   5   8
ATOM      8  N   UNL     1      44.887   2.371  10.276  0.00  0.00    +0.000 NA
ATOM      9  H   UNL     1      45.082   1.666  10.984  0.00  0.00    +0.000 HD
BRANCH   8  10
ATOM     10  C   UNL     1      44.756   1.728   8.970  0.00  0.00    +0.000 C 
BRANCH  10  11
ATOM     11  C   UNL     1      45.945   2.006   8.105  0.00  0.00    +0.000 A 
ATOM     12  C   UNL     1      46.242   3.273   7.639  0.00  0.00    +0.000 A 
ATOM     13  N   UNL     1      47.305   3.562   6.862  0.00  0.00    +0.000 NA
ATOM     14  C   UNL     1      48.095   2.523   6.555  0.00  0.00    +0.000 A 
ATOM     15  N   UNL     1      47.919   1.253   6.948  0.00  0.00    +0.000 NA
ATOM     16  C   UNL     1      46.837   1.025   7.720  0.00  0.00    +0.000 A 
ENDBRANCH  10  11
ENDBRANCH   8  10
ENDBRANCH   5   8
ENDBRANCH   1   2
BRANCH   1  17
ATOM     17  C   UNL     1      46.175   7.409  12.835  0.00  0.00    +0.000 C 
BRANCH  17  18
ATOM     18  C   UNL     1      47.565   7.732  13.363  0.00  0.00    +0.000 A 
ATOM     19  C   UNL     1      48.323   6.824  14.087  0.00  0.00    +0.000 A 
ATOM     20  S   UNL     1      49.757   7.495  14.726  0.00  0.00    +0.000 S 
ATOM     21  C   UNL     1      49.436   9.006  14.011  0.00  0.00    +0.000 A 
ATOM     22  N   UNL     1      50.255  10.073  14.216  0.00  0.00    +0.000 NA
ATOM     23  C   UNL     1      49.904  11.140  13.578  0.00  0.00    +0.000 A 
ATOM     24  N   UNL     1      48.828  11.230  12.732  0.00  0.00    +0.000 N 
ATOM     25  C   UNL     1      48.001  10.165  12.458  0.00  0.00    +0.000 A 
ATOM     26  O   UNL     1      47.124  10.237  11.602  0.00  0.00    +0.000 OA
ATOM     27  C   UNL     1      48.296   8.972  13.230  0.00  0.00    +0.000 A 
ATOM     28  H   UNL     1      48.655  12.075  12.208  0.00  0.00    +0.000 HD
ENDBRANCH  17  18
BRANCH  17  29
ATOM     29  N   UNL     1      45.278   8.512  13.170  0.00  0.00    +0.000 NA
ATOM     30  H   UNL     1      45.653   9.042  13.952  0.00  0.00    +0.000 HD
ATOM     31  H   UNL     1      44.385   8.117  13.481  0.00  0.00    +0.000 HD
ENDBRANCH  17  29
ENDBRANCH   1  17
TORSDOF 7
ENDMDL
MODEL 7
REMARK VINA RESULT:    -7.024      3.075      8.106
REMARK INTER + INTRA:         -10.317
REMARK INTER:                  -9.393
REMARK INTRA:                  -0.924
REMARK UNBOUND:                -0.623
REMARK  Name = 
REMARK  7 active torsions:
REMARK  status: ('A' for Active; 'I' for Inactive)
REMARK    1  A    between atoms: N_1  and  C_2
REMARK    2  A    between atoms: C_2  and  C_3
REMARK    3  A    between atoms: C_2  and  C_18
REMARK    4  A    between atoms: C_3  and  N_4
REMARK    5  A    between atoms: C_7  and  N_8
REMARK    6  A    between atoms: N_8  and  C_9
REMARK    7  A    between atoms: C_9  and  C_10
REMARK                            x       y       z     vdW  Elec       q    Type
REMARK                         _______ _______ _______ _____ _____    ______ ____
ROOT
ATOM      1  C   UNL     1      46.927   6.628  11.602  0.00  0.00    +0.000 C 
ENDROOT
BRANCH   1   2
ATOM      2  N   UNL     1      47.760   7.465  12.503  0.00  0.00    +0.000 NA
ATOM      3  C   UNL     1      46.947   8.243  13.451  0.00  0.00    +0.000 C 
ATOM      4  C   UNL     1      47.815   9.081  14.399  0.00  0.00    +0.000 C 
ATOM      5  C   UNL     1      48.858   8.241  15.153  0.00  0.00    +0.000 C 
ATOM      6  C   UNL     1      49.653   7.446  14.108  0.00  0.00    +0.000 C 
ATOM      7  C   UNL     1      48.742   6.620  13.200  0.00  0.00    +0.000 C 
BRANCH   5   8
ATOM      8  N   UNL     1      48.186   7.418  16.175  0.00  0.00    +0.000 NA
ATOM      9  H   UNL     1      47.522   6.784  15.733  0.00  0.00    +0.000 HD
BRANCH   8  10
ATOM     10  C   UNL     1      49.104   6.653  17.016  0.00  0.00    +0.000 C 
BRANCH  10  11
ATOM     11  C   UNL     1      48.872   5.181  16.875  0.00  0.00    +0.000 A 
ATOM     12  C   UNL     1      49.789   4.242  17.308  0.00  0.00    +0.000 A 
ATOM     13  N   UNL     1      49.613   2.909  17.201  0.00  0.00    +0.000 NA
ATOM     14  C   UNL     1      48.459   2.523  16.639  0.00  0.00    +0.000 A 
ATOM     15  N   UNL     1      47.489   3.332  16.187  0.00  0.00    +0.000 NA
ATOM     16  C   UNL     1      47.724   4.654  16.318  0.00  0.00    +0.000 A 
ENDBRANCH  10  11
ENDBRANCH   8  10
ENDBRANCH   5   8
ENDBRANCH   1   2
BRANCH   1  17
ATOM     17  C   UNL     1      45.369   6.681  11.792  0.00  0.00    +0.000 C 
BRANCH  17  18
ATOM     18  C   UNL     1      44.726   5.317  11.592  0.00  0.00    +0.000 A 
ATOM     19  C   UNL     1      43.899   4.730  12.537  0.00  0.00    +0.000 A 
ATOM     20  S   UNL     1      43.466   3.123  12.153  0.00  0.00    +0.000 S 
ATOM     21  C   UNL     1      44.328   3.180  10.687  0.00  0.00    +0.000 A 
ATOM     22  N   UNL     1      44.423   2.088   9.881  0.00  0.00    +0.000 NA
ATOM     23  C   UNL     1      45.076   2.294   8.785  0.00  0.00    +0.000 A 
ATOM     24  N   UNL     1      45.617   3.497   8.409  0.00  0.00    +0.000 N 
ATOM     25  C   UNL     1      45.505   4.639   9.170  0.00  0.00    +0.000 A 
ATOM     26  O   UNL     1      45.887   5.728   8.753  0.00  0.00    +0.000 OA
ATOM     27  C   UNL     1      44.867   4.432  10.457  0.00  0.00    +0.000 A 
ATOM     28  H   UNL     1      46.050   3.606   7.505  0.00  0.00    +0.000 HD
ENDBRANCH  17  18
BRANCH  17  29
ATOM     29  N   UNL     1      44.696   7.649  10.930  0.00  0.00    +0.000 NA
ATOM     30  H   UNL     1      45.172   7.708  10.034  0.00  0.00    +0.000 HD
ATOM     31  H   UNL     1      44.768   8.574  11.367  0.00  0.00    +0.000 HD
ENDBRANCH  17  29
ENDBRANCH   1  17
TORSDOF 7
ENDMDL
MODEL 8
REMARK VINA RESULT:    -6.982      3.089      7.767
REMARK INTER + INTRA:         -10.259
REMARK INTER:                  -9.219
REMARK INTRA:                  -1.040
REMARK UNBOUND:                -0.623
REMARK  Name = 
REMARK  7 active torsions:
REMARK  status: ('A' for Active; 'I' for Inactive)
REMARK    1  A    between atoms: N_1  and  C_2
REMARK    2  A    between atoms: C_2  and  C_3
REMARK    3  A    between atoms: C_2  and  C_18
REMARK    4  A    between atoms: C_3  and  N_4
REMARK    5  A    between atoms: C_7  and  N_8
REMARK    6  A    between atoms: N_8  and  C_9
REMARK    7  A    between atoms: C_9  and  C_10
REMARK                            x       y       z     vdW  Elec       q    Type
REMARK                         _______ _______ _______ _____ _____    ______ ____
ROOT
ATOM      1  C   UNL     1      47.353   7.756  12.067  0.00  0.00    +0.000 C 
ENDROOT
BRANCH   1   2
ATOM      2  N   UNL     1      48.328   8.067  13.143  0.00  0.00    +0.000 NA
ATOM      3  C   UNL     1      47.789   9.022  14.124  0.00  0.00    +0.000 C 
ATOM      4  C   UNL     1      48.789   9.315  15.251  0.00  0.00    +0.000 C 
ATOM      5  C   UNL     1      49.282   8.042  15.958  0.00  0.00    +0.000 C 
ATOM      6  C   UNL     1      49.811   7.089  14.878  0.00  0.00    +0.000 C 
ATOM      7  C   UNL     1      48.771   6.821  13.789  0.00  0.00    +0.000 C 
BRANCH   5   8
ATOM      8  N   UNL     1      48.199   7.490  16.793  0.00  0.00    +0.000 NA
ATOM      9  H   UNL     1      47.527   6.992  16.211  0.00  0.00    +0.000 HD
BRANCH   8  10
ATOM     10  C   UNL     1      48.666   6.607  17.860  0.00  0.00    +0.000 C 
BRANCH  10  11
ATOM     11  C   UNL     1      48.576   5.169  17.455  0.00  0.00    +0.000 A 
ATOM     12  C   UNL     1      47.387   4.582  17.066  0.00  0.00    +0.000 A 
ATOM     13  N   UNL     1      47.267   3.293  16.692  0.00  0.00    +0.000 NA
ATOM     14  C   UNL     1      48.403   2.580  16.709  0.00  0.00    +0.000 A 
ATOM     15  N   UNL     1      49.616   3.032  17.059  0.00  0.00    +0.000 NA
ATOM     16  C   UNL     1      49.671   4.329  17.427  0.00  0.00    +0.000 A 
ENDBRANCH  10  11
ENDBRANCH   8  10
ENDBRANCH   5   8
ENDBRANCH   1   2
BRANCH   1  17
ATOM     17  C   UNL     1      46.042   6.992  12.470  0.00  0.00    +0.000 C 
BRANCH  17  18
ATOM     18  C   UNL     1      45.685   5.909  11.463  0.00  0.00    +0.000 A 
ATOM     19  C   UNL     1      46.001   6.002  10.116  0.00  0.00    +0.000 A 
ATOM     20  S   UNL     1      45.322   4.751   9.172  0.00  0.00    +0.000 S 
ATOM     21  C   UNL     1      44.627   4.017  10.542  0.00  0.00    +0.000 A 
ATOM     22  N   UNL     1      43.840   2.913  10.429  0.00  0.00    +0.000 NA
ATOM     23  C   UNL     1      43.416   2.448  11.557  0.00  0.00    +0.000 A 
ATOM     24  N   UNL     1      43.730   2.967  12.787  0.00  0.00    +0.000 N 
ATOM     25  C   UNL     1      44.559   4.053  12.953  0.00  0.00    +0.000 A 
ATOM     26  O   UNL     1      44.924   4.419  14.065  0.00  0.00    +0.000 OA
ATOM     27  C   UNL     1      44.978   4.671  11.708  0.00  0.00    +0.000 A 
ATOM     28  H   UNL     1      43.424   2.508  13.632  0.00  0.00    +0.000 HD
ENDBRANCH  17  18
BRANCH  17  29
ATOM     29  N   UNL     1      44.882   7.858  12.659  0.00  0.00    +0.000 NA
ATOM     30  H   UNL     1      44.172   7.377  13.204  0.00  0.00    +0.000 HD
ATOM     31  H   UNL     1      44.471   8.051  11.740  0.00  0.00    +0.000 HD
ENDBRANCH  17  29
ENDBRANCH   1  17
TORSDOF 7
ENDMDL
MODEL 9
REMARK VINA RESULT:    -6.946      2.086      2.756
REMARK INTER + INTRA:         -10.209
REMARK INTER:                  -9.434
REMARK INTRA:                  -0.776
REMARK UNBOUND:                -0.623
REMARK  Name = 
REMARK  7 active torsions:
REMARK  status: ('A' for Active; 'I' for Inactive)
REMARK    1  A    between atoms: N_1  and  C_2
REMARK    2  A    between atoms: C_2  and  C_3
REMARK    3  A    between atoms: C_2  and  C_18
REMARK    4  A    between atoms: C_3  and  N_4
REMARK    5  A    between atoms: C_7  and  N_8
REMARK    6  A    between atoms: N_8  and  C_9
REMARK    7  A    between atoms: C_9  and  C_10
REMARK                            x       y       z     vdW  Elec       q    Type
REMARK                         _______ _______ _______ _____ _____    ______ ____
ROOT
ATOM      1  C   UNL     1      47.969   6.531  13.443  0.00  0.00    +0.000 C 
ENDROOT
BRANCH   1   2
ATOM      2  N   UNL     1      46.560   6.412  12.990  0.00  0.00    +0.000 NA
ATOM      3  C   UNL     1      46.429   6.562  11.532  0.00  0.00    +0.000 C 
ATOM      4  C   UNL     1      44.975   6.407  11.067  0.00  0.00    +0.000 C 
ATOM      5  C   UNL     1      44.338   5.087  11.528  0.00  0.00    +0.000 C 
ATOM      6  C   UNL     1      44.527   4.989  13.048  0.00  0.00    +0.000 C 
ATOM      7  C   UNL     1      45.994   5.137  13.455  0.00  0.00    +0.000 C 
BRANCH   5   8
ATOM      8  N   UNL     1      44.913   3.965  10.761  0.00  0.00    +0.000 NA
ATOM      9  H   UNL     1      44.616   3.078  11.163  0.00  0.00    +0.000 HD
BRANCH   8  10
ATOM     10  C   UNL     1      44.582   3.991   9.338  0.00  0.00    +0.000 C 
BRANCH  10  11
ATOM     11  C   UNL     1      45.496   3.105   8.551  0.00  0.00    +0.000 A 
ATOM     12  C   UNL     1      46.339   3.594   7.571  0.00  0.00    +0.000 A 
ATOM     13  N   UNL     1      47.178   2.828   6.845  0.00  0.00    +0.000 NA
ATOM     14  C   UNL     1      47.159   1.518   7.134  0.00  0.00    +0.000 A 
ATOM     15  N   UNL     1      46.395   0.924   8.062  0.00  0.00    +0.000 NA
ATOM     16  C   UNL     1      45.574   1.741   8.753  0.00  0.00    +0.000 A 
ENDBRANCH  10  11
ENDBRANCH   8  10
ENDBRANCH   5   8
ENDBRANCH   1   2
BRANCH   1  17
ATOM     17  C   UNL     1      48.442   7.922  13.996  0.00  0.00    +0.000 C 
BRANCH  17  18
ATOM     18  C   UNL     1      49.843   7.852  14.585  0.00  0.00    +0.000 A 
ATOM     19  C   UNL     1      50.899   8.611  14.106  0.00  0.00    +0.000 A 
ATOM     20  S   UNL     1      52.401   8.205  14.810  0.00  0.00    +0.000 S 
ATOM     21  C   UNL     1      51.678   7.038  15.815  0.00  0.00    +0.000 A 
ATOM     22  N   UNL     1      52.426   6.260  16.644  0.00  0.00    +0.000 NA
ATOM     23  C   UNL     1      51.735   5.447  17.373  0.00  0.00    +0.000 A 
ATOM     24  N   UNL     1      50.366   5.361  17.371  0.00  0.00    +0.000 N 
ATOM     25  C   UNL     1      49.567   6.160  16.584  0.00  0.00    +0.000 A 
ATOM     26  O   UNL     1      48.345   6.152  16.692  0.00  0.00    +0.000 OA
ATOM     27  C   UNL     1      50.303   7.018  15.674  0.00  0.00    +0.000 A 
ATOM     28  H   UNL     1      49.887   4.755  18.020  0.00  0.00    +0.000 HD
ENDBRANCH  17  18
BRANCH  17  29
ATOM     29  N   UNL     1      47.544   8.506  14.989  0.00  0.00    +0.000 NA
ATOM     30  H   UNL     1      48.001   8.542  15.895  0.00  0.00    +0.000 HD
ATOM     31  H   UNL     1      46.732   7.889  15.090  0.00  0.00    +0.000 HD
ENDBRANCH  17  29
ENDBRANCH   1  17
TORSDOF 7
ENDMDL
