MODEL 1
REMARK VINA RESULT:    -7.781      0.000      0.000
REMARK INTER + INTRA:         -10.078
REMARK INTER:                  -9.827
REMARK INTRA:                  -0.251
REMARK UNBOUND:                -0.251
REMARK  Name = 
REMARK  5 active torsions:
REMARK  status: ('A' for Active; 'I' for Inactive)
REMARK    1  A    between atoms: N_1  and  C_2
REMARK    2  A    between atoms: C_2  and  C_3
REMARK    3  A    between atoms: C_5  and  C_6
REMARK    4  A    between atoms: C_6  and  N_7
REMARK    5  A    between atoms: C_12  and  C_13
REMARK                            x       y       z     vdW  Elec       q    Type
REMARK                         _______ _______ _______ _____ _____    ______ ____
ROOT
ATOM      1  N   UNL     1      44.185   4.327  10.297  0.00  0.00    +0.000 N 
ATOM      2  C   UNL     1      43.628   3.186  10.829  0.00  0.00    +0.000 A 
ATOM      3  C   UNL     1      44.241   2.099  10.253  0.00  0.00    +0.000 A 
ATOM      4  C   UNL     1      45.125   2.587   9.264  0.00  0.00    +0.000 A 
ATOM      5  C   UNL     1      45.957   1.973   8.320  0.00  0.00    +0.000 A 
ATOM      6  C   UNL     1      46.657   2.792   7.443  0.00  0.00    +0.000 A 
ATOM      7  C   UNL     1      46.548   4.176   7.591  0.00  0.00    +0.000 A 
ATOM      8  N   UNL     1      45.773   4.826   8.512  0.00  0.00    +0.000 NA
ATOM      9  C   UNL     1      45.079   3.985   9.303  0.00  0.00    +0.000 A 
ENDROOT
BRANCH   6  10
ATOM     10  C   UNL     1      47.507   2.218   6.379  0.00  0.00    +0.000 C 
ATOM     11  N   UNL     1      47.792   3.002   5.295  0.00  0.00    +0.000 N 
ATOM     12  O   UNL     1      47.962   1.083   6.474  0.00  0.00    +0.000 OA
ATOM     13  H   UNL     1      47.556   3.984   5.223  0.00  0.00    +0.000 HD
ATOM     14  H   UNL     1      48.423   2.622   4.601  0.00  0.00    +0.000 HD
ENDBRANCH   6  10
BRANCH   1  15
ATOM     15  C   UNL     1      43.897   5.670  10.773  0.00  0.00    +0.000 C 
BRANCH  15  18
ATOM     16  C   UNL     1      46.268   5.639  13.685  0.00  0.00    +0.000 C 
ATOM     17  C   UNL     1      45.063   5.071  12.949  0.00  0.00    +0.000 C 
ATOM     18  C   UNL     1      44.805   6.139  11.905  0.00  0.00    +0.000 C 
ATOM     19  C   UNL     1      46.228   6.500  11.508  0.00  0.00    +0.000 C 
ATOM     20  O   UNL     1      47.026   6.382  12.706  0.00  0.00    +0.000 OA
BRANCH  16  21
ATOM     21  C   UNL     1      47.132   4.568  14.368  0.00  0.00    +0.000 C 
BRANCH  21  22
ATOM     22  N   UNL     1      47.001   3.258  13.723  0.00  0.00    +0.000 NA
ATOM     23  H   UNL     1      46.114   2.834  13.984  0.00  0.00    +0.000 HD
ATOM     24  H   UNL     1      47.735   2.656  14.106  0.00  0.00    +0.000 HD
ENDBRANCH  21  22
ENDBRANCH  16  21
ENDBRANCH  15  18
ENDBRANCH   1  15
TORSDOF 5
ENDMDL
MODEL 2
REMARK VINA RESULT:    -7.684      1.753      6.067
REMARK INTER + INTRA:          -9.956
REMARK INTER:                  -9.834
REMARK INTRA:                  -0.123
REMARK UNBOUND:                -0.251
REMARK  Name = 
REMARK  5 active torsions:
REMARK  status: ('A' for Active; 'I' for Inactive)
REMARK    1  A    between atoms: N_1  and  C_2
REMARK    2  A    between atoms: C_2  and  C_3
REMARK    3  A    between atoms: C_5  and  C_6
REMARK    4  A    between atoms: C_6  and  N_7
REMARK    5  A    between atoms: C_12  and  C_13
REMARK                            x       y       z     vdW  Elec       q    Type
REMARK                         _______ _______ _______ _____ _____    ______ ____
ROOT
ATOM      1  N   UNL     1      44.398   4.251  10.624  0.00  0.00    +0.000 N 
ATOM      2  C   UNL     1      43.787   3.380  11.498  0.00  0.00    +0.000 A 
ATOM      3  C   UNL     1      44.225   3.667  12.768  0.00  0.00    +0.000 A 
ATOM      4  C   UNL     1      45.212   4.673  12.659  0.00  0.00    +0.000 A 
ATOM      5  C   UNL     1      46.050   5.311  13.580  0.00  0.00    +0.000 A 
ATOM      6  C   UNL     1      46.968   6.234  13.090  0.00  0.00    +0.000 A 
ATOM      7  C   UNL     1      46.958   6.524  11.724  0.00  0.00    +0.000 A 
ATOM      8  N   UNL     1      46.143   5.950  10.788  0.00  0.00    +0.000 NA
ATOM      9  C   UNL     1      45.309   5.029  11.308  0.00  0.00    +0.000 A 
ENDROOT
BRANCH   6  10
ATOM     10  C   UNL     1      47.928   6.904  13.991  0.00  0.00    +0.000 C 
ATOM     11  N   UNL     1      47.543   8.077  14.578  0.00  0.00    +0.000 N 
ATOM     12  O   UNL     1      49.028   6.413  14.225  0.00  0.00    +0.000 OA
ATOM     13  H   UNL     1      46.607   8.461  14.528  0.00  0.00    +0.000 HD
ATOM     14  H   UNL     1      48.184   8.498  15.240  0.00  0.00    +0.000 HD
ENDBRANCH   6  10
BRANCH   1  15
ATOM     15  C   UNL     1      44.068   4.352   9.212  0.00  0.00    +0.000 C 
BRANCH  15  18
ATOM     16  C   UNL     1      46.531   2.432   7.125  0.00  0.00    +0.000 C 
ATOM     17  C   UNL     1      45.881   3.744   7.537  0.00  0.00    +0.000 C 
ATOM     18  C   UNL     1      44.693   3.262   8.346  0.00  0.00    +0.000 C 
ATOM     19  C   UNL     1      45.314   2.093   9.097  0.00  0.00    +0.000 C 
ATOM     20  O   UNL     1      46.276   1.499   8.199  0.00  0.00    +0.000 OA
BRANCH  16  21
ATOM     21  C   UNL     1      48.035   2.555   6.834  0.00  0.00    +0.000 C 
BRANCH  21  22
ATOM     22  N   UNL     1      48.433   1.789   5.650  0.00  0.00    +0.000 NA
ATOM     23  H   UNL     1      47.987   0.875   5.665  0.00  0.00    +0.000 HD
ATOM     24  H   UNL     1      49.440   1.623   5.720  0.00  0.00    +0.000 HD
ENDBRANCH  21  22
ENDBRANCH  16  21
ENDBRANCH  15  18
ENDBRANCH   1  15
TORSDOF 5
ENDMDL
MODEL 3
REMARK VINA RESULT:    -7.465      1.426      1.589
REMARK INTER + INTRA:          -9.679
REMARK INTER:                  -9.317
REMARK INTRA:                  -0.363
REMARK UNBOUND:                -0.251
REMARK  Name = 
REMARK  5 active torsions:
REMARK  status: ('A' for Active; 'I' for Inactive)
REMARK    1  A    between atoms: N_1  and  C_2
REMARK    2  A    between atoms: C_2  and  C_3
REMARK    3  A    between atoms: C_5  and  C_6
REMARK    4  A    between atoms: C_6  and  N_7
REMARK    5  A    between atoms: C_12  and  C_13
REMARK                            x       y       z     vdW  Elec       q    Type
REMARK                         _______ _______ _______ _____ _____    ______ ____
ROOT
ATOM      1  N   UNL     1      44.143   4.567  10.377  0.00  0.00    +0.000 N 
ATOM      2  C   UNL     1      43.559   3.522  11.056  0.00  0.00    +0.000 A 
ATOM      3  C   UNL     1      44.097   2.349  10.585  0.00  0.00    +0.000 A 
ATOM      4  C   UNL     1      44.960   2.678   9.515  0.00  0.00    +0.000 A 
ATOM      5  C   UNL     1      45.722   1.921   8.618  0.00  0.00    +0.000 A 
ATOM      6  C   UNL     1      46.421   2.602   7.627  0.00  0.00    +0.000 A 
ATOM      7  C   UNL     1      46.380   3.998   7.620  0.00  0.00    +0.000 A 
ATOM      8  N   UNL     1      45.675   4.783   8.489  0.00  0.00    +0.000 NA
ATOM      9  C   UNL     1      44.978   4.073   9.396  0.00  0.00    +0.000 A 
ENDROOT
BRANCH   6  10
ATOM     10  C   UNL     1      47.198   1.871   6.605  0.00  0.00    +0.000 C 
ATOM     11  N   UNL     1      47.980   2.601   5.753  0.00  0.00    +0.000 N 
ATOM     12  O   UNL     1      47.163   0.647   6.536  0.00  0.00    +0.000 OA
ATOM     13  H   UNL     1      48.151   3.595   5.845  0.00  0.00    +0.000 HD
ATOM     14  H   UNL     1      48.555   2.088   5.095  0.00  0.00    +0.000 HD
ENDBRANCH   6  10
BRANCH   1  15
ATOM     15  C   UNL     1      43.936   5.968  10.707  0.00  0.00    +0.000 C 
BRANCH  15  18
ATOM     16  C   UNL     1      46.972   7.074  12.620  0.00  0.00    +0.000 C 
ATOM     17  C   UNL     1      46.293   6.126  11.643  0.00  0.00    +0.000 C 
ATOM     18  C   UNL     1      44.832   6.484  11.829  0.00  0.00    +0.000 C 
ATOM     19  C   UNL     1      44.923   7.996  11.963  0.00  0.00    +0.000 C 
ATOM     20  O   UNL     1      46.160   8.269  12.656  0.00  0.00    +0.000 OA
BRANCH  16  21
ATOM     21  C   UNL     1      48.428   7.398  12.251  0.00  0.00    +0.000 C 
BRANCH  21  22
ATOM     22  N   UNL     1      49.384   6.571  12.993  0.00  0.00    +0.000 NA
ATOM     23  H   UNL     1      50.022   7.167  13.515  0.00  0.00    +0.000 HD
ATOM     24  H   UNL     1      49.951   6.070  12.305  0.00  0.00    +0.000 HD
ENDBRANCH  21  22
ENDBRANCH  16  21
ENDBRANCH  15  18
ENDBRANCH   1  15
TORSDOF 5
ENDMDL
MODEL 4
REMARK VINA RESULT:    -6.371      3.491      5.603
REMARK INTER + INTRA:          -8.298
REMARK INTER:                  -7.873
REMARK INTRA:                  -0.425
REMARK UNBOUND:                -0.251
REMARK  Name = 
REMARK  5 active torsions:
REMARK  status: ('A' for Active; 'I' for Inactive)
REMARK    1  A    between atoms: N_1  and  C_2
REMARK    2  A    between atoms: C_2  and  C_3
REMARK    3  A    between atoms: C_5  and  C_6
REMARK    4  A    between atoms: C_6  and  N_7
REMARK    5  A    between atoms: C_12  and  C_13
REMARK                            x       y       z     vdW  Elec       q    Type
REMARK                         _______ _______ _______ _____ _____    ______ ____
ROOT
ATOM      1  N   UNL     1      47.181   4.948  14.468  0.00  0.00    +0.000 N 
ATOM      2  C   UNL     1      47.613   6.225  14.190  0.00  0.00    +0.000 A 
ATOM      3  C   UNL     1      47.042   6.624  13.006  0.00  0.00    +0.000 A 
ATOM      4  C   UNL     1      46.321   5.522  12.491  0.00  0.00    +0.000 A 
ATOM      5  C   UNL     1      45.603   5.301  11.310  0.00  0.00    +0.000 A 
ATOM      6  C   UNL     1      45.062   4.036  11.107  0.00  0.00    +0.000 A 
ATOM      7  C   UNL     1      45.206   3.080  12.115  0.00  0.00    +0.000 A 
ATOM      8  N   UNL     1      45.873   3.253  13.296  0.00  0.00    +0.000 NA
ATOM      9  C   UNL     1      46.418   4.479  13.419  0.00  0.00    +0.000 A 
ENDROOT
BRANCH   6  10
ATOM     10  C   UNL     1      44.344   3.707   9.859  0.00  0.00    +0.000 C 
ATOM     11  N   UNL     1      43.850   4.742   9.114  0.00  0.00    +0.000 N 
ATOM     12  O   UNL     1      44.213   2.545   9.490  0.00  0.00    +0.000 OA
ATOM     13  H   UNL     1      44.040   5.719   9.297  0.00  0.00    +0.000 HD
ATOM     14  H   UNL     1      43.412   4.510   8.230  0.00  0.00    +0.000 HD
ENDBRANCH   6  10
BRANCH   1  15
ATOM     15  C   UNL     1      47.454   4.250  15.714  0.00  0.00    +0.000 C 
BRANCH  15  18
ATOM     16  C   UNL     1      48.439   5.677  19.046  0.00  0.00    +0.000 C 
ATOM     17  C   UNL     1      47.385   5.120  18.101  0.00  0.00    +0.000 C 
ATOM     18  C   UNL     1      48.125   5.113  16.779  0.00  0.00    +0.000 C 
ATOM     19  C   UNL     1      49.506   4.660  17.226  0.00  0.00    +0.000 C 
ATOM     20  O   UNL     1      49.715   5.229  18.537  0.00  0.00    +0.000 OA
BRANCH  16  21
ATOM     21  C   UNL     1      48.240   5.252  20.509  0.00  0.00    +0.000 C 
BRANCH  21  22
ATOM     22  N   UNL     1      48.427   3.810  20.697  0.00  0.00    +0.000 NA
ATOM     23  H   UNL     1      47.602   3.412  21.139  0.00  0.00    +0.000 HD
ATOM     24  H   UNL     1      49.199   3.687  21.356  0.00  0.00    +0.000 HD
ENDBRANCH  21  22
ENDBRANCH  16  21
ENDBRANCH  15  18
ENDBRANCH   1  15
TORSDOF 5
ENDMDL
MODEL 5
REMARK VINA RESULT:    -6.231      2.613      6.153
REMARK INTER + INTRA:          -8.122
REMARK INTER:                  -7.882
REMARK INTRA:                  -0.239
REMARK UNBOUND:                -0.251
REMARK  Name = 
REMARK  5 active torsions:
REMARK  status: ('A' for Active; 'I' for Inactive)
REMARK    1  A    between atoms: N_1  and  C_2
REMARK    2  A    between atoms: C_2  and  C_3
REMARK    3  A    between atoms: C_5  and  C_6
REMARK    4  A    between atoms: C_6  and  N_7
REMARK    5  A    between atoms: C_12  and  C_13
REMARK                            x       y       z     vdW  Elec       q    Type
REMARK                         _______ _______ _______ _____ _____    ______ ____
ROOT
ATOM      1  N   UNL     1      45.222   5.012  12.165  0.00  0.00    +0.000 N 
ATOM      2  C   UNL     1      45.574   3.883  12.869  0.00  0.00    +0.000 A 
ATOM      3  C   UNL     1      46.707   4.163  13.593  0.00  0.00    +0.000 A 
ATOM      4  C   UNL     1      47.121   5.469  13.244  0.00  0.00    +0.000 A 
ATOM      5  C   UNL     1      48.221   6.262  13.591  0.00  0.00    +0.000 A 
ATOM      6  C   UNL     1      48.338   7.508  12.987  0.00  0.00    +0.000 A 
ATOM      7  C   UNL     1      47.325   7.929  12.123  0.00  0.00    +0.000 A 
ATOM      8  N   UNL     1      46.219   7.205  11.771  0.00  0.00    +0.000 NA
ATOM      9  C   UNL     1      46.180   5.988  12.346  0.00  0.00    +0.000 A 
ENDROOT
BRANCH   6  10
ATOM     10  C   UNL     1      49.502   8.377  13.255  0.00  0.00    +0.000 C 
ATOM     11  N   UNL     1      50.750   7.844  13.089  0.00  0.00    +0.000 N 
ATOM     12  O   UNL     1      49.356   9.547  13.594  0.00  0.00    +0.000 OA
ATOM     13  H   UNL     1      50.933   6.933  12.687  0.00  0.00    +0.000 HD
ATOM     14  H   UNL     1      51.541   8.464  13.216  0.00  0.00    +0.000 HD
ENDBRANCH   6  10
BRANCH   1  15
ATOM     15  C   UNL     1      43.991   5.145  11.403  0.00  0.00    +0.000 C 
BRANCH  15  18
ATOM     16  C   UNL     1      45.154   3.551   8.207  0.00  0.00    +0.000 C 
ATOM     17  C   UNL     1      45.187   4.699   9.206  0.00  0.00    +0.000 C 
ATOM     18  C   UNL     1      43.990   4.384  10.080  0.00  0.00    +0.000 C 
ATOM     19  C   UNL     1      44.103   2.871  10.186  0.00  0.00    +0.000 C 
ATOM     20  O   UNL     1      44.618   2.412   8.918  0.00  0.00    +0.000 OA
BRANCH  16  21
ATOM     21  C   UNL     1      46.525   3.232   7.591  0.00  0.00    +0.000 C 
BRANCH  21  22
ATOM     22  N   UNL     1      46.845   4.116   6.466  0.00  0.00    +0.000 NA
ATOM     23  H   UNL     1      47.736   3.844   6.058  0.00  0.00    +0.000 HD
ATOM     24  H   UNL     1      46.973   5.057   6.846  0.00  0.00    +0.000 HD
ENDBRANCH  21  22
ENDBRANCH  16  21
ENDBRANCH  15  18
ENDBRANCH   1  15
TORSDOF 5
ENDMDL
MODEL 6
REMARK VINA RESULT:    -6.057      4.370      8.255
REMARK INTER + INTRA:          -7.901
REMARK INTER:                  -7.501
REMARK INTRA:                  -0.400
REMARK UNBOUND:                -0.251
REMARK  Name = 
REMARK  5 active torsions:
REMARK  status: ('A' for Active; 'I' for Inactive)
REMARK    1  A    between atoms: N_1  and  C_2
REMARK    2  A    between atoms: C_2  and  C_3
REMARK    3  A    between atoms: C_5  and  C_6
REMARK    4  A    between atoms: C_6  and  N_7
REMARK    5  A    between atoms: C_12  and  C_13
REMARK                            x       y       z     vdW  Elec       q    Type
REMARK                         _______ _______ _______ _____ _____    ______ ____
ROOT
ATOM      1  N   UNL     1      47.496   5.446  14.169  0.00  0.00    +0.000 N 
ATOM      2  C   UNL     1      48.023   6.712  14.043  0.00  0.00    +0.000 A 
ATOM      3  C   UNL     1      48.720   7.004  15.191  0.00  0.00    +0.000 A 
ATOM      4  C   UNL     1      48.528   5.929  16.088  0.00  0.00    +0.000 A 
ATOM      5  C   UNL     1      48.923   5.687  17.409  0.00  0.00    +0.000 A 
ATOM      6  C   UNL     1      48.486   4.513  18.012  0.00  0.00    +0.000 A 
ATOM      7  C   UNL     1      47.740   3.610  17.251  0.00  0.00    +0.000 A 
ATOM      8  N   UNL     1      47.351   3.785  15.952  0.00  0.00    +0.000 NA
ATOM      9  C   UNL     1      47.758   4.960  15.433  0.00  0.00    +0.000 A 
ENDROOT
BRANCH   6  10
ATOM     10  C   UNL     1      48.809   4.216  19.422  0.00  0.00    +0.000 C 
ATOM     11  N   UNL     1      48.307   3.065  19.965  0.00  0.00    +0.000 N 
ATOM     12  O   UNL     1      49.524   4.964  20.081  0.00  0.00    +0.000 OA
ATOM     13  H   UNL     1      47.825   2.348  19.437  0.00  0.00    +0.000 HD
ATOM     14  H   UNL     1      48.583   2.840  20.913  0.00  0.00    +0.000 HD
ENDBRANCH   6  10
BRANCH   1  15
ATOM     15  C   UNL     1      46.823   4.735  13.095  0.00  0.00    +0.000 C 
BRANCH  15  18
ATOM     16  C   UNL     1      43.111   5.149  12.699  0.00  0.00    +0.000 C 
ATOM     17  C   UNL     1      44.514   5.736  12.742  0.00  0.00    +0.000 C 
ATOM     18  C   UNL     1      45.319   4.578  13.297  0.00  0.00    +0.000 C 
ATOM     19  C   UNL     1      44.671   3.407  12.574  0.00  0.00    +0.000 C 
ATOM     20  O   UNL     1      43.272   3.737  12.440  0.00  0.00    +0.000 OA
BRANCH  16  21
ATOM     21  C   UNL     1      42.199   5.810  11.654  0.00  0.00    +0.000 C 
BRANCH  21  22
ATOM     22  N   UNL     1      42.654   7.158  11.297  0.00  0.00    +0.000 NA
ATOM     23  H   UNL     1      42.343   7.386  10.356  0.00  0.00    +0.000 HD
ATOM     24  H   UNL     1      43.676   7.136  11.270  0.00  0.00    +0.000 HD
ENDBRANCH  21  22
ENDBRANCH  16  21
ENDBRANCH  15  18
ENDBRANCH   1  15
TORSDOF 5
ENDMDL
MODEL 7
REMARK VINA RESULT:    -5.894      4.034      5.935
REMARK INTER + INTRA:          -7.695
REMARK INTER:                  -7.246
REMARK INTRA:                  -0.449
REMARK UNBOUND:                -0.251
REMARK  Name = 
REMARK  5 active torsions:
REMARK  status: ('A' for Active; 'I' for Inactive)
REMARK    1  A    between atoms: N_1  and  C_2
REMARK    2  A    between atoms: C_2  and  C_3
REMARK    3  A    between atoms: C_5  and  C_6
REMARK    4  A    between atoms: C_6  and  N_7
REMARK    5  A    between atoms: C_12  and  C_13
REMARK                            x       y       z     vdW  Elec       q    Type
REMARK                         _______ _______ _______ _____ _____    ______ ____
ROOT
ATOM      1  N   UNL     1      47.748   7.214  13.792  0.00  0.00    +0.000 N 
ATOM      2  C   UNL     1      47.460   8.560  13.756  0.00  0.00    +0.000 A 
ATOM      3  C   UNL     1      46.214   8.718  13.200  0.00  0.00    +0.000 A 
ATOM      4  C   UNL     1      45.768   7.441  12.788  0.00  0.00    +0.000 A 
ATOM      5  C   UNL     1      44.632   6.983  12.111  0.00  0.00    +0.000 A 
ATOM      6  C   UNL     1      44.558   5.628  11.812  0.00  0.00    +0.000 A 
ATOM      7  C   UNL     1      45.581   4.789  12.259  0.00  0.00    +0.000 A 
ATOM      8  N   UNL     1      46.696   5.180  12.946  0.00  0.00    +0.000 NA
ATOM      9  C   UNL     1      46.742   6.508  13.165  0.00  0.00    +0.000 A 
ENDROOT
BRANCH   6  10
ATOM     10  C   UNL     1      43.420   5.078  11.047  0.00  0.00    +0.000 C 
ATOM     11  N   UNL     1      42.203   5.016  11.667  0.00  0.00    +0.000 N 
ATOM     12  O   UNL     1      43.555   4.711   9.885  0.00  0.00    +0.000 OA
ATOM     13  H   UNL     1      42.001   5.423  12.572  0.00  0.00    +0.000 HD
ATOM     14  H   UNL     1      41.416   4.695  11.116  0.00  0.00    +0.000 HD
ENDBRANCH   6  10
BRANCH   1  15
ATOM     15  C   UNL     1      48.916   6.649  14.450  0.00  0.00    +0.000 C 
BRANCH  15  18
ATOM     16  C   UNL     1      48.230   4.873  17.687  0.00  0.00    +0.000 C 
ATOM     17  C   UNL     1      47.920   5.119  16.218  0.00  0.00    +0.000 C 
ATOM     18  C   UNL     1      48.721   6.375  15.938  0.00  0.00    +0.000 C 
ATOM     19  C   UNL     1      49.987   6.089  16.731  0.00  0.00    +0.000 C 
ATOM     20  O   UNL     1      49.576   5.354  17.903  0.00  0.00    +0.000 OA
BRANCH  16  21
ATOM     21  C   UNL     1      48.087   3.402  18.108  0.00  0.00    +0.000 C 
BRANCH  21  22
ATOM     22  N   UNL     1      46.797   2.834  17.704  0.00  0.00    +0.000 NA
ATOM     23  H   UNL     1      46.941   2.136  16.979  0.00  0.00    +0.000 HD
ATOM     24  H   UNL     1      46.253   3.589  17.279  0.00  0.00    +0.000 HD
ENDBRANCH  21  22
ENDBRANCH  16  21
ENDBRANCH  15  18
ENDBRANCH   1  15
TORSDOF 5
ENDMDL
MODEL 8
REMARK VINA RESULT:    -5.811      3.735      5.400
REMARK INTER + INTRA:          -7.590
REMARK INTER:                  -7.125
REMARK INTRA:                  -0.465
REMARK UNBOUND:                -0.251
REMARK  Name = 
REMARK  5 active torsions:
REMARK  status: ('A' for Active; 'I' for Inactive)
REMARK    1  A    between atoms: N_1  and  C_2
REMARK    2  A    between atoms: C_2  and  C_3
REMARK    3  A    between atoms: C_5  and  C_6
REMARK    4  A    between atoms: C_6  and  N_7
REMARK    5  A    between atoms: C_12  and  C_13
REMARK                            x       y       z     vdW  Elec       q    Type
REMARK                         _______ _______ _______ _____ _____    ______ ____
ROOT
ATOM      1  N   UNL     1      47.235   7.068  12.689  0.00  0.00    +0.000 N 
ATOM      2  C   UNL     1      47.600   6.617  13.938  0.00  0.00    +0.000 A 
ATOM      3  C   UNL     1      47.138   5.332  14.083  0.00  0.00    +0.000 A 
ATOM      4  C   UNL     1      46.378   5.022  12.932  0.00  0.00    +0.000 A 
ATOM      5  C   UNL     1      45.618   3.913  12.543  0.00  0.00    +0.000 A 
ATOM      6  C   UNL     1      44.937   3.987  11.333  0.00  0.00    +0.000 A 
ATOM      7  C   UNL     1      45.100   5.127  10.544  0.00  0.00    +0.000 A 
ATOM      8  N   UNL     1      45.851   6.224  10.864  0.00  0.00    +0.000 NA
ATOM      9  C   UNL     1      46.448   6.121  12.067  0.00  0.00    +0.000 A 
ENDROOT
BRANCH   6  10
ATOM     10  C   UNL     1      44.065   2.882  10.882  0.00  0.00    +0.000 C 
ATOM     11  N   UNL     1      44.494   2.116   9.834  0.00  0.00    +0.000 N 
ATOM     12  O   UNL     1      43.001   2.645  11.443  0.00  0.00    +0.000 OA
ATOM     13  H   UNL     1      45.416   2.180   9.420  0.00  0.00    +0.000 HD
ATOM     14  H   UNL     1      43.920   1.325   9.571  0.00  0.00    +0.000 HD
ENDBRANCH   6  10
BRANCH   1  15
ATOM     15  C   UNL     1      47.678   8.330  12.118  0.00  0.00    +0.000 C 
BRANCH  15  18
ATOM     16  C   UNL     1      51.341   8.163  11.308  0.00  0.00    +0.000 C 
ATOM     17  C   UNL     1      49.978   7.498  11.430  0.00  0.00    +0.000 C 
ATOM     18  C   UNL     1      49.186   8.549  12.182  0.00  0.00    +0.000 C 
ATOM     19  C   UNL     1      49.701   9.820  11.525  0.00  0.00    +0.000 C 
ATOM     20  O   UNL     1      51.091   9.584  11.216  0.00  0.00    +0.000 OA
BRANCH  16  21
ATOM     21  C   UNL     1      52.166   7.661  10.113  0.00  0.00    +0.000 C 
BRANCH  21  22
ATOM     22  N   UNL     1      52.797   6.366  10.382  0.00  0.00    +0.000 NA
ATOM     23  H   UNL     1      52.717   6.143  11.371  0.00  0.00    +0.000 HD
ATOM     24  H   UNL     1      53.796   6.468  10.186  0.00  0.00    +0.000 HD
ENDBRANCH  21  22
ENDBRANCH  16  21
ENDBRANCH  15  18
ENDBRANCH   1  15
TORSDOF 5
ENDMDL
MODEL 9
REMARK VINA RESULT:    -5.691      3.454      6.340
REMARK INTER + INTRA:          -7.439
REMARK INTER:                  -6.883
REMARK INTRA:                  -0.556
REMARK UNBOUND:                -0.251
REMARK  Name = 
REMARK  5 active torsions:
REMARK  status: ('A' for Active; 'I' for Inactive)
REMARK    1  A    between atoms: N_1  and  C_2
REMARK    2  A    between atoms: C_2  and  C_3
REMARK    3  A    between atoms: C_5  and  C_6
REMARK    4  A    between atoms: C_6  and  N_7
REMARK    5  A    between atoms: C_12  and  C_13
REMARK                            x       y       z     vdW  Elec       q    Type
REMARK                         _______ _______ _______ _____ _____    ______ ____
ROOT
ATOM      1  N   UNL     1      45.827   6.847  12.778  0.00  0.00    +0.000 N 
ATOM      2  C   UNL     1      45.070   7.981  12.587  0.00  0.00    +0.000 A 
ATOM      3  C   UNL     1      45.903   8.988  12.165  0.00  0.00    +0.000 A 
ATOM      4  C   UNL     1      47.225   8.487  12.197  0.00  0.00    +0.000 A 
ATOM      5  C   UNL     1      48.481   9.051  11.949  0.00  0.00    +0.000 A 
ATOM      6  C   UNL     1      49.601   8.251  12.147  0.00  0.00    +0.000 A 
ATOM      7  C   UNL     1      49.412   6.917  12.513  0.00  0.00    +0.000 A 
ATOM      8  N   UNL     1      48.208   6.311  12.741  0.00  0.00    +0.000 NA
ATOM      9  C   UNL     1      47.161   7.143  12.584  0.00  0.00    +0.000 A 
ENDROOT
BRANCH   6  10
ATOM     10  C   UNL     1      50.964   8.792  11.965  0.00  0.00    +0.000 C 
ATOM     11  N   UNL     1      51.822   8.735  13.029  0.00  0.00    +0.000 N 
ATOM     12  O   UNL     1      51.324   9.258  10.889  0.00  0.00    +0.000 OA
ATOM     13  H   UNL     1      51.626   8.246  13.894  0.00  0.00    +0.000 HD
ATOM     14  H   UNL     1      52.771   9.053  12.878  0.00  0.00    +0.000 HD
ENDBRANCH   6  10
BRANCH   1  15
ATOM     15  C   UNL     1      45.270   5.538  13.079  0.00  0.00    +0.000 C 
BRANCH  15  18
ATOM     16  C   UNL     1      43.970   3.924   9.947  0.00  0.00    +0.000 C 
ATOM     17  C   UNL     1      44.976   4.815  10.660  0.00  0.00    +0.000 C 
ATOM     18  C   UNL     1      44.318   5.005  12.012  0.00  0.00    +0.000 C 
ATOM     19  C   UNL     1      43.761   3.611  12.258  0.00  0.00    +0.000 C 
ATOM     20  O   UNL     1      43.365   3.099  10.967  0.00  0.00    +0.000 OA
BRANCH  16  21
ATOM     21  C   UNL     1      44.589   3.069   8.830  0.00  0.00    +0.000 C 
BRANCH  21  22
ATOM     22  N   UNL     1      44.874   1.701   9.274  0.00  0.00    +0.000 NA
ATOM     23  H   UNL     1      44.180   1.411   9.957  0.00  0.00    +0.000 HD
ATOM     24  H   UNL     1      45.773   1.721   9.761  0.00  0.00    +0.000 HD
ENDBRANCH  21  22
ENDBRANCH  16  21
ENDBRANCH  15  18
ENDBRANCH   1  15
TORSDOF 5
ENDMDL
