MODEL 1
REMARK VINA RESULT:    -8.472      0.000      0.000
REMARK INTER + INTRA:         -11.220
REMARK INTER:                 -10.453
REMARK INTRA:                  -0.767
REMARK UNBOUND:                -0.767
REMARK  Name = 
REMARK  4 active torsions:
REMARK  status: ('A' for Active; 'I' for Inactive)
REMARK    1  A    between atoms: C_2  and  C_4
REMARK    2  A    between atoms: C_7  and  N_8
REMARK    3  A    between atoms: N_8  and  C_9
REMARK    4  A    between atoms: C_9  and  C_10
REMARK                            x       y       z     vdW  Elec       q    Type
REMARK                         _______ _______ _______ _____ _____    ______ ____
ROOT
ATOM      1  C   UNL     1      46.462   2.356   7.744  0.00  0.00    +0.000 A 
ATOM      2  C   UNL     1      46.504   3.747   7.607  0.00  0.00    +0.000 A 
ATOM      3  C   UNL     1      45.638   4.550   8.361  0.00  0.00    +0.000 A 
ATOM      4  C   UNL     1      44.703   3.985   9.235  0.00  0.00    +0.000 A 
ATOM      5  C   UNL     1      44.711   2.594   9.399  0.00  0.00    +0.000 A 
ATOM      6  C   UNL     1      45.566   1.782   8.647  0.00  0.00    +0.000 A 
ENDROOT
BRANCH   1   8
ATOM      7  N   UNL     1      48.423   2.003   6.341  0.00  0.00    +0.000 N 
ATOM      8  C   UNL     1      47.326   1.451   6.942  0.00  0.00    +0.000 C 
ATOM      9  O   UNL     1      47.091   0.253   6.844  0.00  0.00    +0.000 OA
ATOM     10  H   UNL     1      49.056   1.353   5.895  0.00  0.00    +0.000 HD
ATOM     11  H   UNL     1      48.789   2.902   6.616  0.00  0.00    +0.000 HD
ENDBRANCH   1   8
BRANCH   4  12
ATOM     12  N   UNL     1      43.830   4.823   9.965  0.00  0.00    +0.000 N 
ATOM     13  H   UNL     1      42.881   4.803   9.594  0.00  0.00    +0.000 HD
BRANCH  12  14
ATOM     14  C   UNL     1      43.921   4.899  11.445  0.00  0.00    +0.000 C 
ATOM     15  C   UNL     1      43.060   3.927  12.242  0.00  0.00    +0.000 C 
ATOM     16  C   UNL     1      42.706   5.375  12.238  0.00  0.00    +0.000 C 
BRANCH  14  17
ATOM     17  C   UNL     1      45.239   5.471  11.978  0.00  0.00    +0.000 A 
ATOM     18  C   UNL     1      45.928   4.819  13.021  0.00  0.00    +0.000 A 
ATOM     19  C   UNL     1      47.195   5.235  13.443  0.00  0.00    +0.000 A 
ATOM     20  C   UNL     1      47.806   6.322  12.828  0.00  0.00    +0.000 A 
ATOM     21  C   UNL     1      47.137   7.013  11.825  0.00  0.00    +0.000 A 
ATOM     22  C   UNL     1      45.864   6.600  11.417  0.00  0.00    +0.000 A 
ENDBRANCH  14  17
ENDBRANCH  12  14
ENDBRANCH   4  12
TORSDOF 4
ENDMDL
MODEL 2
REMARK VINA RESULT:    -6.344      3.262      6.311
REMARK INTER + INTRA:          -8.594
REMARK INTER:                  -8.687
REMARK INTRA:                   0.093
REMARK UNBOUND:                -0.767
REMARK  Name = 
REMARK  4 active torsions:
REMARK  status: ('A' for Active; 'I' for Inactive)
REMARK    1  A    between atoms: C_2  and  C_4
REMARK    2  A    between atoms: C_7  and  N_8
REMARK    3  A    between atoms: N_8  and  C_9
REMARK    4  A    between atoms: C_9  and  C_10
REMARK                            x       y       z     vdW  Elec       q    Type
REMARK                         _______ _______ _______ _____ _____    ______ ____
ROOT
ATOM      1  C   UNL     1      46.988   7.828  12.845  0.00  0.00    +0.000 A 
ATOM      2  C   UNL     1      45.597   7.847  12.993  0.00  0.00    +0.000 A 
ATOM      3  C   UNL     1      44.793   7.075  12.145  0.00  0.00    +0.000 A 
ATOM      4  C   UNL     1      45.353   6.298  11.125  0.00  0.00    +0.000 A 
ATOM      5  C   UNL     1      46.750   6.249  11.026  0.00  0.00    +0.000 A 
ATOM      6  C   UNL     1      47.562   7.021  11.862  0.00  0.00    +0.000 A 
ENDROOT
BRANCH   1   8
ATOM      7  N   UNL     1      47.407   9.077  14.894  0.00  0.00    +0.000 N 
ATOM      8  C   UNL     1      47.889   8.659  13.686  0.00  0.00    +0.000 C 
ATOM      9  O   UNL     1      49.029   8.934  13.333  0.00  0.00    +0.000 OA
ATOM     10  H   UNL     1      48.071   9.544  15.497  0.00  0.00    +0.000 HD
ATOM     11  H   UNL     1      46.599   8.655  15.325  0.00  0.00    +0.000 HD
ENDBRANCH   1   8
BRANCH   4  12
ATOM     12  N   UNL     1      44.513   5.545  10.274  0.00  0.00    +0.000 N 
ATOM     13  H   UNL     1      44.453   5.948   9.341  0.00  0.00    +0.000 HD
BRANCH  12  14
ATOM     14  C   UNL     1      44.535   4.061  10.314  0.00  0.00    +0.000 C 
ATOM     15  C   UNL     1      43.425   3.373  11.098  0.00  0.00    +0.000 C 
ATOM     16  C   UNL     1      44.812   3.360  11.643  0.00  0.00    +0.000 C 
BRANCH  14  17
ATOM     17  C   UNL     1      45.253   3.398   9.132  0.00  0.00    +0.000 A 
ATOM     18  C   UNL     1      45.835   4.187   8.120  0.00  0.00    +0.000 A 
ATOM     19  C   UNL     1      46.610   3.626   7.100  0.00  0.00    +0.000 A 
ATOM     20  C   UNL     1      46.820   2.253   7.067  0.00  0.00    +0.000 A 
ATOM     21  C   UNL     1      46.224   1.440   8.026  0.00  0.00    +0.000 A 
ATOM     22  C   UNL     1      45.440   2.007   9.035  0.00  0.00    +0.000 A 
ENDBRANCH  14  17
ENDBRANCH  12  14
ENDBRANCH   4  12
TORSDOF 4
ENDMDL
MODEL 3
REMARK VINA RESULT:    -5.928      3.552      6.184
REMARK INTER + INTRA:          -8.082
REMARK INTER:                  -7.750
REMARK INTRA:                  -0.331
REMARK UNBOUND:                -0.767
REMARK  Name = 
REMARK  4 active torsions:
REMARK  status: ('A' for Active; 'I' for Inactive)
REMARK    1  A    between atoms: C_2  and  C_4
REMARK    2  A    between atoms: C_7  and  N_8
REMARK    3  A    between atoms: N_8  and  C_9
REMARK    4  A    between atoms: C_9  and  C_10
REMARK                            x       y       z     vdW  Elec       q    Type
REMARK                         _______ _______ _______ _____ _____    ______ ____
ROOT
ATOM      1  C   UNL     1      48.264   6.658  14.066  0.00  0.00    +0.000 A 
ATOM      2  C   UNL     1      47.807   5.555  14.796  0.00  0.00    +0.000 A 
ATOM      3  C   UNL     1      46.724   4.804  14.323  0.00  0.00    +0.000 A 
ATOM      4  C   UNL     1      46.064   5.151  13.139  0.00  0.00    +0.000 A 
ATOM      5  C   UNL     1      46.568   6.224  12.394  0.00  0.00    +0.000 A 
ATOM      6  C   UNL     1      47.644   6.987  12.859  0.00  0.00    +0.000 A 
ENDROOT
BRANCH   1   8
ATOM      7  N   UNL     1      50.534   7.503  13.807  0.00  0.00    +0.000 N 
ATOM      8  C   UNL     1      49.380   7.518  14.538  0.00  0.00    +0.000 C 
ATOM      9  O   UNL     1      49.268   8.239  15.523  0.00  0.00    +0.000 OA
ATOM     10  H   UNL     1      51.239   8.176  14.079  0.00  0.00    +0.000 HD
ATOM     11  H   UNL     1      50.568   7.144  12.865  0.00  0.00    +0.000 HD
ENDBRANCH   1   8
BRANCH   4  12
ATOM     12  N   UNL     1      44.961   4.383  12.699  0.00  0.00    +0.000 N 
ATOM     13  H   UNL     1      44.331   4.146  13.464  0.00  0.00    +0.000 HD
BRANCH  12  14
ATOM     14  C   UNL     1      44.293   4.694  11.411  0.00  0.00    +0.000 C 
ATOM     15  C   UNL     1      43.500   5.993  11.339  0.00  0.00    +0.000 C 
ATOM     16  C   UNL     1      42.766   4.696  11.351  0.00  0.00    +0.000 C 
BRANCH  14  17
ATOM     17  C   UNL     1      44.934   4.042  10.181  0.00  0.00    +0.000 A 
ATOM     18  C   UNL     1      44.896   2.642  10.016  0.00  0.00    +0.000 A 
ATOM     19  C   UNL     1      45.351   2.023   8.848  0.00  0.00    +0.000 A 
ATOM     20  C   UNL     1      45.861   2.795   7.810  0.00  0.00    +0.000 A 
ATOM     21  C   UNL     1      45.952   4.175   7.957  0.00  0.00    +0.000 A 
ATOM     22  C   UNL     1      45.508   4.786   9.134  0.00  0.00    +0.000 A 
ENDBRANCH  14  17
ENDBRANCH  12  14
ENDBRANCH   4  12
TORSDOF 4
ENDMDL
MODEL 4
REMARK VINA RESULT:    -5.755      3.987      6.724
REMARK INTER + INTRA:          -7.868
REMARK INTER:                  -7.487
REMARK INTRA:                  -0.381
REMARK UNBOUND:                -0.767
REMARK  Name = 
REMARK  4 active torsions:
REMARK  status: ('A' for Active; 'I' for Inactive)
REMARK    1  A    between atoms: C_2  and  C_4
REMARK    2  A    between atoms: C_7  and  N_8
REMARK    3  A    between atoms: N_8  and  C_9
REMARK    4  A    between atoms: C_9  and  C_10
REMARK                            x       y       z     vdW  Elec       q    Type
REMARK                         _______ _______ _______ _____ _____    ______ ____
ROOT
ATOM      1  C   UNL     1      48.479   6.248  15.324  0.00  0.00    +0.000 A 
ATOM      2  C   UNL     1      48.178   6.496  13.981  0.00  0.00    +0.000 A 
ATOM      3  C   UNL     1      47.313   5.639  13.288  0.00  0.00    +0.000 A 
ATOM      4  C   UNL     1      46.761   4.513  13.907  0.00  0.00    +0.000 A 
ATOM      5  C   UNL     1      47.030   4.308  15.266  0.00  0.00    +0.000 A 
ATOM      6  C   UNL     1      47.897   5.153  15.966  0.00  0.00    +0.000 A 
ENDROOT
BRANCH   1   8
ATOM      7  N   UNL     1      49.811   6.640  17.326  0.00  0.00    +0.000 N 
ATOM      8  C   UNL     1      49.421   7.097  16.098  0.00  0.00    +0.000 C 
ATOM      9  O   UNL     1      49.862   8.148  15.649  0.00  0.00    +0.000 OA
ATOM     10  H   UNL     1      50.535   7.175  17.787  0.00  0.00    +0.000 HD
ATOM     11  H   UNL     1      49.688   5.679  17.605  0.00  0.00    +0.000 HD
ENDBRANCH   1   8
BRANCH   4  12
ATOM     12  N   UNL     1      45.908   3.656  13.173  0.00  0.00    +0.000 N 
ATOM     13  H   UNL     1      45.694   2.801  13.684  0.00  0.00    +0.000 HD
BRANCH  12  14
ATOM     14  C   UNL     1      44.781   4.212  12.383  0.00  0.00    +0.000 C 
ATOM     15  C   UNL     1      44.034   5.396  12.982  0.00  0.00    +0.000 C 
ATOM     16  C   UNL     1      43.358   4.069  12.921  0.00  0.00    +0.000 C 
BRANCH  14  17
ATOM     17  C   UNL     1      44.873   3.964  10.873  0.00  0.00    +0.000 A 
ATOM     18  C   UNL     1      45.395   4.957  10.019  0.00  0.00    +0.000 A 
ATOM     19  C   UNL     1      45.617   4.719   8.659  0.00  0.00    +0.000 A 
ATOM     20  C   UNL     1      45.317   3.475   8.117  0.00  0.00    +0.000 A 
ATOM     21  C   UNL     1      44.761   2.487   8.922  0.00  0.00    +0.000 A 
ATOM     22  C   UNL     1      44.529   2.736  10.278  0.00  0.00    +0.000 A 
ENDBRANCH  14  17
ENDBRANCH  12  14
ENDBRANCH   4  12
TORSDOF 4
ENDMDL
MODEL 5
REMARK VINA RESULT:    -5.662      2.521      4.307
REMARK INTER + INTRA:          -7.753
REMARK INTER:                  -7.293
REMARK INTRA:                  -0.460
REMARK UNBOUND:                -0.767
REMARK  Name = 
REMARK  4 active torsions:
REMARK  status: ('A' for Active; 'I' for Inactive)
REMARK    1  A    between atoms: C_2  and  C_4
REMARK    2  A    between atoms: C_7  and  N_8
REMARK    3  A    between atoms: N_8  and  C_9
REMARK    4  A    between atoms: C_9  and  C_10
REMARK                            x       y       z     vdW  Elec       q    Type
REMARK                         _______ _______ _______ _____ _____    ______ ____
ROOT
ATOM      1  C   UNL     1      45.013   3.803  10.117  0.00  0.00    +0.000 A 
ATOM      2  C   UNL     1      45.422   5.115   9.854  0.00  0.00    +0.000 A 
ATOM      3  C   UNL     1      45.756   5.969  10.912  0.00  0.00    +0.000 A 
ATOM      4  C   UNL     1      45.662   5.546  12.242  0.00  0.00    +0.000 A 
ATOM      5  C   UNL     1      45.302   4.214  12.486  0.00  0.00    +0.000 A 
ATOM      6  C   UNL     1      44.959   3.354  11.437  0.00  0.00    +0.000 A 
ENDROOT
BRANCH   1   8
ATOM      7  N   UNL     1      44.316   3.404   7.817  0.00  0.00    +0.000 N 
ATOM      8  C   UNL     1      44.605   2.865   9.039  0.00  0.00    +0.000 C 
ATOM      9  O   UNL     1      44.561   1.654   9.220  0.00  0.00    +0.000 OA
ATOM     10  H   UNL     1      44.150   2.742   7.071  0.00  0.00    +0.000 HD
ATOM     11  H   UNL     1      44.598   4.338   7.562  0.00  0.00    +0.000 HD
ENDBRANCH   1   8
BRANCH   4  12
ATOM     12  N   UNL     1      45.987   6.439  13.288  0.00  0.00    +0.000 N 
ATOM     13  H   UNL     1      45.860   6.016  14.206  0.00  0.00    +0.000 HD
BRANCH  12  14
ATOM     14  C   UNL     1      47.162   7.339  13.172  0.00  0.00    +0.000 C 
ATOM     15  C   UNL     1      48.527   6.679  13.016  0.00  0.00    +0.000 C 
ATOM     16  C   UNL     1      48.193   7.360  14.299  0.00  0.00    +0.000 C 
BRANCH  14  17
ATOM     17  C   UNL     1      46.848   8.737  12.628  0.00  0.00    +0.000 A 
ATOM     18  C   UNL     1      47.873   9.534  12.079  0.00  0.00    +0.000 A 
ATOM     19  C   UNL     1      47.604  10.756  11.455  0.00  0.00    +0.000 A 
ATOM     20  C   UNL     1      46.295  11.215  11.367  0.00  0.00    +0.000 A 
ATOM     21  C   UNL     1      45.265  10.474  11.937  0.00  0.00    +0.000 A 
ATOM     22  C   UNL     1      45.543   9.259  12.571  0.00  0.00    +0.000 A 
ENDBRANCH  14  17
ENDBRANCH  12  14
ENDBRANCH   4  12
TORSDOF 4
ENDMDL
