MODEL 1
REMARK VINA RESULT:    -8.114      0.000      0.000
REMARK INTER + INTRA:         -11.997
REMARK INTER:                 -10.959
REMARK INTRA:                  -1.038
REMARK UNBOUND:                -1.038
REMARK  Name = 
REMARK  7 active torsions:
REMARK  status: ('A' for Active; 'I' for Inactive)
REMARK    1  A    between atoms: C_1  and  C_2
REMARK    2  A    between atoms: C_2  and  N_3
REMARK    3  A    between atoms: C_2  and  C_16
REMARK    4  A    between atoms: C_4  and  C_6
REMARK    5  A    between atoms: C_19  and  C_20
REMARK    6  A    between atoms: C_20  and  N_21
REMARK    7  A    between atoms: C_22  and  C_24
REMARK                            x       y       z     vdW  Elec       q    Type
REMARK                         _______ _______ _______ _____ _____    ______ ____
ROOT
ATOM      1  C   UNL     1      47.385   8.822  13.802  0.00  0.00    +0.000 C 
ATOM      2  C   UNL     1      47.791   7.344  13.779  0.00  0.00    +0.000 C 
ENDROOT
BRANCH   2   3
ATOM      3  C   UNL     1      46.812   6.539  12.926  0.00  0.00    +0.000 A 
ATOM      4  C   UNL     1      46.254   7.077  11.758  0.00  0.00    +0.000 A 
ATOM      5  C   UNL     1      45.400   6.307  10.951  0.00  0.00    +0.000 A 
ATOM      6  C   UNL     1      45.081   4.985  11.296  0.00  0.00    +0.000 A 
ATOM      7  C   UNL     1      45.632   4.451  12.466  0.00  0.00    +0.000 A 
ATOM      8  C   UNL     1      46.478   5.220  13.273  0.00  0.00    +0.000 A 
BRANCH   6   9
ATOM      9  C   UNL     1      44.190   4.139  10.419  0.00  0.00    +0.000 C 
BRANCH   9  10
ATOM     10  N   UNL     1      44.951   3.176   9.661  0.00  0.00    +0.000 N 
ATOM     11  C   UNL     1      45.604   3.526   8.499  0.00  0.00    +0.000 C 
ATOM     12  O   UNL     1      45.571   4.659   8.038  0.00  0.00    +0.000 OA
ATOM     13  H   UNL     1      45.052   2.246  10.036  0.00  0.00    +0.000 HD
BRANCH  11  14
ATOM     14  C   UNL     1      46.340   2.461   7.859  0.00  0.00    +0.000 A 
ATOM     15  C   UNL     1      47.310   2.451   6.876  0.00  0.00    +0.000 A 
ATOM     16  N   UNL     1      47.726   1.176   6.589  0.00  0.00    +0.000 NA
ATOM     17  C   UNL     1      47.025   0.402   7.383  0.00  0.00    +0.000 A 
ATOM     18  N   UNL     1      46.176   1.130   8.166  0.00  0.00    +0.000 N 
ATOM     19  H   UNL     1      45.537   0.765   8.860  0.00  0.00    +0.000 HD
ENDBRANCH  11  14
ENDBRANCH   9  10
ENDBRANCH   6   9
ENDBRANCH   2   3
BRANCH   2  20
ATOM     20  N   UNL     1      47.846   6.756  15.111  0.00  0.00    +0.000 N 
ATOM     21  C   UNL     1      49.013   6.436  15.760  0.00  0.00    +0.000 C 
ATOM     22  O   UNL     1      50.123   6.648  15.284  0.00  0.00    +0.000 OA
ATOM     23  H   UNL     1      47.003   6.275  15.407  0.00  0.00    +0.000 HD
BRANCH  21  24
ATOM     24  C   UNL     1      48.864   5.869  17.108  0.00  0.00    +0.000 A 
ATOM     25  C   UNL     1      49.179   4.535  17.334  0.00  0.00    +0.000 A 
ATOM     26  S   UNL     1      48.937   4.039  18.948  0.00  0.00    +0.000 S 
ATOM     27  C   UNL     1      48.367   5.578  19.394  0.00  0.00    +0.000 A 
ATOM     28  N   UNL     1      47.933   5.828  20.658  0.00  0.00    +0.000 NA
ATOM     29  C   UNL     1      47.503   7.031  20.847  0.00  0.00    +0.000 A 
ATOM     30  N   UNL     1      47.482   8.014  19.891  0.00  0.00    +0.000 N 
ATOM     31  C   UNL     1      47.956   7.820  18.616  0.00  0.00    +0.000 A 
ATOM     32  O   UNL     1      48.003   8.743  17.808  0.00  0.00    +0.000 OA
ATOM     33  C   UNL     1      48.406   6.472  18.338  0.00  0.00    +0.000 A 
ATOM     34  H   UNL     1      47.160   8.943  20.113  0.00  0.00    +0.000 HD
ENDBRANCH  21  24
ENDBRANCH   2  20
TORSDOF 6
ENDMDL
MODEL 2
REMARK VINA RESULT:    -7.976      1.501      2.045
REMARK INTER + INTRA:         -11.811
REMARK INTER:                 -10.841
REMARK INTRA:                  -0.970
REMARK UNBOUND:                -1.038
REMARK  Name = 
REMARK  7 active torsions:
REMARK  status: ('A' for Active; 'I' for Inactive)
REMARK    1  A    between atoms: C_1  and  C_2
REMARK    2  A    between atoms: C_2  and  N_3
REMARK    3  A    between atoms: C_2  and  C_16
REMARK    4  A    between atoms: C_4  and  C_6
REMARK    5  A    between atoms: C_19  and  C_20
REMARK    6  A    between atoms: C_20  and  N_21
REMARK    7  A    between atoms: C_22  and  C_24
REMARK                            x       y       z     vdW  Elec       q    Type
REMARK                         _______ _______ _______ _____ _____    ______ ____
ROOT
ATOM      1  C   UNL     1      46.959   9.188  13.369  0.00  0.00    +0.000 C 
ATOM      2  C   UNL     1      47.544   7.771  13.394  0.00  0.00    +0.000 C 
ENDROOT
BRANCH   2   3
ATOM      3  C   UNL     1      46.601   6.796  12.692  0.00  0.00    +0.000 A 
ATOM      4  C   UNL     1      45.767   7.218  11.646  0.00  0.00    +0.000 A 
ATOM      5  C   UNL     1      44.947   6.300  10.969  0.00  0.00    +0.000 A 
ATOM      6  C   UNL     1      44.936   4.943  11.325  0.00  0.00    +0.000 A 
ATOM      7  C   UNL     1      45.763   4.524  12.374  0.00  0.00    +0.000 A 
ATOM      8  C   UNL     1      46.576   5.439  13.052  0.00  0.00    +0.000 A 
BRANCH   6   9
ATOM      9  C   UNL     1      44.082   3.944  10.584  0.00  0.00    +0.000 C 
BRANCH   9  10
ATOM     10  N   UNL     1      44.887   3.024   9.816  0.00  0.00    +0.000 N 
ATOM     11  C   UNL     1      45.396   3.366   8.583  0.00  0.00    +0.000 C 
ATOM     12  O   UNL     1      45.192   4.455   8.063  0.00  0.00    +0.000 OA
ATOM     13  H   UNL     1      45.126   2.139  10.234  0.00  0.00    +0.000 HD
BRANCH  11  14
ATOM     14  C   UNL     1      46.196   2.350   7.942  0.00  0.00    +0.000 A 
ATOM     15  C   UNL     1      47.192   2.406   6.986  0.00  0.00    +0.000 A 
ATOM     16  N   UNL     1      47.673   1.157   6.684  0.00  0.00    +0.000 NA
ATOM     17  C   UNL     1      46.988   0.335   7.443  0.00  0.00    +0.000 A 
ATOM     18  N   UNL     1      46.087   1.007   8.218  0.00  0.00    +0.000 N 
ATOM     19  H   UNL     1      45.446   0.598   8.886  0.00  0.00    +0.000 HD
ENDBRANCH  11  14
ENDBRANCH   9  10
ENDBRANCH   6   9
ENDBRANCH   2   3
BRANCH   2  20
ATOM     20  N   UNL     1      47.793   7.291  14.748  0.00  0.00    +0.000 N 
ATOM     21  C   UNL     1      49.045   7.077  15.267  0.00  0.00    +0.000 C 
ATOM     22  O   UNL     1      50.076   7.304  14.643  0.00  0.00    +0.000 OA
ATOM     23  H   UNL     1      47.020   6.795  15.179  0.00  0.00    +0.000 HD
BRANCH  21  24
ATOM     24  C   UNL     1      49.093   6.609  16.660  0.00  0.00    +0.000 A 
ATOM     25  C   UNL     1      49.574   7.451  17.655  0.00  0.00    +0.000 A 
ATOM     26  S   UNL     1      49.571   6.745  19.208  0.00  0.00    +0.000 S 
ATOM     27  C   UNL     1      48.964   5.277  18.600  0.00  0.00    +0.000 A 
ATOM     28  N   UNL     1      48.771   4.205  19.415  0.00  0.00    +0.000 NA
ATOM     29  C   UNL     1      48.333   3.150  18.813  0.00  0.00    +0.000 A 
ATOM     30  N   UNL     1      48.052   3.073  17.473  0.00  0.00    +0.000 N 
ATOM     31  C   UNL     1      48.186   4.143  16.623  0.00  0.00    +0.000 A 
ATOM     32  O   UNL     1      47.846   4.067  15.446  0.00  0.00    +0.000 OA
ATOM     33  C   UNL     1      48.721   5.340  17.239  0.00  0.00    +0.000 A 
ATOM     34  H   UNL     1      47.684   2.224  17.071  0.00  0.00    +0.000 HD
ENDBRANCH  21  24
ENDBRANCH   2  20
TORSDOF 6
ENDMDL
MODEL 3
REMARK VINA RESULT:    -7.526      2.893      4.525
REMARK INTER + INTRA:         -11.203
REMARK INTER:                  -9.992
REMARK INTRA:                  -1.211
REMARK UNBOUND:                -1.038
REMARK  Name = 
REMARK  7 active torsions:
REMARK  status: ('A' for Active; 'I' for Inactive)
REMARK    1  A    between atoms: C_1  and  C_2
REMARK    2  A    between atoms: C_2  and  N_3
REMARK    3  A    between atoms: C_2  and  C_16
REMARK    4  A    between atoms: C_4  and  C_6
REMARK    5  A    between atoms: C_19  and  C_20
REMARK    6  A    between atoms: C_20  and  N_21
REMARK    7  A    between atoms: C_22  and  C_24
REMARK                            x       y       z     vdW  Elec       q    Type
REMARK                         _______ _______ _______ _____ _____    ______ ____
ROOT
ATOM      1  C   UNL     1      47.435   4.091  15.588  0.00  0.00    +0.000 C 
ATOM      2  C   UNL     1      47.091   5.367  14.811  0.00  0.00    +0.000 C 
ENDROOT
BRANCH   2   3
ATOM      3  C   UNL     1      46.253   5.026  13.580  0.00  0.00    +0.000 A 
ATOM      4  C   UNL     1      45.685   6.032  12.786  0.00  0.00    +0.000 A 
ATOM      5  C   UNL     1      44.966   5.707  11.624  0.00  0.00    +0.000 A 
ATOM      6  C   UNL     1      44.793   4.371  11.233  0.00  0.00    +0.000 A 
ATOM      7  C   UNL     1      45.353   3.367  12.030  0.00  0.00    +0.000 A 
ATOM      8  C   UNL     1      46.065   3.690  13.190  0.00  0.00    +0.000 A 
BRANCH   6   9
ATOM      9  C   UNL     1      44.049   4.013   9.969  0.00  0.00    +0.000 C 
BRANCH   9  10
ATOM     10  N   UNL     1      44.880   3.266   9.057  0.00  0.00    +0.000 N 
ATOM     11  C   UNL     1      45.809   3.889   8.252  0.00  0.00    +0.000 C 
ATOM     12  O   UNL     1      45.977   5.101   8.252  0.00  0.00    +0.000 OA
ATOM     13  H   UNL     1      44.813   2.261   9.067  0.00  0.00    +0.000 HD
BRANCH  11  14
ATOM     14  C   UNL     1      46.579   3.010   7.404  0.00  0.00    +0.000 A 
ATOM     15  C   UNL     1      46.961   1.688   7.525  0.00  0.00    +0.000 A 
ATOM     16  N   UNL     1      47.696   1.273   6.444  0.00  0.00    +0.000 NA
ATOM     17  C   UNL     1      47.770   2.322   5.659  0.00  0.00    +0.000 A 
ATOM     18  N   UNL     1      47.112   3.392   6.195  0.00  0.00    +0.000 N 
ATOM     19  H   UNL     1      47.022   4.311   5.781  0.00  0.00    +0.000 HD
ENDBRANCH  11  14
ENDBRANCH   9  10
ENDBRANCH   6   9
ENDBRANCH   2   3
BRANCH   2  20
ATOM     20  N   UNL     1      48.276   6.100  14.384  0.00  0.00    +0.000 N 
ATOM     21  C   UNL     1      48.917   7.037  15.156  0.00  0.00    +0.000 C 
ATOM     22  O   UNL     1      48.564   7.319  16.296  0.00  0.00    +0.000 OA
ATOM     23  H   UNL     1      48.414   6.152  13.380  0.00  0.00    +0.000 HD
BRANCH  21  24
ATOM     24  C   UNL     1      50.109   7.657  14.558  0.00  0.00    +0.000 A 
ATOM     25  C   UNL     1      51.330   7.580  15.216  0.00  0.00    +0.000 A 
ATOM     26  S   UNL     1      52.601   8.363  14.390  0.00  0.00    +0.000 S 
ATOM     27  C   UNL     1      51.557   8.864  13.144  0.00  0.00    +0.000 A 
ATOM     28  N   UNL     1      52.007   9.636  12.119  0.00  0.00    +0.000 NA
ATOM     29  C   UNL     1      51.100   9.964  11.260  0.00  0.00    +0.000 A 
ATOM     30  N   UNL     1      49.786   9.577  11.324  0.00  0.00    +0.000 N 
ATOM     31  C   UNL     1      49.299   8.758  12.314  0.00  0.00    +0.000 A 
ATOM     32  O   UNL     1      48.138   8.361  12.296  0.00  0.00    +0.000 OA
ATOM     33  C   UNL     1      50.267   8.401  13.331  0.00  0.00    +0.000 A 
ATOM     34  H   UNL     1      49.134   9.845  10.603  0.00  0.00    +0.000 HD
ENDBRANCH  21  24
ENDBRANCH   2  20
TORSDOF 6
ENDMDL
MODEL 4
REMARK VINA RESULT:    -7.206      3.989      8.683
REMARK INTER + INTRA:         -10.772
REMARK INTER:                  -9.795
REMARK INTRA:                  -0.977
REMARK UNBOUND:                -1.038
REMARK  Name = 
REMARK  7 active torsions:
REMARK  status: ('A' for Active; 'I' for Inactive)
REMARK    1  A    between atoms: C_1  and  C_2
REMARK    2  A    between atoms: C_2  and  N_3
REMARK    3  A    between atoms: C_2  and  C_16
REMARK    4  A    between atoms: C_4  and  C_6
REMARK    5  A    between atoms: C_19  and  C_20
REMARK    6  A    between atoms: C_20  and  N_21
REMARK    7  A    between atoms: C_22  and  C_24
REMARK                            x       y       z     vdW  Elec       q    Type
REMARK                         _______ _______ _______ _____ _____    ______ ____
ROOT
ATOM      1  C   UNL     1      49.120   7.686  12.940  0.00  0.00    +0.000 C 
ATOM      2  C   UNL     1      47.894   7.025  13.580  0.00  0.00    +0.000 C 
ENDROOT
BRANCH   2   3
ATOM      3  C   UNL     1      48.304   6.245  14.828  0.00  0.00    +0.000 A 
ATOM      4  C   UNL     1      49.416   6.628  15.591  0.00  0.00    +0.000 A 
ATOM      5  C   UNL     1      49.748   5.939  16.769  0.00  0.00    +0.000 A 
ATOM      6  C   UNL     1      48.982   4.848  17.207  0.00  0.00    +0.000 A 
ATOM      7  C   UNL     1      47.877   4.461  16.440  0.00  0.00    +0.000 A 
ATOM      8  C   UNL     1      47.548   5.145  15.265  0.00  0.00    +0.000 A 
BRANCH   6   9
ATOM      9  C   UNL     1      49.312   4.120  18.487  0.00  0.00    +0.000 C 
BRANCH   9  10
ATOM     10  N   UNL     1      50.588   3.452  18.405  0.00  0.00    +0.000 N 
ATOM     11  C   UNL     1      50.769   2.338  17.614  0.00  0.00    +0.000 C 
ATOM     12  O   UNL     1      49.868   1.846  16.949  0.00  0.00    +0.000 OA
ATOM     13  H   UNL     1      51.370   3.859  18.892  0.00  0.00    +0.000 HD
BRANCH  11  14
ATOM     14  C   UNL     1      52.104   1.788  17.620  0.00  0.00    +0.000 A 
ATOM     15  C   UNL     1      53.319   2.280  18.058  0.00  0.00    +0.000 A 
ATOM     16  N   UNL     1      54.331   1.377  17.856  0.00  0.00    +0.000 NA
ATOM     17  C   UNL     1      53.756   0.337  17.301  0.00  0.00    +0.000 A 
ATOM     18  N   UNL     1      52.415   0.538  17.138  0.00  0.00    +0.000 N 
ATOM     19  H   UNL     1      51.754  -0.115  16.738  0.00  0.00    +0.000 HD
ENDBRANCH  11  14
ENDBRANCH   9  10
ENDBRANCH   6   9
ENDBRANCH   2   3
BRANCH   2  20
ATOM     20  N   UNL     1      47.204   6.122  12.667  0.00  0.00    +0.000 N 
ATOM     21  C   UNL     1      46.200   6.512  11.816  0.00  0.00    +0.000 C 
ATOM     22  O   UNL     1      45.813   7.672  11.726  0.00  0.00    +0.000 OA
ATOM     23  H   UNL     1      47.245   5.139  12.918  0.00  0.00    +0.000 HD
BRANCH  21  24
ATOM     24  C   UNL     1      45.638   5.459  10.958  0.00  0.00    +0.000 A 
ATOM     25  C   UNL     1      45.768   5.552   9.578  0.00  0.00    +0.000 A 
ATOM     26  S   UNL     1      45.049   4.254   8.736  0.00  0.00    +0.000 S 
ATOM     27  C   UNL     1      44.507   3.542  10.182  0.00  0.00    +0.000 A 
ATOM     28  N   UNL     1      43.762   2.405  10.169  0.00  0.00    +0.000 NA
ATOM     29  C   UNL     1      43.397   1.993  11.338  0.00  0.00    +0.000 A 
ATOM     30  N   UNL     1      43.722   2.606  12.520  0.00  0.00    +0.000 N 
ATOM     31  C   UNL     1      44.512   3.728  12.583  0.00  0.00    +0.000 A 
ATOM     32  O   UNL     1      44.856   4.204  13.661  0.00  0.00    +0.000 OA
ATOM     33  C   UNL     1      44.909   4.259  11.295  0.00  0.00    +0.000 A 
ATOM     34  H   UNL     1      43.428   2.215  13.402  0.00  0.00    +0.000 HD
ENDBRANCH  21  24
ENDBRANCH   2  20
TORSDOF 6
ENDMDL
MODEL 5
REMARK VINA RESULT:    -6.752      2.252      2.893
REMARK INTER + INTRA:         -10.157
REMARK INTER:                  -8.910
REMARK INTRA:                  -1.248
REMARK UNBOUND:                -1.038
REMARK  Name = 
REMARK  7 active torsions:
REMARK  status: ('A' for Active; 'I' for Inactive)
REMARK    1  A    between atoms: C_1  and  C_2
REMARK    2  A    between atoms: C_2  and  N_3
REMARK    3  A    between atoms: C_2  and  C_16
REMARK    4  A    between atoms: C_4  and  C_6
REMARK    5  A    between atoms: C_19  and  C_20
REMARK    6  A    between atoms: C_20  and  N_21
REMARK    7  A    between atoms: C_22  and  C_24
REMARK                            x       y       z     vdW  Elec       q    Type
REMARK                         _______ _______ _______ _____ _____    ______ ____
ROOT
ATOM      1  C   UNL     1      49.001  10.071  15.071  0.00  0.00    +0.000 C 
ATOM      2  C   UNL     1      49.215   8.639  14.566  0.00  0.00    +0.000 C 
ENDROOT
BRANCH   2   3
ATOM      3  C   UNL     1      48.097   8.246  13.602  0.00  0.00    +0.000 A 
ATOM      4  C   UNL     1      48.298   7.271  12.615  0.00  0.00    +0.000 A 
ATOM      5  C   UNL     1      47.245   6.876  11.773  0.00  0.00    +0.000 A 
ATOM      6  C   UNL     1      45.971   7.450  11.894  0.00  0.00    +0.000 A 
ATOM      7  C   UNL     1      45.773   8.429  12.874  0.00  0.00    +0.000 A 
ATOM      8  C   UNL     1      46.822   8.826  13.709  0.00  0.00    +0.000 A 
BRANCH   6   9
ATOM      9  C   UNL     1      44.825   7.011  11.015  0.00  0.00    +0.000 C 
BRANCH   9  10
ATOM     10  N   UNL     1      45.185   5.874  10.202  0.00  0.00    +0.000 N 
ATOM     11  C   UNL     1      44.492   4.686  10.277  0.00  0.00    +0.000 C 
ATOM     12  O   UNL     1      43.547   4.518  11.037  0.00  0.00    +0.000 OA
ATOM     13  H   UNL     1      45.920   5.989   9.523  0.00  0.00    +0.000 HD
BRANCH  11  14
ATOM     14  C   UNL     1      44.955   3.644   9.391  0.00  0.00    +0.000 A 
ATOM     15  C   UNL     1      45.451   3.662   8.101  0.00  0.00    +0.000 A 
ATOM     16  N   UNL     1      45.773   2.402   7.666  0.00  0.00    +0.000 NA
ATOM     17  C   UNL     1      45.481   1.610   8.671  0.00  0.00    +0.000 A 
ATOM     18  N   UNL     1      44.986   2.312   9.731  0.00  0.00    +0.000 N 
ATOM     19  H   UNL     1      44.694   1.929  10.621  0.00  0.00    +0.000 HD
ENDBRANCH  11  14
ENDBRANCH   9  10
ENDBRANCH   6   9
ENDBRANCH   2   3
BRANCH   2  20
ATOM     20  N   UNL     1      49.266   7.665  15.649  0.00  0.00    +0.000 N 
ATOM     21  C   UNL     1      50.409   7.010  16.037  0.00  0.00    +0.000 C 
ATOM     22  O   UNL     1      51.503   7.214  15.523  0.00  0.00    +0.000 OA
ATOM     23  H   UNL     1      48.379   7.230  15.881  0.00  0.00    +0.000 HD
BRANCH  21  24
ATOM     24  C   UNL     1      50.264   6.077  17.163  0.00  0.00    +0.000 A 
ATOM     25  C   UNL     1      51.160   6.131  18.224  0.00  0.00    +0.000 A 
ATOM     26  S   UNL     1      50.854   4.970  19.436  0.00  0.00    +0.000 S 
ATOM     27  C   UNL     1      49.538   4.330  18.569  0.00  0.00    +0.000 A 
ATOM     28  N   UNL     1      48.846   3.255  19.034  0.00  0.00    +0.000 NA
ATOM     29  C   UNL     1      47.891   2.860  18.260  0.00  0.00    +0.000 A 
ATOM     30  N   UNL     1      47.553   3.451  17.069  0.00  0.00    +0.000 N 
ATOM     31  C   UNL     1      48.193   4.566  16.585  0.00  0.00    +0.000 A 
ATOM     32  O   UNL     1      47.812   5.122  15.560  0.00  0.00    +0.000 OA
ATOM     33  C   UNL     1      49.305   5.022  17.393  0.00  0.00    +0.000 A 
ATOM     34  H   UNL     1      46.775   3.109  16.526  0.00  0.00    +0.000 HD
ENDBRANCH  21  24
ENDBRANCH   2  20
TORSDOF 6
ENDMDL
MODEL 6
REMARK VINA RESULT:    -6.567      3.510      9.154
REMARK INTER + INTRA:          -9.908
REMARK INTER:                  -8.844
REMARK INTRA:                  -1.064
REMARK UNBOUND:                -1.038
REMARK  Name = 
REMARK  7 active torsions:
REMARK  status: ('A' for Active; 'I' for Inactive)
REMARK    1  A    between atoms: C_1  and  C_2
REMARK    2  A    between atoms: C_2  and  N_3
REMARK    3  A    between atoms: C_2  and  C_16
REMARK    4  A    between atoms: C_4  and  C_6
REMARK    5  A    between atoms: C_19  and  C_20
REMARK    6  A    between atoms: C_20  and  N_21
REMARK    7  A    between atoms: C_22  and  C_24
REMARK                            x       y       z     vdW  Elec       q    Type
REMARK                         _______ _______ _______ _____ _____    ______ ____
ROOT
ATOM      1  C   UNL     1      48.921   7.772  11.404  0.00  0.00    +0.000 C 
ATOM      2  C   UNL     1      47.934   7.419  12.523  0.00  0.00    +0.000 C 
ENDROOT
BRANCH   2   3
ATOM      3  C   UNL     1      48.690   7.099  13.812  0.00  0.00    +0.000 A 
ATOM      4  C   UNL     1      49.972   7.613  14.050  0.00  0.00    +0.000 A 
ATOM      5  C   UNL     1      50.632   7.359  15.264  0.00  0.00    +0.000 A 
ATOM      6  C   UNL     1      50.029   6.582  16.264  0.00  0.00    +0.000 A 
ATOM      7  C   UNL     1      48.752   6.063  16.023  0.00  0.00    +0.000 A 
ATOM      8  C   UNL     1      48.096   6.311  14.812  0.00  0.00    +0.000 A 
BRANCH   6   9
ATOM      9  C   UNL     1      50.716   6.330  17.584  0.00  0.00    +0.000 C 
BRANCH   9  10
ATOM     10  N   UNL     1      51.141   4.956  17.708  0.00  0.00    +0.000 N 
ATOM     11  C   UNL     1      52.473   4.607  17.660  0.00  0.00    +0.000 C 
ATOM     12  O   UNL     1      53.367   5.428  17.500  0.00  0.00    +0.000 OA
ATOM     13  H   UNL     1      50.441   4.257  17.898  0.00  0.00    +0.000 HD
BRANCH  11  14
ATOM     14  C   UNL     1      52.747   3.198  17.816  0.00  0.00    +0.000 A 
ATOM     15  C   UNL     1      51.932   2.101  18.019  0.00  0.00    +0.000 A 
ATOM     16  N   UNL     1      52.658   0.940  18.102  0.00  0.00    +0.000 NA
ATOM     17  C   UNL     1      53.909   1.309  17.951  0.00  0.00    +0.000 A 
ATOM     18  N   UNL     1      54.012   2.659  17.776  0.00  0.00    +0.000 N 
ATOM     19  H   UNL     1      54.866   3.183  17.635  0.00  0.00    +0.000 HD
ENDBRANCH  11  14
ENDBRANCH   9  10
ENDBRANCH   6   9
ENDBRANCH   2   3
BRANCH   2  20
ATOM     20  N   UNL     1      47.083   6.286  12.184  0.00  0.00    +0.000 N 
ATOM     21  C   UNL     1      45.716   6.358  12.080  0.00  0.00    +0.000 C 
ATOM     22  O   UNL     1      45.088   7.400  12.234  0.00  0.00    +0.000 OA
ATOM     23  H   UNL     1      47.488   5.372  12.361  0.00  0.00    +0.000 HD
BRANCH  21  24
ATOM     24  C   UNL     1      45.033   5.111  11.708  0.00  0.00    +0.000 A 
ATOM     25  C   UNL     1      44.278   4.429  12.655  0.00  0.00    +0.000 A 
ATOM     26  S   UNL     1      43.566   2.998  12.059  0.00  0.00    +0.000 S 
ATOM     27  C   UNL     1      44.271   3.219  10.527  0.00  0.00    +0.000 A 
ATOM     28  N   UNL     1      44.101   2.302   9.537  0.00  0.00    +0.000 NA
ATOM     29  C   UNL     1      44.715   2.585   8.437  0.00  0.00    +0.000 A 
ATOM     30  N   UNL     1      45.472   3.710   8.230  0.00  0.00    +0.000 N 
ATOM     31  C   UNL     1      45.631   4.684   9.185  0.00  0.00    +0.000 A 
ATOM     32  O   UNL     1      46.244   5.719   8.941  0.00  0.00    +0.000 OA
ATOM     33  C   UNL     1      45.001   4.392  10.456  0.00  0.00    +0.000 A 
ATOM     34  H   UNL     1      45.903   3.884   7.335  0.00  0.00    +0.000 HD
ENDBRANCH  21  24
ENDBRANCH   2  20
TORSDOF 6
ENDMDL
MODEL 7
REMARK VINA RESULT:    -6.538      3.173      4.389
REMARK INTER + INTRA:          -9.869
REMARK INTER:                  -9.139
REMARK INTRA:                  -0.729
REMARK UNBOUND:                -1.038
REMARK  Name = 
REMARK  7 active torsions:
REMARK  status: ('A' for Active; 'I' for Inactive)
REMARK    1  A    between atoms: C_1  and  C_2
REMARK    2  A    between atoms: C_2  and  N_3
REMARK    3  A    between atoms: C_2  and  C_16
REMARK    4  A    between atoms: C_4  and  C_6
REMARK    5  A    between atoms: C_19  and  C_20
REMARK    6  A    between atoms: C_20  and  N_21
REMARK    7  A    between atoms: C_22  and  C_24
REMARK                            x       y       z     vdW  Elec       q    Type
REMARK                         _______ _______ _______ _____ _____    ______ ____
ROOT
ATOM      1  C   UNL     1      47.639   4.903  15.487  0.00  0.00    +0.000 C 
ATOM      2  C   UNL     1      46.750   5.885  14.714  0.00  0.00    +0.000 C 
ENDROOT
BRANCH   2   3
ATOM      3  C   UNL     1      46.099   5.183  13.523  0.00  0.00    +0.000 A 
ATOM      4  C   UNL     1      46.330   3.825  13.264  0.00  0.00    +0.000 A 
ATOM      5  C   UNL     1      45.680   3.177  12.201  0.00  0.00    +0.000 A 
ATOM      6  C   UNL     1      44.790   3.872  11.370  0.00  0.00    +0.000 A 
ATOM      7  C   UNL     1      44.565   5.230  11.624  0.00  0.00    +0.000 A 
ATOM      8  C   UNL     1      45.216   5.877  12.679  0.00  0.00    +0.000 A 
BRANCH   6   9
ATOM      9  C   UNL     1      44.062   3.178  10.244  0.00  0.00    +0.000 C 
BRANCH   9  10
ATOM     10  N   UNL     1      44.980   2.635   9.272  0.00  0.00    +0.000 N 
ATOM     11  C   UNL     1      45.538   3.422   8.289  0.00  0.00    +0.000 C 
ATOM     12  O   UNL     1      45.284   4.614   8.172  0.00  0.00    +0.000 OA
ATOM     13  H   UNL     1      45.260   1.672   9.369  0.00  0.00    +0.000 HD
BRANCH  11  14
ATOM     14  C   UNL     1      46.452   2.744   7.400  0.00  0.00    +0.000 A 
ATOM     15  C   UNL     1      47.007   1.478   7.413  0.00  0.00    +0.000 A 
ATOM     16  N   UNL     1      47.830   1.277   6.335  0.00  0.00    +0.000 NA
ATOM     17  C   UNL     1      47.788   2.401   5.659  0.00  0.00    +0.000 A 
ATOM     18  N   UNL     1      46.971   3.314   6.261  0.00  0.00    +0.000 N 
ATOM     19  H   UNL     1      46.772   4.250   5.933  0.00  0.00    +0.000 HD
ENDBRANCH  11  14
ENDBRANCH   9  10
ENDBRANCH   6   9
ENDBRANCH   2   3
BRANCH   2  20
ATOM     20  N   UNL     1      47.484   7.047  14.231  0.00  0.00    +0.000 N 
ATOM     21  C   UNL     1      48.541   6.977  13.357  0.00  0.00    +0.000 C 
ATOM     22  O   UNL     1      48.943   5.922  12.878  0.00  0.00    +0.000 OA
ATOM     23  H   UNL     1      47.419   7.874  14.816  0.00  0.00    +0.000 HD
BRANCH  21  24
ATOM     24  C   UNL     1      49.142   8.261  12.971  0.00  0.00    +0.000 A 
ATOM     25  C   UNL     1      49.142   8.649  11.637  0.00  0.00    +0.000 A 
ATOM     26  S   UNL     1      49.891  10.158  11.365  0.00  0.00    +0.000 S 
ATOM     27  C   UNL     1      50.275  10.327  13.013  0.00  0.00    +0.000 A 
ATOM     28  N   UNL     1      50.980  11.400  13.464  0.00  0.00    +0.000 NA
ATOM     29  C   UNL     1      51.223  11.384  14.732  0.00  0.00    +0.000 A 
ATOM     30  N   UNL     1      50.812  10.401  15.595  0.00  0.00    +0.000 N 
ATOM     31  C   UNL     1      50.057   9.326  15.192  0.00  0.00    +0.000 A 
ATOM     32  O   UNL     1      49.633   8.508  16.003  0.00  0.00    +0.000 OA
ATOM     33  C   UNL     1      49.797   9.271  13.768  0.00  0.00    +0.000 A 
ATOM     34  H   UNL     1      51.011  10.464  16.582  0.00  0.00    +0.000 HD
ENDBRANCH  21  24
ENDBRANCH   2  20
TORSDOF 6
ENDMDL
MODEL 8
REMARK VINA RESULT:    -6.405      4.412      7.751
REMARK INTER + INTRA:          -9.689
REMARK INTER:                  -8.795
REMARK INTRA:                  -0.894
REMARK UNBOUND:                -1.038
REMARK  Name = 
REMARK  7 active torsions:
REMARK  status: ('A' for Active; 'I' for Inactive)
REMARK    1  A    between atoms: C_1  and  C_2
REMARK    2  A    between atoms: C_2  and  N_3
REMARK    3  A    between atoms: C_2  and  C_16
REMARK    4  A    between atoms: C_4  and  C_6
REMARK    5  A    between atoms: C_19  and  C_20
REMARK    6  A    between atoms: C_20  and  N_21
REMARK    7  A    between atoms: C_22  and  C_24
REMARK                            x       y       z     vdW  Elec       q    Type
REMARK                         _______ _______ _______ _____ _____    ______ ____
ROOT
ATOM      1  C   UNL     1      45.331   9.395  12.499  0.00  0.00    +0.000 C 
ATOM      2  C   UNL     1      45.949   8.094  13.026  0.00  0.00    +0.000 C 
ENDROOT
BRANCH   2   3
ATOM      3  C   UNL     1      47.461   8.103  12.812  0.00  0.00    +0.000 A 
ATOM      4  C   UNL     1      48.025   7.702  11.593  0.00  0.00    +0.000 A 
ATOM      5  C   UNL     1      49.413   7.770  11.388  0.00  0.00    +0.000 A 
ATOM      6  C   UNL     1      50.269   8.233  12.398  0.00  0.00    +0.000 A 
ATOM      7  C   UNL     1      49.707   8.626  13.618  0.00  0.00    +0.000 A 
ATOM      8  C   UNL     1      48.325   8.553  13.824  0.00  0.00    +0.000 A 
BRANCH   6   9
ATOM      9  C   UNL     1      51.758   8.340  12.178  0.00  0.00    +0.000 C 
BRANCH   9  10
ATOM     10  N   UNL     1      52.206   7.451  11.133  0.00  0.00    +0.000 N 
ATOM     11  C   UNL     1      52.511   7.915   9.873  0.00  0.00    +0.000 C 
ATOM     12  O   UNL     1      52.412   9.094   9.560  0.00  0.00    +0.000 OA
ATOM     13  H   UNL     1      52.356   6.482  11.365  0.00  0.00    +0.000 HD
BRANCH  11  14
ATOM     14  C   UNL     1      52.963   6.911   8.938  0.00  0.00    +0.000 A 
ATOM     15  C   UNL     1      52.723   6.708   7.593  0.00  0.00    +0.000 A 
ATOM     16  N   UNL     1      53.387   5.604   7.122  0.00  0.00    +0.000 NA
ATOM     17  C   UNL     1      54.034   5.127   8.160  0.00  0.00    +0.000 A 
ATOM     18  N   UNL     1      53.809   5.881   9.276  0.00  0.00    +0.000 N 
ATOM     19  H   UNL     1      54.196   5.721  10.197  0.00  0.00    +0.000 HD
ENDBRANCH  11  14
ENDBRANCH   9  10
ENDBRANCH   6   9
ENDBRANCH   2   3
BRANCH   2  20
ATOM     20  N   UNL     1      45.390   6.909  12.388  0.00  0.00    +0.000 N 
ATOM     21  C   UNL     1      45.508   5.639  12.894  0.00  0.00    +0.000 C 
ATOM     22  O   UNL     1      46.073   5.391  13.954  0.00  0.00    +0.000 OA
ATOM     23  H   UNL     1      45.209   6.998  11.393  0.00  0.00    +0.000 HD
BRANCH  21  24
ATOM     24  C   UNL     1      44.860   4.573  12.116  0.00  0.00    +0.000 A 
ATOM     25  C   UNL     1      44.052   3.643  12.758  0.00  0.00    +0.000 A 
ATOM     26  S   UNL     1      43.392   2.472  11.708  0.00  0.00    +0.000 S 
ATOM     27  C   UNL     1      44.192   3.142  10.366  0.00  0.00    +0.000 A 
ATOM     28  N   UNL     1      44.094   2.575   9.134  0.00  0.00    +0.000 NA
ATOM     29  C   UNL     1      44.776   3.174   8.215  0.00  0.00    +0.000 A 
ATOM     30  N   UNL     1      45.536   4.298   8.412  0.00  0.00    +0.000 N 
ATOM     31  C   UNL     1      45.625   4.932   9.627  0.00  0.00    +0.000 A 
ATOM     32  O   UNL     1      46.244   5.985   9.752  0.00  0.00    +0.000 OA
ATOM     33  C   UNL     1      44.916   4.272  10.704  0.00  0.00    +0.000 A 
ATOM     34  H   UNL     1      46.022   4.734   7.642  0.00  0.00    +0.000 HD
ENDBRANCH  21  24
ENDBRANCH   2  20
TORSDOF 6
ENDMDL
MODEL 9
REMARK VINA RESULT:    -6.081      4.452      6.493
REMARK INTER + INTRA:          -9.251
REMARK INTER:                  -8.148
REMARK INTRA:                  -1.103
REMARK UNBOUND:                -1.038
REMARK  Name = 
REMARK  7 active torsions:
REMARK  status: ('A' for Active; 'I' for Inactive)
REMARK    1  A    between atoms: C_1  and  C_2
REMARK    2  A    between atoms: C_2  and  N_3
REMARK    3  A    between atoms: C_2  and  C_16
REMARK    4  A    between atoms: C_4  and  C_6
REMARK    5  A    between atoms: C_19  and  C_20
REMARK    6  A    between atoms: C_20  and  N_21
REMARK    7  A    between atoms: C_22  and  C_24
REMARK                            x       y       z     vdW  Elec       q    Type
REMARK                         _______ _______ _______ _____ _____    ______ ____
ROOT
ATOM      1  C   UNL     1      48.431   9.293  15.061  0.00  0.00    +0.000 C 
ATOM      2  C   UNL     1      48.291   9.697  13.589  0.00  0.00    +0.000 C 
ENDROOT
BRANCH   2   3
ATOM      3  C   UNL     1      47.331   8.751  12.869  0.00  0.00    +0.000 A 
ATOM      4  C   UNL     1      47.686   7.422  12.599  0.00  0.00    +0.000 A 
ATOM      5  C   UNL     1      46.773   6.546  11.991  0.00  0.00    +0.000 A 
ATOM      6  C   UNL     1      45.488   6.979  11.632  0.00  0.00    +0.000 A 
ATOM      7  C   UNL     1      45.136   8.307  11.895  0.00  0.00    +0.000 A 
ATOM      8  C   UNL     1      46.047   9.182  12.496  0.00  0.00    +0.000 A 
BRANCH   6   9
ATOM      9  C   UNL     1      44.488   6.037  11.006  0.00  0.00    +0.000 C 
BRANCH   9  10
ATOM     10  N   UNL     1      45.120   5.135  10.073  0.00  0.00    +0.000 N 
ATOM     11  C   UNL     1      44.606   3.882   9.821  0.00  0.00    +0.000 C 
ATOM     12  O   UNL     1      43.600   3.456  10.374  0.00  0.00    +0.000 OA
ATOM     13  H   UNL     1      45.917   5.468   9.555  0.00  0.00    +0.000 HD
BRANCH  11  14
ATOM     14  C   UNL     1      45.335   3.099   8.851  0.00  0.00    +0.000 A 
ATOM     15  C   UNL     1      45.594   1.746   8.742  0.00  0.00    +0.000 A 
ATOM     16  N   UNL     1      46.340   1.463   7.627  0.00  0.00    +0.000 NA
ATOM     17  C   UNL     1      46.541   2.623   7.047  0.00  0.00    +0.000 A 
ATOM     18  N   UNL     1      45.955   3.638   7.748  0.00  0.00    +0.000 N 
ATOM     19  H   UNL     1      45.965   4.620   7.505  0.00  0.00    +0.000 HD
ENDBRANCH  11  14
ENDBRANCH   9  10
ENDBRANCH   6   9
ENDBRANCH   2   3
BRANCH   2  20
ATOM     20  N   UNL     1      49.566   9.698  12.883  0.00  0.00    +0.000 N 
ATOM     21  C   UNL     1      49.789  10.365  11.704  0.00  0.00    +0.000 C 
ATOM     22  O   UNL     1      48.936  11.050  11.151  0.00  0.00    +0.000 OA
ATOM     23  H   UNL     1      50.182   8.922  13.102  0.00  0.00    +0.000 HD
BRANCH  21  24
ATOM     24  C   UNL     1      51.149  10.262  11.154  0.00  0.00    +0.000 A 
ATOM     25  C   UNL     1      51.899  11.413  10.950  0.00  0.00    +0.000 A 
ATOM     26  S   UNL     1      53.446  11.113  10.296  0.00  0.00    +0.000 S 
ATOM     27  C   UNL     1      53.153   9.439  10.227  0.00  0.00    +0.000 A 
ATOM     28  N   UNL     1      54.075   8.585   9.707  0.00  0.00    +0.000 NA
ATOM     29  C   UNL     1      53.708   7.347   9.693  0.00  0.00    +0.000 A 
ATOM     30  N   UNL     1      52.508   6.881  10.166  0.00  0.00    +0.000 N 
ATOM     31  C   UNL     1      51.568   7.701  10.743  0.00  0.00    +0.000 A 
ATOM     32  O   UNL     1      50.541   7.242  11.234  0.00  0.00    +0.000 OA
ATOM     33  C   UNL     1      51.911   9.108  10.740  0.00  0.00    +0.000 A 
ATOM     34  H   UNL     1      52.295   5.896  10.151  0.00  0.00    +0.000 HD
ENDBRANCH  21  24
ENDBRANCH   2  20
TORSDOF 6
ENDMDL
