MODEL 1
REMARK VINA RESULT:    -8.500      0.000      0.000
REMARK INTER + INTRA:         -12.297
REMARK INTER:                 -11.482
REMARK INTRA:                  -0.815
REMARK UNBOUND:                -0.815
REMARK  Name = 
REMARK  6 active torsions:
REMARK  status: ('A' for Active; 'I' for Inactive)
REMARK    1  A    between atoms: C_2  and  C_4
REMARK    2  A    between atoms: C_8  and  C_9
REMARK    3  A    between atoms: C_9  and  C_10
REMARK    4  A    between atoms: C_13  and  C_14
REMARK    5  A    between atoms: C_14  and  N_15
REMARK    6  A    between atoms: C_16  and  C_18
REMARK                            x       y       z     vdW  Elec       q    Type
REMARK                         _______ _______ _______ _____ _____    ______ ____
ROOT
ATOM      1  C   UNL     1      44.750   5.334  10.531  0.00  0.00    +0.000 A 
ATOM      2  C   UNL     1      45.961   5.894  10.101  0.00  0.00    +0.000 A 
ATOM      3  C   UNL     1      46.710   6.714  10.951  0.00  0.00    +0.000 A 
ATOM      4  C   UNL     1      46.268   6.982  12.253  0.00  0.00    +0.000 A 
ATOM      5  C   UNL     1      45.032   6.468  12.664  0.00  0.00    +0.000 A 
ATOM      6  C   UNL     1      44.285   5.645  11.815  0.00  0.00    +0.000 A 
ENDROOT
BRANCH   1   7
ATOM      7  C   UNL     1      43.986   4.372   9.650  0.00  0.00    +0.000 C 
BRANCH   7  12
ATOM      8  C   UNL     1      46.456   2.626   7.316  0.00  0.00    +0.000 A 
ATOM      9  C   UNL     1      46.349   1.339   7.824  0.00  0.00    +0.000 A 
ATOM     10  N   UNL     1      45.573   1.012   8.885  0.00  0.00    +0.000 NA
ATOM     11  C   UNL     1      44.850   2.011   9.440  0.00  0.00    +0.000 A 
ATOM     12  C   UNL     1      44.867   3.333   9.001  0.00  0.00    +0.000 A 
ATOM     13  C   UNL     1      45.695   3.638   7.912  0.00  0.00    +0.000 A 
BRANCH   8  15
ATOM     14  N   UNL     1      48.674   2.567   6.324  0.00  0.00    +0.000 N 
ATOM     15  C   UNL     1      47.347   2.855   6.159  0.00  0.00    +0.000 C 
ATOM     16  O   UNL     1      46.916   3.253   5.084  0.00  0.00    +0.000 OA
ATOM     17  H   UNL     1      49.247   2.622   5.490  0.00  0.00    +0.000 HD
ATOM     18  H   UNL     1      49.014   1.997   7.084  0.00  0.00    +0.000 HD
ENDBRANCH   8  15
ENDBRANCH   7  12
ENDBRANCH   1   7
BRANCH   4  19
ATOM     19  C   UNL     1      47.098   7.814  13.197  0.00  0.00    +0.000 C 
BRANCH  19  20
ATOM     20  N   UNL     1      47.398   7.098  14.409  0.00  0.00    +0.000 N 
ATOM     21  C   UNL     1      48.684   7.023  14.881  0.00  0.00    +0.000 C 
ATOM     22  O   UNL     1      49.617   7.597  14.326  0.00  0.00    +0.000 OA
ATOM     23  H   UNL     1      46.701   6.441  14.742  0.00  0.00    +0.000 HD
BRANCH  21  24
ATOM     24  C   UNL     1      48.883   6.270  16.126  0.00  0.00    +0.000 A 
ATOM     25  C   UNL     1      49.799   6.723  17.064  0.00  0.00    +0.000 A 
ATOM     26  S   UNL     1      49.865   5.769  18.475  0.00  0.00    +0.000 S 
ATOM     27  C   UNL     1      48.709   4.683  17.859  0.00  0.00    +0.000 A 
ATOM     28  N   UNL     1      48.319   3.596  18.578  0.00  0.00    +0.000 NA
ATOM     29  C   UNL     1      47.463   2.838  17.977  0.00  0.00    +0.000 A 
ATOM     30  N   UNL     1      46.957   3.073  16.724  0.00  0.00    +0.000 N 
ATOM     31  C   UNL     1      47.300   4.173  15.974  0.00  0.00    +0.000 A 
ATOM     32  O   UNL     1      46.798   4.372  14.871  0.00  0.00    +0.000 OA
ATOM     33  C   UNL     1      48.268   5.052  16.600  0.00  0.00    +0.000 A 
ATOM     34  H   UNL     1      46.285   2.444  16.313  0.00  0.00    +0.000 HD
ENDBRANCH  21  24
ENDBRANCH  19  20
ENDBRANCH   4  19
TORSDOF 6
ENDMDL
MODEL 2
REMARK VINA RESULT:    -8.315      1.782      2.264
REMARK INTER + INTRA:         -12.048
REMARK INTER:                 -11.074
REMARK INTRA:                  -0.973
REMARK UNBOUND:                -0.815
REMARK  Name = 
REMARK  6 active torsions:
REMARK  status: ('A' for Active; 'I' for Inactive)
REMARK    1  A    between atoms: C_2  and  C_4
REMARK    2  A    between atoms: C_8  and  C_9
REMARK    3  A    between atoms: C_9  and  C_10
REMARK    4  A    between atoms: C_13  and  C_14
REMARK    5  A    between atoms: C_14  and  N_15
REMARK    6  A    between atoms: C_16  and  C_18
REMARK                            x       y       z     vdW  Elec       q    Type
REMARK                         _______ _______ _______ _____ _____    ______ ____
ROOT
ATOM      1  C   UNL     1      45.198   5.196  10.887  0.00  0.00    +0.000 A 
ATOM      2  C   UNL     1      45.932   6.337  10.533  0.00  0.00    +0.000 A 
ATOM      3  C   UNL     1      46.806   6.936  11.446  0.00  0.00    +0.000 A 
ATOM      4  C   UNL     1      46.973   6.398  12.729  0.00  0.00    +0.000 A 
ATOM      5  C   UNL     1      46.200   5.292  13.101  0.00  0.00    +0.000 A 
ATOM      6  C   UNL     1      45.328   4.692  12.188  0.00  0.00    +0.000 A 
ENDROOT
BRANCH   1   7
ATOM      7  C   UNL     1      44.325   4.493   9.874  0.00  0.00    +0.000 C 
BRANCH   7  12
ATOM      8  C   UNL     1      46.489   2.641   7.327  0.00  0.00    +0.000 A 
ATOM      9  C   UNL     1      46.234   1.342   7.742  0.00  0.00    +0.000 A 
ATOM     10  N   UNL     1      45.452   1.032   8.804  0.00  0.00    +0.000 NA
ATOM     11  C   UNL     1      44.877   2.066   9.458  0.00  0.00    +0.000 A 
ATOM     12  C   UNL     1      45.049   3.406   9.118  0.00  0.00    +0.000 A 
ATOM     13  C   UNL     1      45.879   3.690   8.024  0.00  0.00    +0.000 A 
BRANCH   8  15
ATOM     14  N   UNL     1      48.704   2.600   6.328  0.00  0.00    +0.000 N 
ATOM     15  C   UNL     1      47.370   2.847   6.158  0.00  0.00    +0.000 C 
ATOM     16  O   UNL     1      46.926   3.192   5.071  0.00  0.00    +0.000 OA
ATOM     17  H   UNL     1      49.273   2.637   5.491  0.00  0.00    +0.000 HD
ATOM     18  H   UNL     1      49.062   2.069   7.109  0.00  0.00    +0.000 HD
ENDBRANCH   8  15
ENDBRANCH   7  12
ENDBRANCH   1   7
BRANCH   4  19
ATOM     19  C   UNL     1      47.958   6.999  13.698  0.00  0.00    +0.000 C 
BRANCH  19  20
ATOM     20  N   UNL     1      47.821   6.431  15.013  0.00  0.00    +0.000 N 
ATOM     21  C   UNL     1      48.914   6.261  15.823  0.00  0.00    +0.000 C 
ATOM     22  O   UNL     1      50.038   6.628  15.488  0.00  0.00    +0.000 OA
ATOM     23  H   UNL     1      46.966   5.920  15.209  0.00  0.00    +0.000 HD
BRANCH  21  24
ATOM     24  C   UNL     1      48.667   5.673  17.146  0.00  0.00    +0.000 A 
ATOM     25  C   UNL     1      48.800   4.303  17.325  0.00  0.00    +0.000 A 
ATOM     26  S   UNL     1      48.536   3.793  18.930  0.00  0.00    +0.000 S 
ATOM     27  C   UNL     1      48.180   5.379  19.433  0.00  0.00    +0.000 A 
ATOM     28  N   UNL     1      47.842   5.643  20.723  0.00  0.00    +0.000 NA
ATOM     29  C   UNL     1      47.564   6.882  20.959  0.00  0.00    +0.000 A 
ATOM     30  N   UNL     1      47.600   7.882  20.021  0.00  0.00    +0.000 N 
ATOM     31  C   UNL     1      47.964   7.667  18.714  0.00  0.00    +0.000 A 
ATOM     32  O   UNL     1      48.021   8.593  17.909  0.00  0.00    +0.000 OA
ATOM     33  C   UNL     1      48.276   6.287  18.393  0.00  0.00    +0.000 A 
ATOM     34  H   UNL     1      47.376   8.833  20.272  0.00  0.00    +0.000 HD
ENDBRANCH  21  24
ENDBRANCH  19  20
ENDBRANCH   4  19
TORSDOF 6
ENDMDL
MODEL 3
REMARK VINA RESULT:    -7.693      4.740      9.480
REMARK INTER + INTRA:         -11.206
REMARK INTER:                 -10.576
REMARK INTRA:                  -0.630
REMARK UNBOUND:                -0.815
REMARK  Name = 
REMARK  6 active torsions:
REMARK  status: ('A' for Active; 'I' for Inactive)
REMARK    1  A    between atoms: C_2  and  C_4
REMARK    2  A    between atoms: C_8  and  C_9
REMARK    3  A    between atoms: C_9  and  C_10
REMARK    4  A    between atoms: C_13  and  C_14
REMARK    5  A    between atoms: C_14  and  N_15
REMARK    6  A    between atoms: C_16  and  C_18
REMARK                            x       y       z     vdW  Elec       q    Type
REMARK                         _______ _______ _______ _____ _____    ______ ____
ROOT
ATOM      1  C   UNL     1      51.447   3.877  17.616  0.00  0.00    +0.000 A 
ATOM      2  C   UNL     1      50.897   2.609  17.380  0.00  0.00    +0.000 A 
ATOM      3  C   UNL     1      49.527   2.458  17.144  0.00  0.00    +0.000 A 
ATOM      4  C   UNL     1      48.680   3.574  17.127  0.00  0.00    +0.000 A 
ATOM      5  C   UNL     1      49.220   4.833  17.417  0.00  0.00    +0.000 A 
ATOM      6  C   UNL     1      50.590   4.984  17.650  0.00  0.00    +0.000 A 
ENDROOT
BRANCH   1   7
ATOM      7  C   UNL     1      52.939   4.054  17.778  0.00  0.00    +0.000 C 
BRANCH   7  12
ATOM      8  C   UNL     1      54.441   0.545  17.930  0.00  0.00    +0.000 A 
ATOM      9  C   UNL     1      54.824   0.539  19.264  0.00  0.00    +0.000 A 
ATOM     10  N   UNL     1      54.669   1.598  20.095  0.00  0.00    +0.000 NA
ATOM     11  C   UNL     1      54.077   2.697  19.575  0.00  0.00    +0.000 A 
ATOM     12  C   UNL     1      53.638   2.806  18.257  0.00  0.00    +0.000 A 
ATOM     13  C   UNL     1      53.831   1.697  17.421  0.00  0.00    +0.000 A 
BRANCH   8  15
ATOM     14  N   UNL     1      54.143  -0.703  15.866  0.00  0.00    +0.000 N 
ATOM     15  C   UNL     1      54.675  -0.672  17.125  0.00  0.00    +0.000 C 
ATOM     16  O   UNL     1      55.348  -1.603  17.548  0.00  0.00    +0.000 OA
ATOM     17  H   UNL     1      54.409  -1.493  15.291  0.00  0.00    +0.000 HD
ATOM     18  H   UNL     1      53.823   0.129  15.392  0.00  0.00    +0.000 HD
ENDBRANCH   8  15
ENDBRANCH   7  12
ENDBRANCH   1   7
BRANCH   4  19
ATOM     19  C   UNL     1      47.214   3.429  16.812  0.00  0.00    +0.000 C 
BRANCH  19  20
ATOM     20  N   UNL     1      46.776   4.415  15.860  0.00  0.00    +0.000 N 
ATOM     21  C   UNL     1      46.842   4.170  14.513  0.00  0.00    +0.000 C 
ATOM     22  O   UNL     1      47.225   3.092  14.064  0.00  0.00    +0.000 OA
ATOM     23  H   UNL     1      46.683   5.369  16.193  0.00  0.00    +0.000 HD
BRANCH  21  24
ATOM     24  C   UNL     1      46.371   5.241  13.626  0.00  0.00    +0.000 A 
ATOM     25  C   UNL     1      47.187   6.336  13.376  0.00  0.00    +0.000 A 
ATOM     26  S   UNL     1      46.515   7.456  12.282  0.00  0.00    +0.000 S 
ATOM     27  C   UNL     1      45.085   6.545  12.143  0.00  0.00    +0.000 A 
ATOM     28  N   UNL     1      44.061   6.968  11.354  0.00  0.00    +0.000 NA
ATOM     29  C   UNL     1      43.024   6.199  11.369  0.00  0.00    +0.000 A 
ATOM     30  N   UNL     1      42.921   5.041  12.096  0.00  0.00    +0.000 N 
ATOM     31  C   UNL     1      43.940   4.560  12.883  0.00  0.00    +0.000 A 
ATOM     32  O   UNL     1      43.827   3.500  13.491  0.00  0.00    +0.000 OA
ATOM     33  C   UNL     1      45.126   5.394  12.911  0.00  0.00    +0.000 A 
ATOM     34  H   UNL     1      42.083   4.481  12.059  0.00  0.00    +0.000 HD
ENDBRANCH  21  24
ENDBRANCH  19  20
ENDBRANCH   4  19
TORSDOF 6
ENDMDL
MODEL 4
REMARK VINA RESULT:    -7.539      2.736      8.514
REMARK INTER + INTRA:         -10.998
REMARK INTER:                  -9.808
REMARK INTRA:                  -1.190
REMARK UNBOUND:                -0.815
REMARK  Name = 
REMARK  6 active torsions:
REMARK  status: ('A' for Active; 'I' for Inactive)
REMARK    1  A    between atoms: C_2  and  C_4
REMARK    2  A    between atoms: C_8  and  C_9
REMARK    3  A    between atoms: C_9  and  C_10
REMARK    4  A    between atoms: C_13  and  C_14
REMARK    5  A    between atoms: C_14  and  N_15
REMARK    6  A    between atoms: C_16  and  C_18
REMARK                            x       y       z     vdW  Elec       q    Type
REMARK                         _______ _______ _______ _____ _____    ______ ____
ROOT
ATOM      1  C   UNL     1      49.481   7.977  15.546  0.00  0.00    +0.000 A 
ATOM      2  C   UNL     1      48.253   8.640  15.411  0.00  0.00    +0.000 A 
ATOM      3  C   UNL     1      47.584   8.662  14.183  0.00  0.00    +0.000 A 
ATOM      4  C   UNL     1      48.125   8.010  13.067  0.00  0.00    +0.000 A 
ATOM      5  C   UNL     1      49.377   7.395  13.187  0.00  0.00    +0.000 A 
ATOM      6  C   UNL     1      50.044   7.371  14.416  0.00  0.00    +0.000 A 
ENDROOT
BRANCH   1   7
ATOM      7  C   UNL     1      50.160   7.872  16.893  0.00  0.00    +0.000 C 
BRANCH   7  12
ATOM      8  C   UNL     1      48.906   4.354  17.699  0.00  0.00    +0.000 A 
ATOM      9  C   UNL     1      49.298   4.293  19.028  0.00  0.00    +0.000 A 
ATOM     10  N   UNL     1      49.970   5.285  19.661  0.00  0.00    +0.000 NA
ATOM     11  C   UNL     1      50.232   6.398  18.939  0.00  0.00    +0.000 A 
ATOM     12  C   UNL     1      49.870   6.574  17.604  0.00  0.00    +0.000 A 
ATOM     13  C   UNL     1      49.192   5.519  16.977  0.00  0.00    +0.000 A 
BRANCH   8  15
ATOM     14  N   UNL     1      46.978   2.875  17.669  0.00  0.00    +0.000 N 
ATOM     15  C   UNL     1      48.189   3.198  17.121  0.00  0.00    +0.000 C 
ATOM     16  O   UNL     1      48.638   2.574  16.169  0.00  0.00    +0.000 OA
ATOM     17  H   UNL     1      46.452   2.155  17.188  0.00  0.00    +0.000 HD
ATOM     18  H   UNL     1      46.462   3.512  18.257  0.00  0.00    +0.000 HD
ENDBRANCH   8  15
ENDBRANCH   7  12
ENDBRANCH   1   7
BRANCH   4  19
ATOM     19  C   UNL     1      47.382   7.974  11.756  0.00  0.00    +0.000 C 
BRANCH  19  20
ATOM     20  N   UNL     1      46.737   6.705  11.547  0.00  0.00    +0.000 N 
ATOM     21  C   UNL     1      45.372   6.590  11.610  0.00  0.00    +0.000 C 
ATOM     22  O   UNL     1      44.644   7.563  11.794  0.00  0.00    +0.000 OA
ATOM     23  H   UNL     1      47.316   5.875  11.627  0.00  0.00    +0.000 HD
BRANCH  21  24
ATOM     24  C   UNL     1      44.814   5.252  11.381  0.00  0.00    +0.000 A 
ATOM     25  C   UNL     1      44.072   4.637  12.380  0.00  0.00    +0.000 A 
ATOM     26  S   UNL     1      43.448   3.115  11.932  0.00  0.00    +0.000 S 
ATOM     27  C   UNL     1      44.194   3.199  10.405  0.00  0.00    +0.000 A 
ATOM     28  N   UNL     1      44.072   2.180   9.512  0.00  0.00    +0.000 NA
ATOM     29  C   UNL     1      44.717   2.360   8.408  0.00  0.00    +0.000 A 
ATOM     30  N   UNL     1      45.467   3.469   8.113  0.00  0.00    +0.000 N 
ATOM     31  C   UNL     1      45.593   4.534   8.972  0.00  0.00    +0.000 A 
ATOM     32  O   UNL     1      46.243   5.529   8.660  0.00  0.00    +0.000 OA
ATOM     33  C   UNL     1      44.897   4.378  10.234  0.00  0.00    +0.000 A 
ATOM     34  H   UNL     1      45.942   3.551   7.227  0.00  0.00    +0.000 HD
ENDBRANCH  21  24
ENDBRANCH  19  20
ENDBRANCH   4  19
TORSDOF 6
ENDMDL
MODEL 5
REMARK VINA RESULT:    -7.488      3.600      8.102
REMARK INTER + INTRA:         -10.930
REMARK INTER:                  -9.707
REMARK INTRA:                  -1.223
REMARK UNBOUND:                -0.815
REMARK  Name = 
REMARK  6 active torsions:
REMARK  status: ('A' for Active; 'I' for Inactive)
REMARK    1  A    between atoms: C_2  and  C_4
REMARK    2  A    between atoms: C_8  and  C_9
REMARK    3  A    between atoms: C_9  and  C_10
REMARK    4  A    between atoms: C_13  and  C_14
REMARK    5  A    between atoms: C_14  and  N_15
REMARK    6  A    between atoms: C_16  and  C_18
REMARK                            x       y       z     vdW  Elec       q    Type
REMARK                         _______ _______ _______ _____ _____    ______ ____
ROOT
ATOM      1  C   UNL     1      49.639   7.610  15.913  0.00  0.00    +0.000 A 
ATOM      2  C   UNL     1      48.372   8.191  15.766  0.00  0.00    +0.000 A 
ATOM      3  C   UNL     1      47.861   8.481  14.497  0.00  0.00    +0.000 A 
ATOM      4  C   UNL     1      48.604   8.185  13.346  0.00  0.00    +0.000 A 
ATOM      5  C   UNL     1      49.891   7.656  13.494  0.00  0.00    +0.000 A 
ATOM      6  C   UNL     1      50.400   7.363  14.763  0.00  0.00    +0.000 A 
ENDROOT
BRANCH   1   7
ATOM      7  C   UNL     1      50.153   7.210  17.276  0.00  0.00    +0.000 C 
BRANCH   7  12
ATOM      8  C   UNL     1      49.649   3.431  17.538  0.00  0.00    +0.000 A 
ATOM      9  C   UNL     1      48.661   3.419  18.512  0.00  0.00    +0.000 A 
ATOM     10  N   UNL     1      48.184   4.536  19.112  0.00  0.00    +0.000 NA
ATOM     11  C   UNL     1      48.696   5.716  18.696  0.00  0.00    +0.000 A 
ATOM     12  C   UNL     1      49.677   5.846  17.714  0.00  0.00    +0.000 A 
ATOM     13  C   UNL     1      50.160   4.668  17.128  0.00  0.00    +0.000 A 
BRANCH   8  15
ATOM     14  N   UNL     1      50.968   1.397  17.710  0.00  0.00    +0.000 N 
ATOM     15  C   UNL     1      50.093   2.141  16.968  0.00  0.00    +0.000 C 
ATOM     16  O   UNL     1      49.671   1.734  15.894  0.00  0.00    +0.000 OA
ATOM     17  H   UNL     1      51.171   0.470  17.357  0.00  0.00    +0.000 HD
ATOM     18  H   UNL     1      51.124   1.565  18.693  0.00  0.00    +0.000 HD
ENDBRANCH   8  15
ENDBRANCH   7  12
ENDBRANCH   1   7
BRANCH   4  19
ATOM     19  C   UNL     1      48.037   8.436  11.973  0.00  0.00    +0.000 C 
BRANCH  19  20
ATOM     20  N   UNL     1      47.425   7.253  11.428  0.00  0.00    +0.000 N 
ATOM     21  C   UNL     1      46.061   7.119  11.394  0.00  0.00    +0.000 C 
ATOM     22  O   UNL     1      45.308   8.012  11.775  0.00  0.00    +0.000 OA
ATOM     23  H   UNL     1      48.014   6.432  11.330  0.00  0.00    +0.000 HD
BRANCH  21  24
ATOM     24  C   UNL     1      45.538   5.874  10.818  0.00  0.00    +0.000 A 
ATOM     25  C   UNL     1      45.775   5.582   9.482  0.00  0.00    +0.000 A 
ATOM     26  S   UNL     1      45.151   4.074   8.988  0.00  0.00    +0.000 S 
ATOM     27  C   UNL     1      44.494   3.781  10.530  0.00  0.00    +0.000 A 
ATOM     28  N   UNL     1      43.795   2.642  10.786  0.00  0.00    +0.000 NA
ATOM     29  C   UNL     1      43.323   2.565  11.986  0.00  0.00    +0.000 A 
ATOM     30  N   UNL     1      43.494   3.520  12.954  0.00  0.00    +0.000 N 
ATOM     31  C   UNL     1      44.216   4.671  12.750  0.00  0.00    +0.000 A 
ATOM     32  O   UNL     1      44.380   5.488  13.652  0.00  0.00    +0.000 OA
ATOM     33  C   UNL     1      44.760   4.813  11.413  0.00  0.00    +0.000 A 
ATOM     34  H   UNL     1      43.104   3.396  13.876  0.00  0.00    +0.000 HD
ENDBRANCH  21  24
ENDBRANCH  19  20
ENDBRANCH   4  19
TORSDOF 6
ENDMDL
MODEL 6
REMARK VINA RESULT:    -7.257      4.739      7.584
REMARK INTER + INTRA:         -10.618
REMARK INTER:                  -9.494
REMARK INTRA:                  -1.124
REMARK UNBOUND:                -0.815
REMARK  Name = 
REMARK  6 active torsions:
REMARK  status: ('A' for Active; 'I' for Inactive)
REMARK    1  A    between atoms: C_2  and  C_4
REMARK    2  A    between atoms: C_8  and  C_9
REMARK    3  A    between atoms: C_9  and  C_10
REMARK    4  A    between atoms: C_13  and  C_14
REMARK    5  A    between atoms: C_14  and  N_15
REMARK    6  A    between atoms: C_16  and  C_18
REMARK                            x       y       z     vdW  Elec       q    Type
REMARK                         _______ _______ _______ _____ _____    ______ ____
ROOT
ATOM      1  C   UNL     1      50.540   8.792  11.835  0.00  0.00    +0.000 A 
ATOM      2  C   UNL     1      50.008   7.546  12.194  0.00  0.00    +0.000 A 
ATOM      3  C   UNL     1      48.626   7.363  12.302  0.00  0.00    +0.000 A 
ATOM      4  C   UNL     1      47.746   8.423  12.041  0.00  0.00    +0.000 A 
ATOM      5  C   UNL     1      48.279   9.681  11.737  0.00  0.00    +0.000 A 
ATOM      6  C   UNL     1      49.661   9.862  11.626  0.00  0.00    +0.000 A 
ENDROOT
BRANCH   1   7
ATOM      7  C   UNL     1      52.027   8.967  11.626  0.00  0.00    +0.000 C 
BRANCH   7  12
ATOM      8  C   UNL     1      52.981   7.201   8.375  0.00  0.00    +0.000 A 
ATOM      9  C   UNL     1      53.378   8.311   7.643  0.00  0.00    +0.000 A 
ATOM     10  N   UNL     1      53.319   9.581   8.112  0.00  0.00    +0.000 NA
ATOM     11  C   UNL     1      52.872   9.742   9.378  0.00  0.00    +0.000 A 
ATOM     12  C   UNL     1      52.463   8.698  10.207  0.00  0.00    +0.000 A 
ATOM     13  C   UNL     1      52.522   7.400   9.682  0.00  0.00    +0.000 A 
BRANCH   8  15
ATOM     14  N   UNL     1      53.964   4.980   8.297  0.00  0.00    +0.000 N 
ATOM     15  C   UNL     1      53.083   5.868   7.745  0.00  0.00    +0.000 C 
ATOM     16  O   UNL     1      52.386   5.554   6.789  0.00  0.00    +0.000 OA
ATOM     17  H   UNL     1      53.937   4.039   7.924  0.00  0.00    +0.000 HD
ATOM     18  H   UNL     1      54.347   5.102   9.223  0.00  0.00    +0.000 HD
ENDBRANCH   8  15
ENDBRANCH   7  12
ENDBRANCH   1   7
BRANCH   4  19
ATOM     19  C   UNL     1      46.254   8.220  12.094  0.00  0.00    +0.000 C 
BRANCH  19  20
ATOM     20  N   UNL     1      45.896   6.851  11.835  0.00  0.00    +0.000 N 
ATOM     21  C   UNL     1      44.616   6.516  11.471  0.00  0.00    +0.000 C 
ATOM     22  O   UNL     1      43.743   7.363  11.303  0.00  0.00    +0.000 OA
ATOM     23  H   UNL     1      46.522   6.135  12.187  0.00  0.00    +0.000 HD
BRANCH  21  24
ATOM     24  C   UNL     1      44.355   5.091  11.228  0.00  0.00    +0.000 A 
ATOM     25  C   UNL     1      43.592   4.368  12.135  0.00  0.00    +0.000 A 
ATOM     26  S   UNL     1      43.334   2.747  11.676  0.00  0.00    +0.000 S 
ATOM     27  C   UNL     1      44.278   2.939  10.273  0.00  0.00    +0.000 A 
ATOM     28  N   UNL     1      44.484   1.898   9.423  0.00  0.00    +0.000 NA
ATOM     29  C   UNL     1      45.248   2.173   8.418  0.00  0.00    +0.000 A 
ATOM     30  N   UNL     1      45.818   3.397   8.184  0.00  0.00    +0.000 N 
ATOM     31  C   UNL     1      45.614   4.485   8.999  0.00  0.00    +0.000 A 
ATOM     32  O   UNL     1      46.110   5.577   8.738  0.00  0.00    +0.000 OA
ATOM     33  C   UNL     1      44.771   4.226  10.150  0.00  0.00    +0.000 A 
ATOM     34  H   UNL     1      46.401   3.549   7.375  0.00  0.00    +0.000 HD
ENDBRANCH  21  24
ENDBRANCH  19  20
ENDBRANCH   4  19
TORSDOF 6
ENDMDL
MODEL 7
REMARK VINA RESULT:    -7.098      4.069      8.877
REMARK INTER + INTRA:         -10.403
REMARK INTER:                  -9.285
REMARK INTRA:                  -1.118
REMARK UNBOUND:                -0.815
REMARK  Name = 
REMARK  6 active torsions:
REMARK  status: ('A' for Active; 'I' for Inactive)
REMARK    1  A    between atoms: C_2  and  C_4
REMARK    2  A    between atoms: C_8  and  C_9
REMARK    3  A    between atoms: C_9  and  C_10
REMARK    4  A    between atoms: C_13  and  C_14
REMARK    5  A    between atoms: C_14  and  N_15
REMARK    6  A    between atoms: C_16  and  C_18
REMARK                            x       y       z     vdW  Elec       q    Type
REMARK                         _______ _______ _______ _____ _____    ______ ____
ROOT
ATOM      1  C   UNL     1      51.289   3.728  18.231  0.00  0.00    +0.000 A 
ATOM      2  C   UNL     1      50.883   2.669  17.407  0.00  0.00    +0.000 A 
ATOM      3  C   UNL     1      49.543   2.527  17.034  0.00  0.00    +0.000 A 
ATOM      4  C   UNL     1      48.582   3.450  17.468  0.00  0.00    +0.000 A 
ATOM      5  C   UNL     1      48.977   4.475  18.336  0.00  0.00    +0.000 A 
ATOM      6  C   UNL     1      50.318   4.618  18.706  0.00  0.00    +0.000 A 
ENDROOT
BRANCH   1   7
ATOM      7  C   UNL     1      52.750   3.937  18.559  0.00  0.00    +0.000 C 
BRANCH   7  12
ATOM      8  C   UNL     1      53.563   6.561  15.903  0.00  0.00    +0.000 A 
ATOM      9  C   UNL     1      54.854   6.154  15.596  0.00  0.00    +0.000 A 
ATOM     10  N   UNL     1      55.485   5.127  16.214  0.00  0.00    +0.000 NA
ATOM     11  C   UNL     1      54.782   4.460  17.157  0.00  0.00    +0.000 A 
ATOM     12  C   UNL     1      53.476   4.771  17.532  0.00  0.00    +0.000 A 
ATOM     13  C   UNL     1      52.861   5.851  16.884  0.00  0.00    +0.000 A 
BRANCH   8  15
ATOM     14  N   UNL     1      53.849   8.701  14.787  0.00  0.00    +0.000 N 
ATOM     15  C   UNL     1      52.991   7.706  15.164  0.00  0.00    +0.000 C 
ATOM     16  O   UNL     1      51.804   7.750  14.868  0.00  0.00    +0.000 OA
ATOM     17  H   UNL     1      53.461   9.418  14.186  0.00  0.00    +0.000 HD
ATOM     18  H   UNL     1      54.851   8.576  14.773  0.00  0.00    +0.000 HD
ENDBRANCH   8  15
ENDBRANCH   7  12
ENDBRANCH   1   7
BRANCH   4  19
ATOM     19  C   UNL     1      47.147   3.342  17.021  0.00  0.00    +0.000 C 
BRANCH  19  20
ATOM     20  N   UNL     1      46.819   4.349  16.048  0.00  0.00    +0.000 N 
ATOM     21  C   UNL     1      46.991   4.114  14.708  0.00  0.00    +0.000 C 
ATOM     22  O   UNL     1      47.381   3.031  14.280  0.00  0.00    +0.000 OA
ATOM     23  H   UNL     1      46.723   5.302  16.383  0.00  0.00    +0.000 HD
BRANCH  21  24
ATOM     24  C   UNL     1      46.626   5.207  13.797  0.00  0.00    +0.000 A 
ATOM     25  C   UNL     1      47.508   6.259  13.596  0.00  0.00    +0.000 A 
ATOM     26  S   UNL     1      46.957   7.411  12.467  0.00  0.00    +0.000 S 
ATOM     27  C   UNL     1      45.493   6.572  12.246  0.00  0.00    +0.000 A 
ATOM     28  N   UNL     1      44.538   7.045  11.401  0.00  0.00    +0.000 NA
ATOM     29  C   UNL     1      43.465   6.329  11.355  0.00  0.00    +0.000 A 
ATOM     30  N   UNL     1      43.263   5.178  12.074  0.00  0.00    +0.000 N 
ATOM     31  C   UNL     1      44.210   4.648  12.916  0.00  0.00    +0.000 A 
ATOM     32  O   UNL     1      44.010   3.595  13.516  0.00  0.00    +0.000 OA
ATOM     33  C   UNL     1      45.433   5.421  13.013  0.00  0.00    +0.000 A 
ATOM     34  H   UNL     1      42.401   4.661  11.988  0.00  0.00    +0.000 HD
ENDBRANCH  21  24
ENDBRANCH  19  20
ENDBRANCH   4  19
TORSDOF 6
ENDMDL
MODEL 8
REMARK VINA RESULT:    -6.995      3.815      8.815
REMARK INTER + INTRA:         -10.264
REMARK INTER:                  -9.223
REMARK INTRA:                  -1.041
REMARK UNBOUND:                -0.815
REMARK  Name = 
REMARK  6 active torsions:
REMARK  status: ('A' for Active; 'I' for Inactive)
REMARK    1  A    between atoms: C_2  and  C_4
REMARK    2  A    between atoms: C_8  and  C_9
REMARK    3  A    between atoms: C_9  and  C_10
REMARK    4  A    between atoms: C_13  and  C_14
REMARK    5  A    between atoms: C_14  and  N_15
REMARK    6  A    between atoms: C_16  and  C_18
REMARK                            x       y       z     vdW  Elec       q    Type
REMARK                         _______ _______ _______ _____ _____    ______ ____
ROOT
ATOM      1  C   UNL     1      49.472   5.552  17.221  0.00  0.00    +0.000 A 
ATOM      2  C   UNL     1      48.301   5.121  16.582  0.00  0.00    +0.000 A 
ATOM      3  C   UNL     1      47.910   5.672  15.358  0.00  0.00    +0.000 A 
ATOM      4  C   UNL     1      48.690   6.660  14.741  0.00  0.00    +0.000 A 
ATOM      5  C   UNL     1      49.829   7.130  15.406  0.00  0.00    +0.000 A 
ATOM      6  C   UNL     1      50.221   6.576  16.628  0.00  0.00    +0.000 A 
ENDROOT
BRANCH   1   7
ATOM      7  C   UNL     1      49.945   4.892  18.495  0.00  0.00    +0.000 C 
BRANCH   7  12
ATOM      8  C   UNL     1      52.655   2.253  17.954  0.00  0.00    +0.000 A 
ATOM      9  C   UNL     1      53.767   3.039  18.217  0.00  0.00    +0.000 A 
ATOM     10  N   UNL     1      53.702   4.360  18.512  0.00  0.00    +0.000 NA
ATOM     11  C   UNL     1      52.468   4.908  18.577  0.00  0.00    +0.000 A 
ATOM     12  C   UNL     1      51.283   4.210  18.350  0.00  0.00    +0.000 A 
ATOM     13  C   UNL     1      51.390   2.849  18.029  0.00  0.00    +0.000 A 
BRANCH   8  15
ATOM     14  N   UNL     1      52.103  -0.087  18.314  0.00  0.00    +0.000 N 
ATOM     15  C   UNL     1      52.861   0.825  17.633  0.00  0.00    +0.000 C 
ATOM     16  O   UNL     1      53.651   0.469  16.768  0.00  0.00    +0.000 OA
ATOM     17  H   UNL     1      52.176  -1.047  18.000  0.00  0.00    +0.000 HD
ATOM     18  H   UNL     1      51.271   0.173  18.823  0.00  0.00    +0.000 HD
ENDBRANCH   8  15
ENDBRANCH   7  12
ENDBRANCH   1   7
BRANCH   4  19
ATOM     19  C   UNL     1      48.310   7.216  13.393  0.00  0.00    +0.000 C 
BRANCH  19  20
ATOM     20  N   UNL     1      47.553   6.266  12.623  0.00  0.00    +0.000 N 
ATOM     21  C   UNL     1      46.529   6.678  11.809  0.00  0.00    +0.000 C 
ATOM     22  O   UNL     1      46.248   7.865  11.664  0.00  0.00    +0.000 OA
ATOM     23  H   UNL     1      47.613   5.293  12.901  0.00  0.00    +0.000 HD
BRANCH  21  24
ATOM     24  C   UNL     1      45.819   5.629  11.065  0.00  0.00    +0.000 A 
ATOM     25  C   UNL     1      45.897   5.597   9.680  0.00  0.00    +0.000 A 
ATOM     26  S   UNL     1      45.067   4.284   8.977  0.00  0.00    +0.000 S 
ATOM     27  C   UNL     1      44.527   3.743  10.497  0.00  0.00    +0.000 A 
ATOM     28  N   UNL     1      43.733   2.644  10.605  0.00  0.00    +0.000 NA
ATOM     29  C   UNL     1      43.369   2.366  11.812  0.00  0.00    +0.000 A 
ATOM     30  N   UNL     1      43.733   3.083  12.922  0.00  0.00    +0.000 N 
ATOM     31  C   UNL     1      44.557   4.181  12.864  0.00  0.00    +0.000 A 
ATOM     32  O   UNL     1      44.894   4.778  13.883  0.00  0.00    +0.000 OA
ATOM     33  C   UNL     1      44.987   4.544  11.527  0.00  0.00    +0.000 A 
ATOM     34  H   UNL     1      43.419   2.809  13.840  0.00  0.00    +0.000 HD
ENDBRANCH  21  24
ENDBRANCH  19  20
ENDBRANCH   4  19
TORSDOF 6
ENDMDL
MODEL 9
REMARK VINA RESULT:    -6.978      4.763      9.525
REMARK INTER + INTRA:         -10.241
REMARK INTER:                  -9.270
REMARK INTRA:                  -0.972
REMARK UNBOUND:                -0.815
REMARK  Name = 
REMARK  6 active torsions:
REMARK  status: ('A' for Active; 'I' for Inactive)
REMARK    1  A    between atoms: C_2  and  C_4
REMARK    2  A    between atoms: C_8  and  C_9
REMARK    3  A    between atoms: C_9  and  C_10
REMARK    4  A    between atoms: C_13  and  C_14
REMARK    5  A    between atoms: C_14  and  N_15
REMARK    6  A    between atoms: C_16  and  C_18
REMARK                            x       y       z     vdW  Elec       q    Type
REMARK                         _______ _______ _______ _____ _____    ______ ____
ROOT
ATOM      1  C   UNL     1      51.723   3.630  17.731  0.00  0.00    +0.000 A 
ATOM      2  C   UNL     1      51.099   2.428  17.367  0.00  0.00    +0.000 A 
ATOM      3  C   UNL     1      49.713   2.366  17.199  0.00  0.00    +0.000 A 
ATOM      4  C   UNL     1      48.921   3.508  17.380  0.00  0.00    +0.000 A 
ATOM      5  C   UNL     1      49.537   4.694  17.797  0.00  0.00    +0.000 A 
ATOM      6  C   UNL     1      50.924   4.757  17.962  0.00  0.00    +0.000 A 
ENDROOT
BRANCH   1   7
ATOM      7  C   UNL     1      53.229   3.724  17.821  0.00  0.00    +0.000 C 
BRANCH   7  12
ATOM      8  C   UNL     1      54.670   0.186  17.772  0.00  0.00    +0.000 A 
ATOM      9  C   UNL     1      54.975   0.066  19.121  0.00  0.00    +0.000 A 
ATOM     10  N   UNL     1      54.787   1.056  20.025  0.00  0.00    +0.000 NA
ATOM     11  C   UNL     1      54.241   2.205  19.564  0.00  0.00    +0.000 A 
ATOM     12  C   UNL     1      53.881   2.428  18.236  0.00  0.00    +0.000 A 
ATOM     13  C   UNL     1      54.107   1.386  17.325  0.00  0.00    +0.000 A 
BRANCH   8  15
ATOM     14  N   UNL     1      54.429  -2.179  17.264  0.00  0.00    +0.000 N 
ATOM     15  C   UNL     1      54.935  -0.967  16.885  0.00  0.00    +0.000 C 
ATOM     16  O   UNL     1      55.551  -0.840  15.835  0.00  0.00    +0.000 OA
ATOM     17  H   UNL     1      54.523  -2.929  16.590  0.00  0.00    +0.000 HD
ATOM     18  H   UNL     1      53.705  -2.270  17.962  0.00  0.00    +0.000 HD
ENDBRANCH   8  15
ENDBRANCH   7  12
ENDBRANCH   1   7
BRANCH   4  19
ATOM     19  C   UNL     1      47.434   3.466  17.141  0.00  0.00    +0.000 C 
BRANCH  19  20
ATOM     20  N   UNL     1      47.027   4.442  16.166  0.00  0.00    +0.000 N 
ATOM     21  C   UNL     1      47.027   4.143  14.828  0.00  0.00    +0.000 C 
ATOM     22  O   UNL     1      47.322   3.026  14.410  0.00  0.00    +0.000 OA
ATOM     23  H   UNL     1      47.008   5.412  16.464  0.00  0.00    +0.000 HD
BRANCH  21  24
ATOM     24  C   UNL     1      46.594   5.209  13.916  0.00  0.00    +0.000 A 
ATOM     25  C   UNL     1      45.389   5.086  13.238  0.00  0.00    +0.000 A 
ATOM     26  S   UNL     1      45.007   6.435  12.268  0.00  0.00    +0.000 S 
ATOM     27  C   UNL     1      46.466   7.209  12.677  0.00  0.00    +0.000 A 
ATOM     28  N   UNL     1      46.780   8.426  12.157  0.00  0.00    +0.000 NA
ATOM     29  C   UNL     1      47.932   8.881  12.524  0.00  0.00    +0.000 A 
ATOM     30  N   UNL     1      48.794   8.232  13.370  0.00  0.00    +0.000 N 
ATOM     31  C   UNL     1      48.506   7.017  13.942  0.00  0.00    +0.000 A 
ATOM     32  O   UNL     1      49.285   6.482  14.725  0.00  0.00    +0.000 OA
ATOM     33  C   UNL     1      47.227   6.455  13.553  0.00  0.00    +0.000 A 
ATOM     34  H   UNL     1      49.678   8.647  13.623  0.00  0.00    +0.000 HD
ENDBRANCH  21  24
ENDBRANCH  19  20
ENDBRANCH   4  19
TORSDOF 6
ENDMDL
