MODEL 1
REMARK VINA RESULT:    -8.084      0.000      0.000
REMARK INTER + INTRA:         -13.075
REMARK INTER:                 -11.865
REMARK INTRA:                  -1.210
REMARK UNBOUND:                -1.210
REMARK  Name = 
REMARK  9 active torsions:
REMARK  status: ('A' for Active; 'I' for Inactive)
REMARK    1  A    between atoms: C_1  and  O_2
REMARK    2  A    between atoms: O_2  and  C_3
REMARK    3  A    between atoms: C_10  and  C_11
REMARK    4  A    between atoms: N_13  and  C_14
REMARK    5  A    between atoms: C_14  and  C_15
REMARK    6  A    between atoms: C_18  and  C_19
REMARK    7  A    between atoms: C_19  and  O_20
REMARK    8  A    between atoms: O_20  and  C_21
REMARK    9  A    between atoms: C_21  and  C_22
REMARK                            x       y       z     vdW  Elec       q    Type
REMARK                         _______ _______ _______ _____ _____    ______ ____
ROOT
ATOM      1  C   UNL     1      48.013   6.763  13.178  0.00  0.00    +0.000 C 
ENDROOT
BRANCH   1   2
ATOM      2  C   UNL     1      46.842   5.986  12.632  0.00  0.00    +0.000 A 
ATOM      3  C   UNL     1      46.291   4.912  13.346  0.00  0.00    +0.000 A 
ATOM      4  C   UNL     1      45.217   4.181  12.821  0.00  0.00    +0.000 A 
ATOM      5  C   UNL     1      44.673   4.503  11.569  0.00  0.00    +0.000 A 
ATOM      6  C   UNL     1      45.224   5.575  10.857  0.00  0.00    +0.000 A 
ATOM      7  C   UNL     1      46.301   6.303  11.378  0.00  0.00    +0.000 A 
BRANCH   5   8
ATOM      8  C   UNL     1      43.538   3.694  10.988  0.00  0.00    +0.000 C 
BRANCH   8   9
ATOM      9  O   UNL     1      43.843   3.348   9.641  0.00  0.00    +0.000 OA
BRANCH   9  10
ATOM     10  C   UNL     1      44.601   2.136   9.565  0.00  0.00    +0.000 C 
BRANCH  10  11
ATOM     11  C   UNL     1      45.638   2.211   8.463  0.00  0.00    +0.000 A 
ATOM     12  C   UNL     1      45.877   3.409   7.791  0.00  0.00    +0.000 A 
ATOM     13  C   UNL     1      46.844   3.445   6.792  0.00  0.00    +0.000 A 
ATOM     14  C   UNL     1      47.559   2.292   6.496  0.00  0.00    +0.000 A 
ATOM     15  C   UNL     1      47.279   1.148   7.222  0.00  0.00    +0.000 A 
ATOM     16  N   UNL     1      46.346   1.081   8.198  0.00  0.00    +0.000 NA
ENDBRANCH  10  11
ENDBRANCH   9  10
ENDBRANCH   8   9
ENDBRANCH   5   8
ENDBRANCH   1   2
BRANCH   1  19
ATOM     17  C   UNL     1      49.087   7.113  15.367  0.00  0.00    +0.000 C 
ATOM     18  O   UNL     1      50.176   7.320  14.836  0.00  0.00    +0.000 OA
ATOM     19  N   UNL     1      47.976   6.827  14.620  0.00  0.00    +0.000 N 
ATOM     20  H   UNL     1      47.100   6.605  15.074  0.00  0.00    +0.000 HD
BRANCH  17  28
ATOM     21  C   UNL     1      48.828   4.697  17.810  0.00  0.00    +0.000 A 
ATOM     22  N   UNL     1      48.718   3.976  18.944  0.00  0.00    +0.000 NA
ATOM     23  C   UNL     1      48.585   4.635  20.098  0.00  0.00    +0.000 A 
ATOM     24  N   UNL     1      48.547   5.953  20.265  0.00  0.00    +0.000 NA
ATOM     25  C   UNL     1      48.671   6.634  19.113  0.00  0.00    +0.000 A 
ATOM     26  S   UNL     1      48.644   8.330  19.136  0.00  0.00    +0.000 S 
ATOM     27  C   UNL     1      48.835   8.407  17.448  0.00  0.00    +0.000 A 
ATOM     28  C   UNL     1      48.927   7.161  16.836  0.00  0.00    +0.000 A 
ATOM     29  C   UNL     1      48.825   6.102  17.835  0.00  0.00    +0.000 A 
BRANCH  21  31
ATOM     30  C   UNL     1      47.847   3.234  16.279  0.00  0.00    +0.000 C 
ATOM     31  O   UNL     1      48.991   4.011  16.625  0.00  0.00    +0.000 OA
ENDBRANCH  21  31
ENDBRANCH  17  28
ENDBRANCH   1  19
TORSDOF 8
ENDMDL
MODEL 2
REMARK VINA RESULT:    -7.797      1.596      2.751
REMARK INTER + INTRA:         -12.654
REMARK INTER:                 -11.392
REMARK INTRA:                  -1.262
REMARK UNBOUND:                -1.210
REMARK  Name = 
REMARK  9 active torsions:
REMARK  status: ('A' for Active; 'I' for Inactive)
REMARK    1  A    between atoms: C_1  and  O_2
REMARK    2  A    between atoms: O_2  and  C_3
REMARK    3  A    between atoms: C_10  and  C_11
REMARK    4  A    between atoms: N_13  and  C_14
REMARK    5  A    between atoms: C_14  and  C_15
REMARK    6  A    between atoms: C_18  and  C_19
REMARK    7  A    between atoms: C_19  and  O_20
REMARK    8  A    between atoms: O_20  and  C_21
REMARK    9  A    between atoms: C_21  and  C_22
REMARK                            x       y       z     vdW  Elec       q    Type
REMARK                         _______ _______ _______ _____ _____    ______ ____
ROOT
ATOM      1  C   UNL     1      48.314   6.561  13.787  0.00  0.00    +0.000 C 
ENDROOT
BRANCH   1   2
ATOM      2  C   UNL     1      47.144   5.975  13.036  0.00  0.00    +0.000 A 
ATOM      3  C   UNL     1      46.775   6.466  11.776  0.00  0.00    +0.000 A 
ATOM      4  C   UNL     1      45.673   5.932  11.095  0.00  0.00    +0.000 A 
ATOM      5  C   UNL     1      44.913   4.898  11.659  0.00  0.00    +0.000 A 
ATOM      6  C   UNL     1      45.282   4.408  12.918  0.00  0.00    +0.000 A 
ATOM      7  C   UNL     1      46.379   4.945  13.602  0.00  0.00    +0.000 A 
BRANCH   5   8
ATOM      8  C   UNL     1      43.705   4.344  10.941  0.00  0.00    +0.000 C 
BRANCH   8   9
ATOM      9  O   UNL     1      44.077   3.947   9.625  0.00  0.00    +0.000 OA
BRANCH   9  10
ATOM     10  C   UNL     1      44.587   2.609   9.600  0.00  0.00    +0.000 C 
BRANCH  10  11
ATOM     11  C   UNL     1      45.580   2.427   8.470  0.00  0.00    +0.000 A 
ATOM     12  C   UNL     1      45.897   3.487   7.622  0.00  0.00    +0.000 A 
ATOM     13  C   UNL     1      46.819   3.288   6.601  0.00  0.00    +0.000 A 
ATOM     14  C   UNL     1      47.415   2.042   6.457  0.00  0.00    +0.000 A 
ATOM     15  C   UNL     1      47.064   1.045   7.352  0.00  0.00    +0.000 A 
ATOM     16  N   UNL     1      46.171   1.208   8.353  0.00  0.00    +0.000 NA
ENDBRANCH  10  11
ENDBRANCH   9  10
ENDBRANCH   8   9
ENDBRANCH   5   8
ENDBRANCH   1   2
BRANCH   1  19
ATOM     17  C   UNL     1      48.919   6.386  16.168  0.00  0.00    +0.000 C 
ATOM     18  O   UNL     1      50.031   5.943  15.886  0.00  0.00    +0.000 OA
ATOM     19  N   UNL     1      48.015   6.708  15.192  0.00  0.00    +0.000 N 
ATOM     20  H   UNL     1      47.086   7.020  15.441  0.00  0.00    +0.000 HD
BRANCH  17  28
ATOM     21  C   UNL     1      47.872   9.132  17.965  0.00  0.00    +0.000 A 
ATOM     22  N   UNL     1      47.434  10.018  18.883  0.00  0.00    +0.000 NA
ATOM     23  C   UNL     1      47.205   9.578  20.123  0.00  0.00    +0.000 A 
ATOM     24  N   UNL     1      47.362   8.337  20.571  0.00  0.00    +0.000 NA
ATOM     25  C   UNL     1      47.789   7.484  19.624  0.00  0.00    +0.000 A 
ATOM     26  S   UNL     1      48.046   5.854  20.020  0.00  0.00    +0.000 S 
ATOM     27  C   UNL     1      48.532   5.493  18.431  0.00  0.00    +0.000 A 
ATOM     28  C   UNL     1      48.507   6.588  17.573  0.00  0.00    +0.000 A 
ATOM     29  C   UNL     1      48.065   7.779  18.292  0.00  0.00    +0.000 A 
BRANCH  21  31
ATOM     30  C   UNL     1      49.420  10.034  16.469  0.00  0.00    +0.000 C 
ATOM     31  O   UNL     1      48.083   9.587  16.681  0.00  0.00    +0.000 OA
ENDBRANCH  21  31
ENDBRANCH  17  28
ENDBRANCH   1  19
TORSDOF 8
ENDMDL
MODEL 3
REMARK VINA RESULT:    -7.163      1.660      3.101
REMARK INTER + INTRA:         -11.723
REMARK INTER:                 -10.500
REMARK INTRA:                  -1.223
REMARK UNBOUND:                -1.210
REMARK  Name = 
REMARK  9 active torsions:
REMARK  status: ('A' for Active; 'I' for Inactive)
REMARK    1  A    between atoms: C_1  and  O_2
REMARK    2  A    between atoms: O_2  and  C_3
REMARK    3  A    between atoms: C_10  and  C_11
REMARK    4  A    between atoms: N_13  and  C_14
REMARK    5  A    between atoms: C_14  and  C_15
REMARK    6  A    between atoms: C_18  and  C_19
REMARK    7  A    between atoms: C_19  and  O_20
REMARK    8  A    between atoms: O_20  and  C_21
REMARK    9  A    between atoms: C_21  and  C_22
REMARK                            x       y       z     vdW  Elec       q    Type
REMARK                         _______ _______ _______ _____ _____    ______ ____
ROOT
ATOM      1  C   UNL     1      47.332   4.036  14.897  0.00  0.00    +0.000 C 
ENDROOT
BRANCH   1   2
ATOM      2  C   UNL     1      46.418   4.281  13.722  0.00  0.00    +0.000 A 
ATOM      3  C   UNL     1      46.092   5.584  13.320  0.00  0.00    +0.000 A 
ATOM      4  C   UNL     1      45.224   5.804  12.242  0.00  0.00    +0.000 A 
ATOM      5  C   UNL     1      44.658   4.726  11.546  0.00  0.00    +0.000 A 
ATOM      6  C   UNL     1      44.983   3.425  11.950  0.00  0.00    +0.000 A 
ATOM      7  C   UNL     1      45.846   3.205  13.030  0.00  0.00    +0.000 A 
BRANCH   5   8
ATOM      8  C   UNL     1      43.695   4.961  10.406  0.00  0.00    +0.000 C 
BRANCH   8   9
ATOM      9  O   UNL     1      44.021   4.095   9.324  0.00  0.00    +0.000 OA
BRANCH   9  10
ATOM     10  C   UNL     1      45.229   4.497   8.669  0.00  0.00    +0.000 C 
BRANCH  10  11
ATOM     11  C   UNL     1      45.894   3.320   7.985  0.00  0.00    +0.000 A 
ATOM     12  C   UNL     1      46.615   3.497   6.805  0.00  0.00    +0.000 A 
ATOM     13  C   UNL     1      47.221   2.396   6.208  0.00  0.00    +0.000 A 
ATOM     14  C   UNL     1      47.108   1.149   6.809  0.00  0.00    +0.000 A 
ATOM     15  C   UNL     1      46.393   1.059   7.992  0.00  0.00    +0.000 A 
ATOM     16  N   UNL     1      45.793   2.109   8.595  0.00  0.00    +0.000 NA
ENDBRANCH  10  11
ENDBRANCH   9  10
ENDBRANCH   8   9
ENDBRANCH   5   8
ENDBRANCH   1   2
BRANCH   1  19
ATOM     17  C   UNL     1      48.589   5.395  16.522  0.00  0.00    +0.000 C 
ATOM     18  O   UNL     1      49.423   4.505  16.671  0.00  0.00    +0.000 OA
ATOM     19  N   UNL     1      47.527   5.239  15.671  0.00  0.00    +0.000 N 
ATOM     20  H   UNL     1      46.820   5.959  15.601  0.00  0.00    +0.000 HD
BRANCH  17  28
ATOM     21  C   UNL     1      48.727   8.695  15.540  0.00  0.00    +0.000 A 
ATOM     22  N   UNL     1      48.785  10.038  15.438  0.00  0.00    +0.000 NA
ATOM     23  C   UNL     1      48.879  10.751  16.563  0.00  0.00    +0.000 A 
ATOM     24  N   UNL     1      48.923  10.280  17.805  0.00  0.00    +0.000 NA
ATOM     25  C   UNL     1      48.852   8.939  17.864  0.00  0.00    +0.000 A 
ATOM     26  S   UNL     1      48.896   8.164  19.372  0.00  0.00    +0.000 S 
ATOM     27  C   UNL     1      48.771   6.632  18.645  0.00  0.00    +0.000 A 
ATOM     28  C   UNL     1      48.691   6.674  17.256  0.00  0.00    +0.000 A 
ATOM     29  C   UNL     1      48.743   8.057  16.793  0.00  0.00    +0.000 A 
BRANCH  21  31
ATOM     30  C   UNL     1      49.866   7.644  13.795  0.00  0.00    +0.000 C 
ATOM     31  O   UNL     1      48.604   7.965  14.377  0.00  0.00    +0.000 OA
ENDBRANCH  21  31
ENDBRANCH  17  28
ENDBRANCH   1  19
TORSDOF 8
ENDMDL
MODEL 4
REMARK VINA RESULT:    -7.017      1.844      2.623
REMARK INTER + INTRA:         -11.510
REMARK INTER:                 -10.353
REMARK INTRA:                  -1.157
REMARK UNBOUND:                -1.210
REMARK  Name = 
REMARK  9 active torsions:
REMARK  status: ('A' for Active; 'I' for Inactive)
REMARK    1  A    between atoms: C_1  and  O_2
REMARK    2  A    between atoms: O_2  and  C_3
REMARK    3  A    between atoms: C_10  and  C_11
REMARK    4  A    between atoms: N_13  and  C_14
REMARK    5  A    between atoms: C_14  and  C_15
REMARK    6  A    between atoms: C_18  and  C_19
REMARK    7  A    between atoms: C_19  and  O_20
REMARK    8  A    between atoms: O_20  and  C_21
REMARK    9  A    between atoms: C_21  and  C_22
REMARK                            x       y       z     vdW  Elec       q    Type
REMARK                         _______ _______ _______ _____ _____    ______ ____
ROOT
ATOM      1  C   UNL     1      47.749   4.789  14.877  0.00  0.00    +0.000 C 
ENDROOT
BRANCH   1   2
ATOM      2  C   UNL     1      46.701   4.723  13.793  0.00  0.00    +0.000 A 
ATOM      3  C   UNL     1      46.094   5.888  13.303  0.00  0.00    +0.000 A 
ATOM      4  C   UNL     1      45.106   5.817  12.313  0.00  0.00    +0.000 A 
ATOM      5  C   UNL     1      44.698   4.579  11.794  0.00  0.00    +0.000 A 
ATOM      6  C   UNL     1      45.304   3.417  12.285  0.00  0.00    +0.000 A 
ATOM      7  C   UNL     1      46.288   3.487  13.279  0.00  0.00    +0.000 A 
BRANCH   5   8
ATOM      8  C   UNL     1      43.608   4.499  10.751  0.00  0.00    +0.000 C 
BRANCH   8   9
ATOM      9  O   UNL     1      43.952   3.516   9.781  0.00  0.00    +0.000 OA
BRANCH   9  10
ATOM     10  C   UNL     1      44.611   4.096   8.649  0.00  0.00    +0.000 C 
BRANCH  10  11
ATOM     11  C   UNL     1      45.630   3.140   8.064  0.00  0.00    +0.000 A 
ATOM     12  C   UNL     1      46.596   3.591   7.166  0.00  0.00    +0.000 A 
ATOM     13  C   UNL     1      47.523   2.688   6.656  0.00  0.00    +0.000 A 
ATOM     14  C   UNL     1      47.475   1.362   7.064  0.00  0.00    +0.000 A 
ATOM     15  C   UNL     1      46.500   0.996   7.976  0.00  0.00    +0.000 A 
ATOM     16  N   UNL     1      45.585   1.849   8.488  0.00  0.00    +0.000 NA
ENDBRANCH  10  11
ENDBRANCH   9  10
ENDBRANCH   8   9
ENDBRANCH   5   8
ENDBRANCH   1   2
BRANCH   1  19
ATOM     17  C   UNL     1      48.831   6.935  15.416  0.00  0.00    +0.000 C 
ATOM     18  O   UNL     1      49.836   6.624  14.779  0.00  0.00    +0.000 OA
ATOM     19  N   UNL     1      47.763   6.083  15.516  0.00  0.00    +0.000 N 
ATOM     20  H   UNL     1      46.967   6.330  16.088  0.00  0.00    +0.000 HD
BRANCH  17  28
ATOM     21  C   UNL     1      47.830   7.884  18.573  0.00  0.00    +0.000 A 
ATOM     22  N   UNL     1      47.510   8.519  19.719  0.00  0.00    +0.000 NA
ATOM     23  C   UNL     1      47.632   9.848  19.757  0.00  0.00    +0.000 A 
ATOM     24  N   UNL     1      48.043  10.641  18.772  0.00  0.00    +0.000 NA
ATOM     25  C   UNL     1      48.363   9.968  17.653  0.00  0.00    +0.000 A 
ATOM     26  S   UNL     1      48.908  10.822  16.291  0.00  0.00    +0.000 S 
ATOM     27  C   UNL     1      49.076   9.386  15.397  0.00  0.00    +0.000 A 
ATOM     28  C   UNL     1      48.730   8.239  16.104  0.00  0.00    +0.000 A 
ATOM     29  C   UNL     1      48.300   8.592  17.454  0.00  0.00    +0.000 A 
BRANCH  21  31
ATOM     30  C   UNL     1      47.346   5.965  19.810  0.00  0.00    +0.000 C 
ATOM     31  O   UNL     1      47.727   6.510  18.548  0.00  0.00    +0.000 OA
ENDBRANCH  21  31
ENDBRANCH  17  28
ENDBRANCH   1  19
TORSDOF 8
ENDMDL
MODEL 5
REMARK VINA RESULT:    -6.711      4.842      9.492
REMARK INTER + INTRA:         -11.059
REMARK INTER:                 -10.184
REMARK INTRA:                  -0.876
REMARK UNBOUND:                -1.210
REMARK  Name = 
REMARK  9 active torsions:
REMARK  status: ('A' for Active; 'I' for Inactive)
REMARK    1  A    between atoms: C_1  and  O_2
REMARK    2  A    between atoms: O_2  and  C_3
REMARK    3  A    between atoms: C_10  and  C_11
REMARK    4  A    between atoms: N_13  and  C_14
REMARK    5  A    between atoms: C_14  and  C_15
REMARK    6  A    between atoms: C_18  and  C_19
REMARK    7  A    between atoms: C_19  and  O_20
REMARK    8  A    between atoms: O_20  and  C_21
REMARK    9  A    between atoms: C_21  and  C_22
REMARK                            x       y       z     vdW  Elec       q    Type
REMARK                         _______ _______ _______ _____ _____    ______ ____
ROOT
ATOM      1  C   UNL     1      47.523   3.272  16.885  0.00  0.00    +0.000 C 
ENDROOT
BRANCH   1   2
ATOM      2  C   UNL     1      48.996   3.226  17.209  0.00  0.00    +0.000 A 
ATOM      3  C   UNL     1      49.747   2.062  16.997  0.00  0.00    +0.000 A 
ATOM      4  C   UNL     1      51.109   2.020  17.321  0.00  0.00    +0.000 A 
ATOM      5  C   UNL     1      51.750   3.141  17.871  0.00  0.00    +0.000 A 
ATOM      6  C   UNL     1      50.999   4.303  18.083  0.00  0.00    +0.000 A 
ATOM      7  C   UNL     1      49.636   4.343  17.764  0.00  0.00    +0.000 A 
BRANCH   5   8
ATOM      8  C   UNL     1      53.211   3.086  18.252  0.00  0.00    +0.000 C 
BRANCH   8   9
ATOM      9  O   UNL     1      53.467   1.888  18.976  0.00  0.00    +0.000 OA
BRANCH   9  10
ATOM     10  C   UNL     1      54.765   1.359  18.682  0.00  0.00    +0.000 C 
BRANCH  10  11
ATOM     11  C   UNL     1      54.702  -0.137  18.448  0.00  0.00    +0.000 A 
ATOM     12  C   UNL     1      55.160  -0.690  17.254  0.00  0.00    +0.000 A 
ATOM     13  C   UNL     1      55.097  -2.068  17.076  0.00  0.00    +0.000 A 
ATOM     14  C   UNL     1      54.593  -2.863  18.097  0.00  0.00    +0.000 A 
ATOM     15  C   UNL     1      54.178  -2.241  19.262  0.00  0.00    +0.000 A 
ATOM     16  N   UNL     1      54.226  -0.905  19.464  0.00  0.00    +0.000 NA
ENDBRANCH  10  11
ENDBRANCH   9  10
ENDBRANCH   8   9
ENDBRANCH   5   8
ENDBRANCH   1   2
BRANCH   1  19
ATOM     17  C   UNL     1      47.118   4.163  14.625  0.00  0.00    +0.000 C 
ATOM     18  O   UNL     1      47.296   3.056  14.122  0.00  0.00    +0.000 OA
ATOM     19  N   UNL     1      47.218   4.353  15.978  0.00  0.00    +0.000 N 
ATOM     20  H   UNL     1      47.122   5.279  16.371  0.00  0.00    +0.000 HD
BRANCH  17  28
ATOM     21  C   UNL     1      44.405   5.022  12.682  0.00  0.00    +0.000 A 
ATOM     22  N   UNL     1      43.490   5.602  11.880  0.00  0.00    +0.000 NA
ATOM     23  C   UNL     1      43.775   6.800  11.363  0.00  0.00    +0.000 A 
ATOM     24  N   UNL     1      44.884   7.507  11.551  0.00  0.00    +0.000 NA
ATOM     25  C   UNL     1      45.765   6.900  12.364  0.00  0.00    +0.000 A 
ATOM     26  S   UNL     1      47.241   7.659  12.716  0.00  0.00    +0.000 S 
ATOM     27  C   UNL     1      47.728   6.366  13.706  0.00  0.00    +0.000 A 
ATOM     28  C   UNL     1      46.791   5.342  13.795  0.00  0.00    +0.000 A 
ATOM     29  C   UNL     1      45.619   5.663  12.987  0.00  0.00    +0.000 A 
BRANCH  21  31
ATOM     30  C   UNL     1      43.577   2.879  12.274  0.00  0.00    +0.000 C 
ATOM     31  O   UNL     1      44.095   3.798  13.234  0.00  0.00    +0.000 OA
ENDBRANCH  21  31
ENDBRANCH  17  28
ENDBRANCH   1  19
TORSDOF 8
ENDMDL
MODEL 6
REMARK VINA RESULT:    -6.466      3.675      4.996
REMARK INTER + INTRA:         -10.700
REMARK INTER:                  -9.532
REMARK INTRA:                  -1.168
REMARK UNBOUND:                -1.210
REMARK  Name = 
REMARK  9 active torsions:
REMARK  status: ('A' for Active; 'I' for Inactive)
REMARK    1  A    between atoms: C_1  and  O_2
REMARK    2  A    between atoms: O_2  and  C_3
REMARK    3  A    between atoms: C_10  and  C_11
REMARK    4  A    between atoms: N_13  and  C_14
REMARK    5  A    between atoms: C_14  and  C_15
REMARK    6  A    between atoms: C_18  and  C_19
REMARK    7  A    between atoms: C_19  and  O_20
REMARK    8  A    between atoms: O_20  and  C_21
REMARK    9  A    between atoms: C_21  and  C_22
REMARK                            x       y       z     vdW  Elec       q    Type
REMARK                         _______ _______ _______ _____ _____    ______ ____
ROOT
ATOM      1  C   UNL     1      47.753   7.886  13.874  0.00  0.00    +0.000 C 
ENDROOT
BRANCH   1   2
ATOM      2  C   UNL     1      46.881   6.926  13.104  0.00  0.00    +0.000 A 
ATOM      3  C   UNL     1      46.084   7.368  12.039  0.00  0.00    +0.000 A 
ATOM      4  C   UNL     1      45.260   6.474  11.344  0.00  0.00    +0.000 A 
ATOM      5  C   UNL     1      45.210   5.118  11.700  0.00  0.00    +0.000 A 
ATOM      6  C   UNL     1      46.006   4.678  12.765  0.00  0.00    +0.000 A 
ATOM      7  C   UNL     1      46.825   5.572  13.464  0.00  0.00    +0.000 A 
BRANCH   5   8
ATOM      8  C   UNL     1      44.296   4.161  10.973  0.00  0.00    +0.000 C 
BRANCH   8   9
ATOM      9  O   UNL     1      45.010   2.969  10.661  0.00  0.00    +0.000 OA
BRANCH   9  10
ATOM     10  C   UNL     1      44.510   2.348   9.472  0.00  0.00    +0.000 C 
BRANCH  10  11
ATOM     11  C   UNL     1      45.580   2.285   8.400  0.00  0.00    +0.000 A 
ATOM     12  C   UNL     1      45.885   3.408   7.633  0.00  0.00    +0.000 A 
ATOM     13  C   UNL     1      46.879   3.318   6.664  0.00  0.00    +0.000 A 
ATOM     14  C   UNL     1      47.556   2.117   6.494  0.00  0.00    +0.000 A 
ATOM     15  C   UNL     1      47.210   1.054   7.311  0.00  0.00    +0.000 A 
ATOM     16  N   UNL     1      46.249   1.110   8.259  0.00  0.00    +0.000 NA
ENDBRANCH  10  11
ENDBRANCH   9  10
ENDBRANCH   8   9
ENDBRANCH   5   8
ENDBRANCH   1   2
BRANCH   1  19
ATOM     17  C   UNL     1      49.656   8.551  12.458  0.00  0.00    +0.000 C 
ATOM     18  O   UNL     1      48.960   9.359  11.847  0.00  0.00    +0.000 OA
ATOM     19  N   UNL     1      49.134   7.784  13.466  0.00  0.00    +0.000 N 
ATOM     20  H   UNL     1      49.706   7.087  13.923  0.00  0.00    +0.000 HD
BRANCH  17  28
ATOM     21  C   UNL     1      52.558   8.766  14.302  0.00  0.00    +0.000 A 
ATOM     22  N   UNL     1      53.820   8.772  14.778  0.00  0.00    +0.000 NA
ATOM     23  C   UNL     1      54.814   8.505  13.928  0.00  0.00    +0.000 A 
ATOM     24  N   UNL     1      54.704   8.226  12.633  0.00  0.00    +0.000 NA
ATOM     25  C   UNL     1      53.431   8.219  12.202  0.00  0.00    +0.000 A 
ATOM     26  S   UNL     1      53.102   7.883  10.571  0.00  0.00    +0.000 S 
ATOM     27  C   UNL     1      51.429   8.058  10.821  0.00  0.00    +0.000 A 
ATOM     28  C   UNL     1      51.086   8.369  12.133  0.00  0.00    +0.000 A 
ATOM     29  C   UNL     1      52.288   8.468  12.956  0.00  0.00    +0.000 A 
BRANCH  21  31
ATOM     30  C   UNL     1      51.332  10.412  15.415  0.00  0.00    +0.000 C 
ATOM     31  O   UNL     1      51.534   9.018  15.190  0.00  0.00    +0.000 OA
ENDBRANCH  21  31
ENDBRANCH  17  28
ENDBRANCH   1  19
TORSDOF 8
ENDMDL
