MODEL 1
REMARK VINA RESULT:    -6.922      0.000      0.000
REMARK INTER + INTRA:          -9.915
REMARK INTER:                  -9.350
REMARK INTRA:                  -0.565
REMARK UNBOUND:                -0.565
REMARK  Name = 
REMARK  7 active torsions:
REMARK  status: ('A' for Active; 'I' for Inactive)
REMARK    1  A    between atoms: C_1  and  N_2
REMARK    2  A    between atoms: N_2  and  C_3
REMARK    3  A    between atoms: C_3  and  C_4
REMARK    4  A    between atoms: C_4  and  C_5
REMARK    5  A    between atoms: C_8  and  O_9
REMARK    6  A    between atoms: O_9  and  C_10
REMARK    7  A    between atoms: C_10  and  C_11
REMARK                            x       y       z     vdW  Elec       q    Type
REMARK                         _______ _______ _______ _____ _____    ______ ____
ROOT
ATOM      1  C   UNL     1      45.923   2.179   8.180  0.00  0.00    +0.000 A 
ATOM      2  C   UNL     1      44.984   1.661   9.087  0.00  0.00    +0.000 A 
ATOM      3  C   UNL     1      44.165   2.520   9.821  0.00  0.00    +0.000 A 
ATOM      4  C   UNL     1      44.291   3.901   9.676  0.00  0.00    +0.000 A 
ATOM      5  C   UNL     1      45.192   4.418   8.745  0.00  0.00    +0.000 A 
ATOM      6  C   UNL     1      46.011   3.561   8.012  0.00  0.00    +0.000 A 
ENDROOT
BRANCH   1   7
ATOM      7  C   UNL     1      46.840   1.264   7.404  0.00  0.00    +0.000 C 
BRANCH   7   8
ATOM      8  C   UNL     1      48.158   1.948   7.020  0.00  0.00    +0.000 C 
BRANCH   8  10
ATOM      9  C   UNL     1      47.420   2.667   4.850  0.00  0.00    +0.000 C 
ATOM     10  N   UNL     1      48.380   1.846   5.575  0.00  0.00    +0.000 NA
ATOM     11  H   UNL     1      49.325   2.159   5.353  0.00  0.00    +0.000 HD
ENDBRANCH   8  10
ENDBRANCH   7   8
ENDBRANCH   1   7
BRANCH   4  12
ATOM     12  O   UNL     1      43.496   4.662  10.490  0.00  0.00    +0.000 OA
BRANCH  12  13
ATOM     13  C   UNL     1      43.577   4.314  11.876  0.00  0.00    +0.000 C 
BRANCH  13  14
ATOM     14  C   UNL     1      44.857   4.806  12.501  0.00  0.00    +0.000 A 
ATOM     15  C   UNL     1      45.219   6.147  12.456  0.00  0.00    +0.000 A 
ATOM     16  C   UNL     1      46.376   6.542  13.111  0.00  0.00    +0.000 A 
ATOM     17 CL   UNL     1      46.860   8.195  13.067  0.00  0.00    +0.000 Cl
ATOM     18  C   UNL     1      47.128   5.623  13.821  0.00  0.00    +0.000 A 
ATOM     19  C   UNL     1      46.686   4.316  13.836  0.00  0.00    +0.000 A 
ATOM     20  N   UNL     1      45.577   3.890  13.196  0.00  0.00    +0.000 NA
ENDBRANCH  13  14
ENDBRANCH  12  13
ENDBRANCH   4  12
TORSDOF 6
ENDMDL
MODEL 2
REMARK VINA RESULT:    -6.729      3.006      6.400
REMARK INTER + INTRA:          -9.654
REMARK INTER:                  -9.018
REMARK INTRA:                  -0.637
REMARK UNBOUND:                -0.565
REMARK  Name = 
REMARK  7 active torsions:
REMARK  status: ('A' for Active; 'I' for Inactive)
REMARK    1  A    between atoms: C_1  and  N_2
REMARK    2  A    between atoms: N_2  and  C_3
REMARK    3  A    between atoms: C_3  and  C_4
REMARK    4  A    between atoms: C_4  and  C_5
REMARK    5  A    between atoms: C_8  and  O_9
REMARK    6  A    between atoms: O_9  and  C_10
REMARK    7  A    between atoms: C_10  and  C_11
REMARK                            x       y       z     vdW  Elec       q    Type
REMARK                         _______ _______ _______ _____ _____    ______ ____
ROOT
ATOM      1  C   UNL     1      46.810   5.264  13.470  0.00  0.00    +0.000 A 
ATOM      2  C   UNL     1      46.519   3.890  13.493  0.00  0.00    +0.000 A 
ATOM      3  C   UNL     1      45.651   3.338  12.549  0.00  0.00    +0.000 A 
ATOM      4  C   UNL     1      45.046   4.153  11.594  0.00  0.00    +0.000 A 
ATOM      5  C   UNL     1      45.365   5.510  11.541  0.00  0.00    +0.000 A 
ATOM      6  C   UNL     1      46.232   6.062  12.483  0.00  0.00    +0.000 A 
ENDROOT
BRANCH   1   7
ATOM      7  C   UNL     1      47.720   5.882  14.504  0.00  0.00    +0.000 C 
BRANCH   7   8
ATOM      8  C   UNL     1      48.314   7.217  14.036  0.00  0.00    +0.000 C 
BRANCH   8  10
ATOM      9  C   UNL     1      49.688   7.444  12.078  0.00  0.00    +0.000 C 
ATOM     10  N   UNL     1      49.648   7.005  13.467  0.00  0.00    +0.000 NA
ATOM     11  H   UNL     1      50.335   7.534  14.005  0.00  0.00    +0.000 HD
ENDBRANCH   8  10
ENDBRANCH   7   8
ENDBRANCH   1   7
BRANCH   4  12
ATOM     12  O   UNL     1      44.155   3.534  10.758  0.00  0.00    +0.000 OA
BRANCH  12  13
ATOM     13  C   UNL     1      44.163   4.041   9.419  0.00  0.00    +0.000 C 
BRANCH  13  14
ATOM     14  C   UNL     1      45.271   3.434   8.598  0.00  0.00    +0.000 A 
ATOM     15  C   UNL     1      45.503   2.064   8.592  0.00  0.00    +0.000 A 
ATOM     16  C   UNL     1      46.495   1.564   7.761  0.00  0.00    +0.000 A 
ATOM     17 CL   UNL     1      46.817  -0.128   7.736  0.00  0.00    +0.000 Cl
ATOM     18  C   UNL     1      47.208   2.413   6.932  0.00  0.00    +0.000 A 
ATOM     19  C   UNL     1      46.899   3.756   6.981  0.00  0.00    +0.000 A 
ATOM     20  N   UNL     1      45.954   4.282   7.790  0.00  0.00    +0.000 NA
ENDBRANCH  13  14
ENDBRANCH  12  13
ENDBRANCH   4  12
TORSDOF 6
ENDMDL
MODEL 3
REMARK VINA RESULT:    -6.599      3.028      7.006
REMARK INTER + INTRA:          -9.479
REMARK INTER:                  -8.996
REMARK INTRA:                  -0.483
REMARK UNBOUND:                -0.565
REMARK  Name = 
REMARK  7 active torsions:
REMARK  status: ('A' for Active; 'I' for Inactive)
REMARK    1  A    between atoms: C_1  and  N_2
REMARK    2  A    between atoms: N_2  and  C_3
REMARK    3  A    between atoms: C_3  and  C_4
REMARK    4  A    between atoms: C_4  and  C_5
REMARK    5  A    between atoms: C_8  and  O_9
REMARK    6  A    between atoms: O_9  and  C_10
REMARK    7  A    between atoms: C_10  and  C_11
REMARK                            x       y       z     vdW  Elec       q    Type
REMARK                         _______ _______ _______ _____ _____    ______ ____
ROOT
ATOM      1  C   UNL     1      46.825   5.437  13.664  0.00  0.00    +0.000 A 
ATOM      2  C   UNL     1      46.943   6.354  12.607  0.00  0.00    +0.000 A 
ATOM      3  C   UNL     1      46.116   6.248  11.487  0.00  0.00    +0.000 A 
ATOM      4  C   UNL     1      45.184   5.215  11.400  0.00  0.00    +0.000 A 
ATOM      5  C   UNL     1      45.035   4.328  12.466  0.00  0.00    +0.000 A 
ATOM      6  C   UNL     1      45.860   4.433  13.585  0.00  0.00    +0.000 A 
ENDROOT
BRANCH   1   7
ATOM      7  C   UNL     1      47.735   5.517  14.866  0.00  0.00    +0.000 C 
BRANCH   7   8
ATOM      8  C   UNL     1      47.462   4.398  15.880  0.00  0.00    +0.000 C 
BRANCH   8  10
ATOM      9  C   UNL     1      48.493   2.869  17.420  0.00  0.00    +0.000 C 
ATOM     10  N   UNL     1      48.693   4.056  16.599  0.00  0.00    +0.000 NA
ATOM     11  H   UNL     1      49.440   3.877  15.928  0.00  0.00    +0.000 HD
ENDBRANCH   8  10
ENDBRANCH   7   8
ENDBRANCH   1   7
BRANCH   4  12
ATOM     12  O   UNL     1      44.469   5.152  10.234  0.00  0.00    +0.000 OA
BRANCH  12  13
ATOM     13  C   UNL     1      44.165   3.819   9.809  0.00  0.00    +0.000 C 
BRANCH  13  14
ATOM     14  C   UNL     1      45.201   3.287   8.853  0.00  0.00    +0.000 A 
ATOM     15  C   UNL     1      45.486   1.929   8.771  0.00  0.00    +0.000 A 
ATOM     16  C   UNL     1      46.401   1.501   7.821  0.00  0.00    +0.000 A 
ATOM     17 CL   UNL     1      46.786  -0.174   7.699  0.00  0.00    +0.000 Cl
ATOM     18  C   UNL     1      46.987   2.407   6.954  0.00  0.00    +0.000 A 
ATOM     19  C   UNL     1      46.632   3.733   7.086  0.00  0.00    +0.000 A 
ATOM     20  N   UNL     1      45.760   4.191   8.010  0.00  0.00    +0.000 NA
ENDBRANCH  13  14
ENDBRANCH  12  13
ENDBRANCH   4  12
TORSDOF 6
ENDMDL
MODEL 4
REMARK VINA RESULT:    -6.530      3.430      6.974
REMARK INTER + INTRA:          -9.385
REMARK INTER:                  -8.848
REMARK INTRA:                  -0.537
REMARK UNBOUND:                -0.565
REMARK  Name = 
REMARK  7 active torsions:
REMARK  status: ('A' for Active; 'I' for Inactive)
REMARK    1  A    between atoms: C_1  and  N_2
REMARK    2  A    between atoms: N_2  and  C_3
REMARK    3  A    between atoms: C_3  and  C_4
REMARK    4  A    between atoms: C_4  and  C_5
REMARK    5  A    between atoms: C_8  and  O_9
REMARK    6  A    between atoms: O_9  and  C_10
REMARK    7  A    between atoms: C_10  and  C_11
REMARK                            x       y       z     vdW  Elec       q    Type
REMARK                         _______ _______ _______ _____ _____    ______ ____
ROOT
ATOM      1  C   UNL     1      45.699   7.400  12.666  0.00  0.00    +0.000 A 
ATOM      2  C   UNL     1      44.599   7.268  11.804  0.00  0.00    +0.000 A 
ATOM      3  C   UNL     1      44.219   6.010  11.334  0.00  0.00    +0.000 A 
ATOM      4  C   UNL     1      44.946   4.878  11.700  0.00  0.00    +0.000 A 
ATOM      5  C   UNL     1      46.013   5.000  12.590  0.00  0.00    +0.000 A 
ATOM      6  C   UNL     1      46.393   6.256  13.059  0.00  0.00    +0.000 A 
ENDROOT
BRANCH   1   7
ATOM      7  C   UNL     1      46.144   8.758  13.156  0.00  0.00    +0.000 C 
BRANCH   7   8
ATOM      8  C   UNL     1      46.256   9.780  12.018  0.00  0.00    +0.000 C 
BRANCH   8  10
ATOM      9  C   UNL     1      44.276  10.869  11.202  0.00  0.00    +0.000 C 
ATOM     10  N   UNL     1      45.308  10.879  12.229  0.00  0.00    +0.000 NA
ATOM     11  H   UNL     1      44.871  10.779  13.145  0.00  0.00    +0.000 HD
ENDBRANCH   8  10
ENDBRANCH   7   8
ENDBRANCH   1   7
BRANCH   4  12
ATOM     12  O   UNL     1      44.541   3.699  11.132  0.00  0.00    +0.000 OA
BRANCH  12  13
ATOM     13  C   UNL     1      44.143   3.818   9.762  0.00  0.00    +0.000 C 
BRANCH  13  14
ATOM     14  C   UNL     1      45.206   3.305   8.825  0.00  0.00    +0.000 A 
ATOM     15  C   UNL     1      45.496   1.950   8.728  0.00  0.00    +0.000 A 
ATOM     16  C   UNL     1      46.438   1.540   7.795  0.00  0.00    +0.000 A 
ATOM     17 CL   UNL     1      46.829  -0.132   7.654  0.00  0.00    +0.000 Cl
ATOM     18  C   UNL     1      47.045   2.462   6.960  0.00  0.00    +0.000 A 
ATOM     19  C   UNL     1      46.682   3.785   7.105  0.00  0.00    +0.000 A 
ATOM     20  N   UNL     1      45.785   4.225   8.013  0.00  0.00    +0.000 NA
ENDBRANCH  13  14
ENDBRANCH  12  13
ENDBRANCH   4  12
TORSDOF 6
ENDMDL
MODEL 5
REMARK VINA RESULT:    -6.400      3.070      6.687
REMARK INTER + INTRA:          -9.210
REMARK INTER:                  -8.809
REMARK INTRA:                  -0.401
REMARK UNBOUND:                -0.565
REMARK  Name = 
REMARK  7 active torsions:
REMARK  status: ('A' for Active; 'I' for Inactive)
REMARK    1  A    between atoms: C_1  and  N_2
REMARK    2  A    between atoms: N_2  and  C_3
REMARK    3  A    between atoms: C_3  and  C_4
REMARK    4  A    between atoms: C_4  and  C_5
REMARK    5  A    between atoms: C_8  and  O_9
REMARK    6  A    between atoms: O_9  and  C_10
REMARK    7  A    between atoms: C_10  and  C_11
REMARK                            x       y       z     vdW  Elec       q    Type
REMARK                         _______ _______ _______ _____ _____    ______ ____
ROOT
ATOM      1  C   UNL     1      46.560   5.557  12.852  0.00  0.00    +0.000 A 
ATOM      2  C   UNL     1      46.150   6.203  11.674  0.00  0.00    +0.000 A 
ATOM      3  C   UNL     1      45.303   5.555  10.774  0.00  0.00    +0.000 A 
ATOM      4  C   UNL     1      44.879   4.251  11.027  0.00  0.00    +0.000 A 
ATOM      5  C   UNL     1      45.249   3.622  12.216  0.00  0.00    +0.000 A 
ATOM      6  C   UNL     1      46.096   4.269  13.115  0.00  0.00    +0.000 A 
ENDROOT
BRANCH   1   7
ATOM      7  C   UNL     1      47.504   6.232  13.819  0.00  0.00    +0.000 C 
BRANCH   7   8
ATOM      8  C   UNL     1      48.779   6.738  13.134  0.00  0.00    +0.000 C 
BRANCH   8  10
ATOM      9  C   UNL     1      49.441   8.012  15.060  0.00  0.00    +0.000 C 
ATOM     10  N   UNL     1      49.833   6.964  14.127  0.00  0.00    +0.000 NA
ATOM     11  H   UNL     1      50.003   6.102  14.644  0.00  0.00    +0.000 HD
ENDBRANCH   8  10
ENDBRANCH   7   8
ENDBRANCH   1   7
BRANCH   4  12
ATOM     12  O   UNL     1      44.109   3.674  10.053  0.00  0.00    +0.000 OA
BRANCH  12  13
ATOM     13  C   UNL     1      44.473   4.054   8.721  0.00  0.00    +0.000 C 
BRANCH  13  14
ATOM     14  C   UNL     1      45.349   3.018   8.065  0.00  0.00    +0.000 A 
ATOM     15  C   UNL     1      46.091   3.310   6.926  0.00  0.00    +0.000 A 
ATOM     16  C   UNL     1      46.930   2.332   6.415  0.00  0.00    +0.000 A 
ATOM     17 CL   UNL     1      47.856   2.655   4.999  0.00  0.00    +0.000 Cl
ATOM     18  C   UNL     1      47.047   1.107   7.048  0.00  0.00    +0.000 A 
ATOM     19  C   UNL     1      46.294   0.907   8.187  0.00  0.00    +0.000 A 
ATOM     20  N   UNL     1      45.453   1.827   8.705  0.00  0.00    +0.000 NA
ENDBRANCH  13  14
ENDBRANCH  12  13
ENDBRANCH   4  12
TORSDOF 6
ENDMDL
MODEL 6
REMARK VINA RESULT:    -5.995      2.942      3.933
REMARK INTER + INTRA:          -8.663
REMARK INTER:                  -8.319
REMARK INTRA:                  -0.344
REMARK UNBOUND:                -0.565
REMARK  Name = 
REMARK  7 active torsions:
REMARK  status: ('A' for Active; 'I' for Inactive)
REMARK    1  A    between atoms: C_1  and  N_2
REMARK    2  A    between atoms: N_2  and  C_3
REMARK    3  A    between atoms: C_3  and  C_4
REMARK    4  A    between atoms: C_4  and  C_5
REMARK    5  A    between atoms: C_8  and  O_9
REMARK    6  A    between atoms: O_9  and  C_10
REMARK    7  A    between atoms: C_10  and  C_11
REMARK                            x       y       z     vdW  Elec       q    Type
REMARK                         _______ _______ _______ _____ _____    ______ ____
ROOT
ATOM      1  C   UNL     1      44.883   4.159   9.961  0.00  0.00    +0.000 A 
ATOM      2  C   UNL     1      44.502   3.159  10.870  0.00  0.00    +0.000 A 
ATOM      3  C   UNL     1      44.773   3.305  12.231  0.00  0.00    +0.000 A 
ATOM      4  C   UNL     1      45.446   4.434  12.694  0.00  0.00    +0.000 A 
ATOM      5  C   UNL     1      45.788   5.449  11.800  0.00  0.00    +0.000 A 
ATOM      6  C   UNL     1      45.519   5.304  10.441  0.00  0.00    +0.000 A 
ENDROOT
BRANCH   1   7
ATOM      7  C   UNL     1      44.629   4.001   8.480  0.00  0.00    +0.000 C 
BRANCH   7   8
ATOM      8  C   UNL     1      45.899   3.627   7.706  0.00  0.00    +0.000 C 
BRANCH   8  10
ATOM      9  C   UNL     1      47.350   1.815   7.088  0.00  0.00    +0.000 C 
ATOM     10  N   UNL     1      46.228   2.215   7.925  0.00  0.00    +0.000 NA
ATOM     11  H   UNL     1      46.473   2.071   8.905  0.00  0.00    +0.000 HD
ENDBRANCH   8  10
ENDBRANCH   7   8
ENDBRANCH   1   7
BRANCH   4  12
ATOM     12  O   UNL     1      45.729   4.454  14.034  0.00  0.00    +0.000 OA
BRANCH  12  13
ATOM     13  C   UNL     1      47.007   5.016  14.351  0.00  0.00    +0.000 C 
BRANCH  13  14
ATOM     14  C   UNL     1      47.487   4.581  15.712  0.00  0.00    +0.000 A 
ATOM     15  C   UNL     1      48.340   5.374  16.470  0.00  0.00    +0.000 A 
ATOM     16  C   UNL     1      48.686   4.944  17.742  0.00  0.00    +0.000 A 
ATOM     17 CL   UNL     1      49.750   5.896  18.706  0.00  0.00    +0.000 Cl
ATOM     18  C   UNL     1      48.162   3.769  18.253  0.00  0.00    +0.000 A 
ATOM     19  C   UNL     1      47.303   3.053  17.444  0.00  0.00    +0.000 A 
ATOM     20  N   UNL     1      46.957   3.429  16.194  0.00  0.00    +0.000 NA
ENDBRANCH  13  14
ENDBRANCH  12  13
ENDBRANCH   4  12
TORSDOF 6
ENDMDL
MODEL 7
REMARK VINA RESULT:    -5.970      2.825      6.758
REMARK INTER + INTRA:          -8.629
REMARK INTER:                  -7.935
REMARK INTRA:                  -0.694
REMARK UNBOUND:                -0.565
REMARK  Name = 
REMARK  7 active torsions:
REMARK  status: ('A' for Active; 'I' for Inactive)
REMARK    1  A    between atoms: C_1  and  N_2
REMARK    2  A    between atoms: N_2  and  C_3
REMARK    3  A    between atoms: C_3  and  C_4
REMARK    4  A    between atoms: C_4  and  C_5
REMARK    5  A    between atoms: C_8  and  O_9
REMARK    6  A    between atoms: O_9  and  C_10
REMARK    7  A    between atoms: C_10  and  C_11
REMARK                            x       y       z     vdW  Elec       q    Type
REMARK                         _______ _______ _______ _____ _____    ______ ____
ROOT
ATOM      1  C   UNL     1      47.420   6.499  13.406  0.00  0.00    +0.000 A 
ATOM      2  C   UNL     1      46.489   7.306  12.732  0.00  0.00    +0.000 A 
ATOM      3  C   UNL     1      45.236   6.796  12.386  0.00  0.00    +0.000 A 
ATOM      4  C   UNL     1      44.912   5.474  12.685  0.00  0.00    +0.000 A 
ATOM      5  C   UNL     1      45.818   4.683  13.391  0.00  0.00    +0.000 A 
ATOM      6  C   UNL     1      47.069   5.191  13.737  0.00  0.00    +0.000 A 
ENDROOT
BRANCH   1   7
ATOM      7  C   UNL     1      48.792   7.025  13.757  0.00  0.00    +0.000 C 
BRANCH   7   8
ATOM      8  C   UNL     1      49.072   6.965  15.264  0.00  0.00    +0.000 C 
BRANCH   8  10
ATOM      9  C   UNL     1      48.499   9.246  15.754  0.00  0.00    +0.000 C 
ATOM     10  N   UNL     1      48.152   7.850  15.985  0.00  0.00    +0.000 NA
ATOM     11  H   UNL     1      47.199   7.684  15.664  0.00  0.00    +0.000 HD
ENDBRANCH   8  10
ENDBRANCH   7   8
ENDBRANCH   1   7
BRANCH   4  12
ATOM     12  O   UNL     1      43.689   5.044  12.242  0.00  0.00    +0.000 OA
BRANCH  12  13
ATOM     13  C   UNL     1      43.461   5.273  10.847  0.00  0.00    +0.000 C 
BRANCH  13  14
ATOM     14  C   UNL     1      44.117   4.217   9.994  0.00  0.00    +0.000 A 
ATOM     15  C   UNL     1      45.048   4.547   9.017  0.00  0.00    +0.000 A 
ATOM     16  C   UNL     1      45.664   3.521   8.316  0.00  0.00    +0.000 A 
ATOM     17 CL   UNL     1      46.816   3.894   7.090  0.00  0.00    +0.000 Cl
ATOM     18  C   UNL     1      45.379   2.199   8.613  0.00  0.00    +0.000 A 
ATOM     19  C   UNL     1      44.460   1.957   9.614  0.00  0.00    +0.000 A 
ATOM     20  N   UNL     1      43.827   2.929  10.305  0.00  0.00    +0.000 NA
ENDBRANCH  13  14
ENDBRANCH  12  13
ENDBRANCH   4  12
TORSDOF 6
ENDMDL
MODEL 8
REMARK VINA RESULT:    -5.487      2.907      6.973
REMARK INTER + INTRA:          -7.977
REMARK INTER:                  -7.547
REMARK INTRA:                  -0.430
REMARK UNBOUND:                -0.565
REMARK  Name = 
REMARK  7 active torsions:
REMARK  status: ('A' for Active; 'I' for Inactive)
REMARK    1  A    between atoms: C_1  and  N_2
REMARK    2  A    between atoms: N_2  and  C_3
REMARK    3  A    between atoms: C_3  and  C_4
REMARK    4  A    between atoms: C_4  and  C_5
REMARK    5  A    between atoms: C_8  and  O_9
REMARK    6  A    between atoms: O_9  and  C_10
REMARK    7  A    between atoms: C_10  and  C_11
REMARK                            x       y       z     vdW  Elec       q    Type
REMARK                         _______ _______ _______ _____ _____    ______ ____
ROOT
ATOM      1  C   UNL     1      47.960   6.342  14.012  0.00  0.00    +0.000 A 
ATOM      2  C   UNL     1      46.935   5.387  13.916  0.00  0.00    +0.000 A 
ATOM      3  C   UNL     1      46.092   5.369  12.804  0.00  0.00    +0.000 A 
ATOM      4  C   UNL     1      46.246   6.315  11.793  0.00  0.00    +0.000 A 
ATOM      5  C   UNL     1      47.289   7.239  11.864  0.00  0.00    +0.000 A 
ATOM      6  C   UNL     1      48.132   7.258  12.974  0.00  0.00    +0.000 A 
ENDROOT
BRANCH   1   7
ATOM      7  C   UNL     1      48.860   6.398  15.224  0.00  0.00    +0.000 C 
BRANCH   7   8
ATOM      8  C   UNL     1      48.323   5.555  16.387  0.00  0.00    +0.000 C 
BRANCH   8  10
ATOM      9  C   UNL     1      49.908   4.528  17.873  0.00  0.00    +0.000 C 
ATOM     10  N   UNL     1      49.189   4.394  16.613  0.00  0.00    +0.000 NA
ATOM     11  H   UNL     1      48.622   3.547  16.640  0.00  0.00    +0.000 HD
ENDBRANCH   8  10
ENDBRANCH   7   8
ENDBRANCH   1   7
BRANCH   4  12
ATOM     12  O   UNL     1      45.326   6.262  10.779  0.00  0.00    +0.000 OA
BRANCH  12  13
ATOM     13  C   UNL     1      44.435   5.144  10.859  0.00  0.00    +0.000 C 
BRANCH  13  14
ATOM     14  C   UNL     1      44.765   4.092   9.831  0.00  0.00    +0.000 A 
ATOM     15  C   UNL     1      45.521   4.391   8.704  0.00  0.00    +0.000 A 
ATOM     16  C   UNL     1      45.846   3.360   7.834  0.00  0.00    +0.000 A 
ATOM     17 CL   UNL     1      46.774   3.696   6.421  0.00  0.00    +0.000 Cl
ATOM     18  C   UNL     1      45.453   2.062   8.106  0.00  0.00    +0.000 A 
ATOM     19  C   UNL     1      44.725   1.847   9.259  0.00  0.00    +0.000 A 
ATOM     20  N   UNL     1      44.374   2.826  10.120  0.00  0.00    +0.000 NA
ENDBRANCH  13  14
ENDBRANCH  12  13
ENDBRANCH   4  12
TORSDOF 6
ENDMDL
MODEL 9
REMARK VINA RESULT:    -5.442      2.516      3.455
REMARK INTER + INTRA:          -7.916
REMARK INTER:                  -7.450
REMARK INTRA:                  -0.466
REMARK UNBOUND:                -0.565
REMARK  Name = 
REMARK  7 active torsions:
REMARK  status: ('A' for Active; 'I' for Inactive)
REMARK    1  A    between atoms: C_1  and  N_2
REMARK    2  A    between atoms: N_2  and  C_3
REMARK    3  A    between atoms: C_3  and  C_4
REMARK    4  A    between atoms: C_4  and  C_5
REMARK    5  A    between atoms: C_8  and  O_9
REMARK    6  A    between atoms: O_9  and  C_10
REMARK    7  A    between atoms: C_10  and  C_11
REMARK                            x       y       z     vdW  Elec       q    Type
REMARK                         _______ _______ _______ _____ _____    ______ ____
ROOT
ATOM      1  C   UNL     1      44.910   3.738   9.745  0.00  0.00    +0.000 A 
ATOM      2  C   UNL     1      44.649   3.164  11.000  0.00  0.00    +0.000 A 
ATOM      3  C   UNL     1      44.867   3.895  12.168  0.00  0.00    +0.000 A 
ATOM      4  C   UNL     1      45.369   5.193  12.098  0.00  0.00    +0.000 A 
ATOM      5  C   UNL     1      45.590   5.783  10.853  0.00  0.00    +0.000 A 
ATOM      6  C   UNL     1      45.373   5.053   9.685  0.00  0.00    +0.000 A 
ENDROOT
BRANCH   1   7
ATOM      7  C   UNL     1      44.712   2.949   8.473  0.00  0.00    +0.000 C 
BRANCH   7   8
ATOM      8  C   UNL     1      45.884   3.112   7.497  0.00  0.00    +0.000 C 
BRANCH   8  10
ATOM      9  C   UNL     1      47.934   2.138   6.710  0.00  0.00    +0.000 C 
ATOM     10  N   UNL     1      46.808   1.982   7.621  0.00  0.00    +0.000 NA
ATOM     11  H   UNL     1      47.157   1.932   8.579  0.00  0.00    +0.000 HD
ENDBRANCH   8  10
ENDBRANCH   7   8
ENDBRANCH   1   7
BRANCH   4  12
ATOM     12  O   UNL     1      45.618   5.804  13.299  0.00  0.00    +0.000 OA
BRANCH  12  13
ATOM     13  C   UNL     1      46.996   5.787  13.687  0.00  0.00    +0.000 C 
BRANCH  13  14
ATOM     14  C   UNL     1      47.749   6.964  13.125  0.00  0.00    +0.000 A 
ATOM     15  C   UNL     1      48.933   6.798  12.415  0.00  0.00    +0.000 A 
ATOM     16  C   UNL     1      49.537   7.918  11.866  0.00  0.00    +0.000 A 
ATOM     17 CL   UNL     1      51.011   7.751  10.989  0.00  0.00    +0.000 Cl
ATOM     18  C   UNL     1      48.952   9.166  11.996  0.00  0.00    +0.000 A 
ATOM     19  C   UNL     1      47.765   9.241  12.695  0.00  0.00    +0.000 A 
ATOM     20  N   UNL     1      47.156   8.176  13.259  0.00  0.00    +0.000 NA
ENDBRANCH  13  14
ENDBRANCH  12  13
ENDBRANCH   4  12
TORSDOF 6
ENDMDL
