MODEL 1
REMARK VINA RESULT:    -7.504      0.000      0.000
REMARK INTER + INTRA:         -10.028
REMARK INTER:                  -9.479
REMARK INTRA:                  -0.550
REMARK UNBOUND:                -0.550
REMARK  Name = 
REMARK  5 active torsions:
REMARK  status: ('A' for Active; 'I' for Inactive)
REMARK    1  A    between atoms: N_1  and  C_2
REMARK    2  A    between atoms: C_2  and  C_3
REMARK    3  A    between atoms: C_3  and  C_4
REMARK    4  A    between atoms: C_7  and  C_8
REMARK    5  A    between atoms: C_8  and  N_9
REMARK                            x       y       z     vdW  Elec       q    Type
REMARK                         _______ _______ _______ _____ _____    ______ ____
ROOT
ATOM      1  C   UNL     1      46.136   2.319   7.875  0.00  0.00    +0.000 A 
ATOM      2  C   UNL     1      45.287   1.699   8.799  0.00  0.00    +0.000 A 
ATOM      3  C   UNL     1      44.499   2.462   9.667  0.00  0.00    +0.000 A 
ATOM      4  C   UNL     1      44.538   3.863   9.619  0.00  0.00    +0.000 A 
ATOM      5  C   UNL     1      45.373   4.480   8.677  0.00  0.00    +0.000 A 
ATOM      6  C   UNL     1      46.159   3.717   7.811  0.00  0.00    +0.000 A 
ENDROOT
BRANCH   1   7
ATOM      7  C   UNL     1      47.026   1.499   6.974  0.00  0.00    +0.000 C 
BRANCH   7   8
ATOM      8  C   UNL     1      48.284   2.256   6.539  0.00  0.00    +0.000 C 
BRANCH   8   9
ATOM      9  N   UNL     1      48.279   2.487   5.093  0.00  0.00    +0.000 NA
ATOM     10  H   UNL     1      48.293   3.490   4.911  0.00  0.00    +0.000 HD
ATOM     11  H   UNL     1      47.409   2.137   4.693  0.00  0.00    +0.000 HD
ENDBRANCH   8   9
ENDBRANCH   7   8
ENDBRANCH   1   7
BRANCH   4  12
ATOM     12  C   UNL     1      43.736   4.697  10.588  0.00  0.00    +0.000 C 
BRANCH  12  13
ATOM     13  N   UNL     1      44.588   5.313  11.596  0.00  0.00    +0.000 N 
ATOM     14  C   UNL     1      45.336   4.632  12.529  0.00  0.00    +0.000 A 
ATOM     15  C   UNL     1      46.023   5.562  13.281  0.00  0.00    +0.000 A 
ATOM     16  C   UNL     1      45.665   6.851  12.804  0.00  0.00    +0.000 A 
ATOM     17  C   UNL     1      46.018   8.170  13.130  0.00  0.00    +0.000 A 
ATOM     18  C   UNL     1      45.420   9.200  12.405  0.00  0.00    +0.000 A 
ATOM     19  C   UNL     1      44.504   8.878  11.413  0.00  0.00    +0.000 A 
ATOM     20  N   UNL     1      44.126   7.629  11.060  0.00  0.00    +0.000 NA
ATOM     21  C   UNL     1      44.745   6.665  11.774  0.00  0.00    +0.000 A 
ENDBRANCH  12  13
ENDBRANCH   4  12
TORSDOF 5
ENDMDL
MODEL 2
REMARK VINA RESULT:    -7.387      0.926      2.351
REMARK INTER + INTRA:          -9.880
REMARK INTER:                  -9.474
REMARK INTRA:                  -0.406
REMARK UNBOUND:                -0.550
REMARK  Name = 
REMARK  5 active torsions:
REMARK  status: ('A' for Active; 'I' for Inactive)
REMARK    1  A    between atoms: N_1  and  C_2
REMARK    2  A    between atoms: C_2  and  C_3
REMARK    3  A    between atoms: C_3  and  C_4
REMARK    4  A    between atoms: C_7  and  C_8
REMARK    5  A    between atoms: C_8  and  N_9
REMARK                            x       y       z     vdW  Elec       q    Type
REMARK                         _______ _______ _______ _____ _____    ______ ____
ROOT
ATOM      1  C   UNL     1      46.127   2.269   7.808  0.00  0.00    +0.000 A 
ATOM      2  C   UNL     1      45.322   1.636   8.762  0.00  0.00    +0.000 A 
ATOM      3  C   UNL     1      44.531   2.388   9.638  0.00  0.00    +0.000 A 
ATOM      4  C   UNL     1      44.524   3.788   9.568  0.00  0.00    +0.000 A 
ATOM      5  C   UNL     1      45.316   4.416   8.597  0.00  0.00    +0.000 A 
ATOM      6  C   UNL     1      46.105   3.665   7.723  0.00  0.00    +0.000 A 
ENDROOT
BRANCH   1   7
ATOM      7  C   UNL     1      47.021   1.463   6.897  0.00  0.00    +0.000 C 
BRANCH   7   8
ATOM      8  C   UNL     1      48.282   2.226   6.481  0.00  0.00    +0.000 C 
BRANCH   8   9
ATOM      9  N   UNL     1      48.270   2.506   5.044  0.00  0.00    +0.000 NA
ATOM     10  H   UNL     1      48.467   1.647   4.531  0.00  0.00    +0.000 HD
ATOM     11  H   UNL     1      49.023   3.154   4.815  0.00  0.00    +0.000 HD
ENDBRANCH   8   9
ENDBRANCH   7   8
ENDBRANCH   1   7
BRANCH   4  12
ATOM     12  C   UNL     1      43.720   4.611  10.545  0.00  0.00    +0.000 C 
BRANCH  12  13
ATOM     13  N   UNL     1      44.574   5.493  11.329  0.00  0.00    +0.000 N 
ATOM     14  C   UNL     1      44.624   6.863  11.210  0.00  0.00    +0.000 A 
ATOM     15  C   UNL     1      45.528   7.336  12.138  0.00  0.00    +0.000 A 
ATOM     16  C   UNL     1      46.061   6.215  12.829  0.00  0.00    +0.000 A 
ATOM     17  C   UNL     1      46.988   6.031  13.868  0.00  0.00    +0.000 A 
ATOM     18  C   UNL     1      47.255   4.724  14.274  0.00  0.00    +0.000 A 
ATOM     19  C   UNL     1      46.610   3.676  13.632  0.00  0.00    +0.000 A 
ATOM     20  N   UNL     1      45.714   3.796  12.627  0.00  0.00    +0.000 NA
ATOM     21  C   UNL     1      45.471   5.078  12.281  0.00  0.00    +0.000 A 
ENDBRANCH  12  13
ENDBRANCH   4  12
TORSDOF 5
ENDMDL
MODEL 3
REMARK VINA RESULT:    -6.157      2.310      6.356
REMARK INTER + INTRA:          -8.327
REMARK INTER:                  -7.859
REMARK INTRA:                  -0.467
REMARK UNBOUND:                -0.550
REMARK  Name = 
REMARK  5 active torsions:
REMARK  status: ('A' for Active; 'I' for Inactive)
REMARK    1  A    between atoms: N_1  and  C_2
REMARK    2  A    between atoms: C_2  and  C_3
REMARK    3  A    between atoms: C_3  and  C_4
REMARK    4  A    between atoms: C_7  and  C_8
REMARK    5  A    between atoms: C_8  and  N_9
REMARK                            x       y       z     vdW  Elec       q    Type
REMARK                         _______ _______ _______ _____ _____    ______ ____
ROOT
ATOM      1  C   UNL     1      47.064   6.274  13.144  0.00  0.00    +0.000 A 
ATOM      2  C   UNL     1      46.242   5.165  13.378  0.00  0.00    +0.000 A 
ATOM      3  C   UNL     1      45.375   4.699  12.384  0.00  0.00    +0.000 A 
ATOM      4  C   UNL     1      45.322   5.327  11.132  0.00  0.00    +0.000 A 
ATOM      5  C   UNL     1      46.163   6.424  10.895  0.00  0.00    +0.000 A 
ATOM      6  C   UNL     1      47.028   6.888  11.887  0.00  0.00    +0.000 A 
ENDROOT
BRANCH   1   7
ATOM      7  C   UNL     1      47.962   6.811  14.231  0.00  0.00    +0.000 C 
BRANCH   7   8
ATOM      8  C   UNL     1      49.264   7.403  13.683  0.00  0.00    +0.000 C 
BRANCH   8   9
ATOM      9  N   UNL     1      50.388   7.101  14.572  0.00  0.00    +0.000 NA
ATOM     10  H   UNL     1      50.276   7.616  15.444  0.00  0.00    +0.000 HD
ATOM     11  H   UNL     1      51.255   7.434  14.152  0.00  0.00    +0.000 HD
ENDBRANCH   8   9
ENDBRANCH   7   8
ENDBRANCH   1   7
BRANCH   4  12
ATOM     12  C   UNL     1      44.350   4.870  10.072  0.00  0.00    +0.000 C 
BRANCH  12  13
ATOM     13  N   UNL     1      44.754   3.597   9.490  0.00  0.00    +0.000 N 
ATOM     14  C   UNL     1      44.293   2.361   9.883  0.00  0.00    +0.000 A 
ATOM     15  C   UNL     1      44.889   1.413   9.079  0.00  0.00    +0.000 A 
ATOM     16  C   UNL     1      45.756   2.091   8.181  0.00  0.00    +0.000 A 
ATOM     17  C   UNL     1      46.612   1.708   7.137  0.00  0.00    +0.000 A 
ATOM     18  C   UNL     1      47.323   2.710   6.479  0.00  0.00    +0.000 A 
ATOM     19  C   UNL     1      47.164   4.027   6.891  0.00  0.00    +0.000 A 
ATOM     20  N   UNL     1      46.358   4.451   7.889  0.00  0.00    +0.000 NA
ATOM     21  C   UNL     1      45.675   3.449   8.483  0.00  0.00    +0.000 A 
ENDBRANCH  12  13
ENDBRANCH   4  12
TORSDOF 5
ENDMDL
MODEL 4
REMARK VINA RESULT:    -5.882      2.036      2.864
REMARK INTER + INTRA:          -7.980
REMARK INTER:                  -7.526
REMARK INTRA:                  -0.453
REMARK UNBOUND:                -0.550
REMARK  Name = 
REMARK  5 active torsions:
REMARK  status: ('A' for Active; 'I' for Inactive)
REMARK    1  A    between atoms: N_1  and  C_2
REMARK    2  A    between atoms: C_2  and  C_3
REMARK    3  A    between atoms: C_3  and  C_4
REMARK    4  A    between atoms: C_7  and  C_8
REMARK    5  A    between atoms: C_8  and  N_9
REMARK                            x       y       z     vdW  Elec       q    Type
REMARK                         _______ _______ _______ _____ _____    ______ ____
ROOT
ATOM      1  C   UNL     1      44.916   3.092   9.961  0.00  0.00    +0.000 A 
ATOM      2  C   UNL     1      44.704   2.875  11.328  0.00  0.00    +0.000 A 
ATOM      3  C   UNL     1      44.812   3.929  12.241  0.00  0.00    +0.000 A 
ATOM      4  C   UNL     1      45.123   5.223  11.803  0.00  0.00    +0.000 A 
ATOM      5  C   UNL     1      45.314   5.440  10.431  0.00  0.00    +0.000 A 
ATOM      6  C   UNL     1      45.206   4.388   9.520  0.00  0.00    +0.000 A 
ENDROOT
BRANCH   1   7
ATOM      7  C   UNL     1      44.853   1.948   8.979  0.00  0.00    +0.000 C 
BRANCH   7   8
ATOM      8  C   UNL     1      46.144   1.790   8.172  0.00  0.00    +0.000 C 
BRANCH   8   9
ATOM      9  N   UNL     1      46.473   0.375   7.988  0.00  0.00    +0.000 NA
ATOM     10  H   UNL     1      46.039   0.037   7.130  0.00  0.00    +0.000 HD
ATOM     11  H   UNL     1      46.070  -0.173   8.747  0.00  0.00    +0.000 HD
ENDBRANCH   8   9
ENDBRANCH   7   8
ENDBRANCH   1   7
BRANCH   4  12
ATOM     12  C   UNL     1      45.299   6.356  12.785  0.00  0.00    +0.000 C 
BRANCH  12  13
ATOM     13  N   UNL     1      46.545   7.073  12.556  0.00  0.00    +0.000 N 
ATOM     14  C   UNL     1      47.805   6.527  12.645  0.00  0.00    +0.000 A 
ATOM     15  C   UNL     1      48.717   7.513  12.335  0.00  0.00    +0.000 A 
ATOM     16  C   UNL     1      47.990   8.704  12.069  0.00  0.00    +0.000 A 
ATOM     17  C   UNL     1      48.324  10.015  11.695  0.00  0.00    +0.000 A 
ATOM     18  C   UNL     1      47.283  10.928  11.533  0.00  0.00    +0.000 A 
ATOM     19  C   UNL     1      45.979  10.507  11.759  0.00  0.00    +0.000 A 
ATOM     20  N   UNL     1      45.602   9.261  12.121  0.00  0.00    +0.000 NA
ATOM     21  C   UNL     1      46.640   8.407  12.247  0.00  0.00    +0.000 A 
ENDBRANCH  12  13
ENDBRANCH   4  12
TORSDOF 5
ENDMDL
MODEL 5
REMARK VINA RESULT:    -5.845      2.313      6.558
REMARK INTER + INTRA:          -7.933
REMARK INTER:                  -7.627
REMARK INTRA:                  -0.306
REMARK UNBOUND:                -0.550
REMARK  Name = 
REMARK  5 active torsions:
REMARK  status: ('A' for Active; 'I' for Inactive)
REMARK    1  A    between atoms: N_1  and  C_2
REMARK    2  A    between atoms: C_2  and  C_3
REMARK    3  A    between atoms: C_3  and  C_4
REMARK    4  A    between atoms: C_7  and  C_8
REMARK    5  A    between atoms: C_8  and  N_9
REMARK                            x       y       z     vdW  Elec       q    Type
REMARK                         _______ _______ _______ _____ _____    ______ ____
ROOT
ATOM      1  C   UNL     1      47.891   7.522  13.649  0.00  0.00    +0.000 A 
ATOM      2  C   UNL     1      46.783   8.376  13.597  0.00  0.00    +0.000 A 
ATOM      3  C   UNL     1      45.674   8.057  12.805  0.00  0.00    +0.000 A 
ATOM      4  C   UNL     1      45.649   6.872  12.058  0.00  0.00    +0.000 A 
ATOM      5  C   UNL     1      46.752   6.009  12.131  0.00  0.00    +0.000 A 
ATOM      6  C   UNL     1      47.858   6.327  12.921  0.00  0.00    +0.000 A 
ENDROOT
BRANCH   1   7
ATOM      7  C   UNL     1      49.110   7.888  14.460  0.00  0.00    +0.000 C 
BRANCH   7   8
ATOM      8  C   UNL     1      49.029   7.389  15.905  0.00  0.00    +0.000 C 
BRANCH   8   9
ATOM      9  N   UNL     1      49.527   6.016  16.010  0.00  0.00    +0.000 NA
ATOM     10  H   UNL     1      50.094   5.799  15.191  0.00  0.00    +0.000 HD
ATOM     11  H   UNL     1      48.743   5.365  15.995  0.00  0.00    +0.000 HD
ENDBRANCH   8   9
ENDBRANCH   7   8
ENDBRANCH   1   7
BRANCH   4  12
ATOM     12  C   UNL     1      44.484   6.545  11.156  0.00  0.00    +0.000 C 
BRANCH  12  13
ATOM     13  N   UNL     1      44.341   5.108  10.968  0.00  0.00    +0.000 N 
ATOM     14  C   UNL     1      43.685   4.254  11.826  0.00  0.00    +0.000 A 
ATOM     15  C   UNL     1      43.746   2.986  11.289  0.00  0.00    +0.000 A 
ATOM     16  C   UNL     1      44.480   3.066  10.075  0.00  0.00    +0.000 A 
ATOM     17  C   UNL     1      44.869   2.154   9.081  0.00  0.00    +0.000 A 
ATOM     18  C   UNL     1      45.616   2.642   8.010  0.00  0.00    +0.000 A 
ATOM     19  C   UNL     1      45.949   3.989   7.982  0.00  0.00    +0.000 A 
ATOM     20  N   UNL     1      45.605   4.909   8.911  0.00  0.00    +0.000 NA
ATOM     21  C   UNL     1      44.866   4.395   9.918  0.00  0.00    +0.000 A 
ENDBRANCH  12  13
ENDBRANCH   4  12
TORSDOF 5
ENDMDL
MODEL 6
REMARK VINA RESULT:    -5.833      2.430      6.866
REMARK INTER + INTRA:          -7.917
REMARK INTER:                  -7.449
REMARK INTRA:                  -0.468
REMARK UNBOUND:                -0.550
REMARK  Name = 
REMARK  5 active torsions:
REMARK  status: ('A' for Active; 'I' for Inactive)
REMARK    1  A    between atoms: N_1  and  C_2
REMARK    2  A    between atoms: C_2  and  C_3
REMARK    3  A    between atoms: C_3  and  C_4
REMARK    4  A    between atoms: C_7  and  C_8
REMARK    5  A    between atoms: C_8  and  N_9
REMARK                            x       y       z     vdW  Elec       q    Type
REMARK                         _______ _______ _______ _____ _____    ______ ____
ROOT
ATOM      1  C   UNL     1      46.486   4.677  13.811  0.00  0.00    +0.000 A 
ATOM      2  C   UNL     1      46.329   3.336  13.439  0.00  0.00    +0.000 A 
ATOM      3  C   UNL     1      45.691   3.000  12.241  0.00  0.00    +0.000 A 
ATOM      4  C   UNL     1      45.206   3.999  11.386  0.00  0.00    +0.000 A 
ATOM      5  C   UNL     1      45.384   5.341  11.753  0.00  0.00    +0.000 A 
ATOM      6  C   UNL     1      46.021   5.676  12.949  0.00  0.00    +0.000 A 
ENDROOT
BRANCH   1   7
ATOM      7  C   UNL     1      47.126   5.042  15.128  0.00  0.00    +0.000 C 
BRANCH   7   8
ATOM      8  C   UNL     1      47.553   3.815  15.938  0.00  0.00    +0.000 C 
BRANCH   8   9
ATOM      9  N   UNL     1      48.781   4.087  16.687  0.00  0.00    +0.000 NA
ATOM     10  H   UNL     1      49.231   3.204  16.928  0.00  0.00    +0.000 HD
ATOM     11  H   UNL     1      48.551   4.540  17.570  0.00  0.00    +0.000 HD
ENDBRANCH   8   9
ENDBRANCH   7   8
ENDBRANCH   1   7
BRANCH   4  12
ATOM     12  C   UNL     1      44.465   3.647  10.119  0.00  0.00    +0.000 C 
BRANCH  12  13
ATOM     13  N   UNL     1      45.351   3.653   8.963  0.00  0.00    +0.000 N 
ATOM     14  C   UNL     1      45.774   4.777   8.291  0.00  0.00    +0.000 A 
ATOM     15  C   UNL     1      46.617   4.372   7.278  0.00  0.00    +0.000 A 
ATOM     16  C   UNL     1      46.692   2.955   7.321  0.00  0.00    +0.000 A 
ATOM     17  C   UNL     1      47.372   1.968   6.589  0.00  0.00    +0.000 A 
ATOM     18  C   UNL     1      47.169   0.637   6.951  0.00  0.00    +0.000 A 
ATOM     19  C   UNL     1      46.305   0.350   7.999  0.00  0.00    +0.000 A 
ATOM     20  N   UNL     1      45.625   1.258   8.734  0.00  0.00    +0.000 NA
ATOM     21  C   UNL     1      45.867   2.532   8.361  0.00  0.00    +0.000 A 
ENDBRANCH  12  13
ENDBRANCH   4  12
TORSDOF 5
ENDMDL
MODEL 7
REMARK VINA RESULT:    -5.354      3.744      6.002
REMARK INTER + INTRA:          -7.312
REMARK INTER:                  -6.777
REMARK INTRA:                  -0.535
REMARK UNBOUND:                -0.550
REMARK  Name = 
REMARK  5 active torsions:
REMARK  status: ('A' for Active; 'I' for Inactive)
REMARK    1  A    between atoms: N_1  and  C_2
REMARK    2  A    between atoms: C_2  and  C_3
REMARK    3  A    between atoms: C_3  and  C_4
REMARK    4  A    between atoms: C_7  and  C_8
REMARK    5  A    between atoms: C_8  and  N_9
REMARK                            x       y       z     vdW  Elec       q    Type
REMARK                         _______ _______ _______ _____ _____    ______ ____
ROOT
ATOM      1  C   UNL     1      44.850   5.111  11.967  0.00  0.00    +0.000 A 
ATOM      2  C   UNL     1      45.476   4.638  13.126  0.00  0.00    +0.000 A 
ATOM      3  C   UNL     1      46.707   5.162  13.535  0.00  0.00    +0.000 A 
ATOM      4  C   UNL     1      47.331   6.177  12.796  0.00  0.00    +0.000 A 
ATOM      5  C   UNL     1      46.689   6.662  11.647  0.00  0.00    +0.000 A 
ATOM      6  C   UNL     1      45.461   6.139  11.240  0.00  0.00    +0.000 A 
ENDROOT
BRANCH   1   7
ATOM      7  C   UNL     1      43.548   4.511  11.494  0.00  0.00    +0.000 C 
BRANCH   7   8
ATOM      8  C   UNL     1      43.726   3.120  10.881  0.00  0.00    +0.000 C 
BRANCH   8   9
ATOM      9  N   UNL     1      43.047   2.105  11.688  0.00  0.00    +0.000 NA
ATOM     10  H   UNL     1      42.735   1.346  11.083  0.00  0.00    +0.000 HD
ATOM     11  H   UNL     1      42.205   2.503  12.103  0.00  0.00    +0.000 HD
ENDBRANCH   8   9
ENDBRANCH   7   8
ENDBRANCH   1   7
BRANCH   4  12
ATOM     12  C   UNL     1      48.686   6.710  13.194  0.00  0.00    +0.000 C 
BRANCH  12  13
ATOM     13  N   UNL     1      48.610   7.506  14.411  0.00  0.00    +0.000 N 
ATOM     14  C   UNL     1      48.172   8.808  14.484  0.00  0.00    +0.000 A 
ATOM     15  C   UNL     1      48.224   9.200  15.805  0.00  0.00    +0.000 A 
ATOM     16  C   UNL     1      48.731   8.107  16.558  0.00  0.00    +0.000 A 
ATOM     17  C   UNL     1      49.003   7.870  17.915  0.00  0.00    +0.000 A 
ATOM     18  C   UNL     1      49.519   6.623  18.265  0.00  0.00    +0.000 A 
ATOM     19  C   UNL     1      49.750   5.688  17.265  0.00  0.00    +0.000 A 
ATOM     20  N   UNL     1      49.510   5.863  15.947  0.00  0.00    +0.000 NA
ATOM     21  C   UNL     1      48.993   7.076  15.658  0.00  0.00    +0.000 A 
ENDBRANCH  12  13
ENDBRANCH   4  12
TORSDOF 5
ENDMDL
MODEL 8
REMARK VINA RESULT:    -5.048      3.753      7.628
REMARK INTER + INTRA:          -6.926
REMARK INTER:                  -6.456
REMARK INTRA:                  -0.470
REMARK UNBOUND:                -0.550
REMARK  Name = 
REMARK  5 active torsions:
REMARK  status: ('A' for Active; 'I' for Inactive)
REMARK    1  A    between atoms: N_1  and  C_2
REMARK    2  A    between atoms: C_2  and  C_3
REMARK    3  A    between atoms: C_3  and  C_4
REMARK    4  A    between atoms: C_7  and  C_8
REMARK    5  A    between atoms: C_8  and  N_9
REMARK                            x       y       z     vdW  Elec       q    Type
REMARK                         _______ _______ _______ _____ _____    ______ ____
ROOT
ATOM      1  C   UNL     1      48.071   5.444  17.211  0.00  0.00    +0.000 A 
ATOM      2  C   UNL     1      47.372   4.454  16.510  0.00  0.00    +0.000 A 
ATOM      3  C   UNL     1      47.247   4.522  15.118  0.00  0.00    +0.000 A 
ATOM      4  C   UNL     1      47.828   5.576  14.400  0.00  0.00    +0.000 A 
ATOM      5  C   UNL     1      48.546   6.553  15.104  0.00  0.00    +0.000 A 
ATOM      6  C   UNL     1      48.670   6.485  16.493  0.00  0.00    +0.000 A 
ENDROOT
BRANCH   1   7
ATOM      7  C   UNL     1      48.164   5.403  18.717  0.00  0.00    +0.000 C 
BRANCH   7   8
ATOM      8  C   UNL     1      48.915   4.172  19.229  0.00  0.00    +0.000 C 
BRANCH   8   9
ATOM      9  N   UNL     1      48.330   3.690  20.482  0.00  0.00    +0.000 NA
ATOM     10  H   UNL     1      49.076   3.502  21.152  0.00  0.00    +0.000 HD
ATOM     11  H   UNL     1      47.861   2.800  20.322  0.00  0.00    +0.000 HD
ENDBRANCH   8   9
ENDBRANCH   7   8
ENDBRANCH   1   7
BRANCH   4  12
ATOM     12  C   UNL     1      47.651   5.690  12.905  0.00  0.00    +0.000 C 
BRANCH  12  13
ATOM     13  N   UNL     1      46.286   6.059  12.556  0.00  0.00    +0.000 N 
ATOM     14  C   UNL     1      45.789   7.342  12.542  0.00  0.00    +0.000 A 
ATOM     15  C   UNL     1      44.472   7.281  12.135  0.00  0.00    +0.000 A 
ATOM     16  C   UNL     1      44.152   5.914  11.916  0.00  0.00    +0.000 A 
ATOM     17  C   UNL     1      43.013   5.211  11.493  0.00  0.00    +0.000 A 
ATOM     18  C   UNL     1      43.103   3.822  11.408  0.00  0.00    +0.000 A 
ATOM     19  C   UNL     1      44.297   3.204  11.755  0.00  0.00    +0.000 A 
ATOM     20  N   UNL     1      45.421   3.830  12.170  0.00  0.00    +0.000 NA
ATOM     21  C   UNL     1      45.293   5.173  12.217  0.00  0.00    +0.000 A 
ENDBRANCH  12  13
ENDBRANCH   4  12
TORSDOF 5
ENDMDL
MODEL 9
REMARK VINA RESULT:    -5.032      4.405      7.328
REMARK INTER + INTRA:          -6.906
REMARK INTER:                  -6.327
REMARK INTRA:                  -0.578
REMARK UNBOUND:                -0.550
REMARK  Name = 
REMARK  5 active torsions:
REMARK  status: ('A' for Active; 'I' for Inactive)
REMARK    1  A    between atoms: N_1  and  C_2
REMARK    2  A    between atoms: C_2  and  C_3
REMARK    3  A    between atoms: C_3  and  C_4
REMARK    4  A    between atoms: C_7  and  C_8
REMARK    5  A    between atoms: C_8  and  N_9
REMARK                            x       y       z     vdW  Elec       q    Type
REMARK                         _______ _______ _______ _____ _____    ______ ____
ROOT
ATOM      1  C   UNL     1      45.610   6.746  12.499  0.00  0.00    +0.000 A 
ATOM      2  C   UNL     1      46.104   8.000  12.878  0.00  0.00    +0.000 A 
ATOM      3  C   UNL     1      47.281   8.105  13.627  0.00  0.00    +0.000 A 
ATOM      4  C   UNL     1      47.992   6.958  14.002  0.00  0.00    +0.000 A 
ATOM      5  C   UNL     1      47.506   5.705  13.602  0.00  0.00    +0.000 A 
ATOM      6  C   UNL     1      46.331   5.600  12.855  0.00  0.00    +0.000 A 
ENDROOT
BRANCH   1   7
ATOM      7  C   UNL     1      44.314   6.625  11.737  0.00  0.00    +0.000 C 
BRANCH   7   8
ATOM      8  C   UNL     1      43.566   5.325  12.045  0.00  0.00    +0.000 C 
BRANCH   8   9
ATOM      9  N   UNL     1      42.727   5.476  13.235  0.00  0.00    +0.000 NA
ATOM     10  H   UNL     1      42.836   6.420  13.607  0.00  0.00    +0.000 HD
ATOM     11  H   UNL     1      43.052   4.844  13.966  0.00  0.00    +0.000 HD
ENDBRANCH   8   9
ENDBRANCH   7   8
ENDBRANCH   1   7
BRANCH   4  12
ATOM     12  C   UNL     1      49.231   7.056  14.859  0.00  0.00    +0.000 C 
BRANCH  12  13
ATOM     13  N   UNL     1      48.906   7.006  16.277  0.00  0.00    +0.000 N 
ATOM     14  C   UNL     1      48.607   8.096  17.063  0.00  0.00    +0.000 A 
ATOM     15  C   UNL     1      48.331   7.638  18.334  0.00  0.00    +0.000 A 
ATOM     16  C   UNL     1      48.489   6.227  18.327  0.00  0.00    +0.000 A 
ATOM     17  C   UNL     1      48.346   5.202  19.276  0.00  0.00    +0.000 A 
ATOM     18  C   UNL     1      48.608   3.896  18.864  0.00  0.00    +0.000 A 
ATOM     19  C   UNL     1      49.007   3.673  17.553  0.00  0.00    +0.000 A 
ATOM     20  N   UNL     1      49.163   4.620  16.601  0.00  0.00    +0.000 NA
ATOM     21  C   UNL     1      48.879   5.865  17.040  0.00  0.00    +0.000 A 
ENDBRANCH  12  13
ENDBRANCH   4  12
TORSDOF 5
ENDMDL
