MODEL 1
REMARK VINA RESULT:    -8.144      0.000      0.000
REMARK INTER + INTRA:         -11.301
REMARK INTER:                 -10.763
REMARK INTRA:                  -0.538
REMARK UNBOUND:                -0.538
REMARK  Name = 
REMARK  6 active torsions:
REMARK  status: ('A' for Active; 'I' for Inactive)
REMARK    1  A    between atoms: C_2  and  C_4
REMARK    2  A    between atoms: C_7  and  N_8
REMARK    3  A    between atoms: N_8  and  CA_9
REMARK    4  A    between atoms: CA_9  and  C_10
REMARK    5  A    between atoms: CA_9  and  C_12
REMARK    6  A    between atoms: C_10  and  O_11
REMARK                            x       y       z     vdW  Elec       q    Type
REMARK                         _______ _______ _______ _____ _____    ______ ____
ROOT
ATOM      1  N   UNL     1      43.820   4.866   9.899  0.00  0.00    +0.000 N 
ATOM      2  H   UNL     1      43.426   5.653   9.399  0.00  0.00    +0.000 HD
ENDROOT
BRANCH   1   6
ATOM      3  C   UNL     1      46.217   2.096   7.944  0.00  0.00    +0.000 A 
ATOM      4  C   UNL     1      46.385   3.432   7.615  0.00  0.00    +0.000 A 
ATOM      5  C   UNL     1      45.580   4.384   8.251  0.00  0.00    +0.000 A 
ATOM      6  C   UNL     1      44.607   3.995   9.172  0.00  0.00    +0.000 A 
ATOM      7  C   UNL     1      44.524   2.614   9.411  0.00  0.00    +0.000 A 
ATOM      8  N   UNL     1      45.291   1.654   8.833  0.00  0.00    +0.000 NA
BRANCH   3  10
ATOM      9  N   UNL     1      46.837  -0.236   7.670  0.00  0.00    +0.000 N 
ATOM     10  C   UNL     1      47.111   1.061   7.328  0.00  0.00    +0.000 C 
ATOM     11  O   UNL     1      48.038   1.348   6.582  0.00  0.00    +0.000 OA
ATOM     12  H   UNL     1      47.431  -0.976   7.327  0.00  0.00    +0.000 HD
ATOM     13  H   UNL     1      46.082  -0.433   8.317  0.00  0.00    +0.000 HD
ENDBRANCH   3  10
ENDBRANCH   1   6
BRANCH   1  14
ATOM     14  CA  UNL     1      43.670   4.886  11.353  0.00  0.00    +0.000 C 
BRANCH  14  15
ATOM     15  C   UNL     1      45.012   5.256  11.981  0.00  0.00    +0.000 A 
ATOM     16  C   UNL     1      45.490   4.523  13.079  0.00  0.00    +0.000 A 
ATOM     17  C   UNL     1      46.706   4.851  13.683  0.00  0.00    +0.000 A 
ATOM     18  C   UNL     1      47.464   5.912  13.195  0.00  0.00    +0.000 A 
ATOM     19  C   UNL     1      47.009   6.645  12.101  0.00  0.00    +0.000 A 
ATOM     20  C   UNL     1      45.793   6.322  11.496  0.00  0.00    +0.000 A 
ENDBRANCH  14  15
BRANCH  14  21
ATOM     21  C   UNL     1      42.554   5.875  11.776  0.00  0.00    +0.000 C 
BRANCH  21  22
ATOM     22  O   UNL     1      42.609   7.096  11.032  0.00  0.00    +0.000 OA
ATOM     23  H   UNL     1      43.416   7.068  10.486  0.00  0.00    +0.000 HD
ENDBRANCH  21  22
ENDBRANCH  14  21
ENDBRANCH   1  14
TORSDOF 6
ENDMDL
MODEL 2
REMARK VINA RESULT:    -7.986      1.166      1.450
REMARK INTER + INTRA:         -11.091
REMARK INTER:                 -10.572
REMARK INTRA:                  -0.519
REMARK UNBOUND:                -0.538
REMARK  Name = 
REMARK  6 active torsions:
REMARK  status: ('A' for Active; 'I' for Inactive)
REMARK    1  A    between atoms: C_2  and  C_4
REMARK    2  A    between atoms: C_7  and  N_8
REMARK    3  A    between atoms: N_8  and  CA_9
REMARK    4  A    between atoms: CA_9  and  C_10
REMARK    5  A    between atoms: CA_9  and  C_12
REMARK    6  A    between atoms: C_10  and  O_11
REMARK                            x       y       z     vdW  Elec       q    Type
REMARK                         _______ _______ _______ _____ _____    ______ ____
ROOT
ATOM      1  N   UNL     1      43.813   4.791   9.956  0.00  0.00    +0.000 N 
ATOM      2  H   UNL     1      43.386   5.546   9.435  0.00  0.00    +0.000 HD
ENDROOT
BRANCH   1   6
ATOM      3  C   UNL     1      46.514   2.580   7.707  0.00  0.00    +0.000 A 
ATOM      4  C   UNL     1      45.681   1.886   8.571  0.00  0.00    +0.000 A 
ATOM      5  C   UNL     1      44.771   2.609   9.349  0.00  0.00    +0.000 A 
ATOM      6  C   UNL     1      44.724   4.002   9.281  0.00  0.00    +0.000 A 
ATOM      7  C   UNL     1      45.625   4.591   8.381  0.00  0.00    +0.000 A 
ATOM      8  N   UNL     1      46.515   3.933   7.594  0.00  0.00    +0.000 NA
BRANCH   3  10
ATOM      9  N   UNL     1      48.519   2.540   6.338  0.00  0.00    +0.000 N 
ATOM     10  C   UNL     1      47.452   1.826   6.813  0.00  0.00    +0.000 C 
ATOM     11  O   UNL     1      47.275   0.654   6.507  0.00  0.00    +0.000 OA
ATOM     12  H   UNL     1      49.161   2.105   5.693  0.00  0.00    +0.000 HD
ATOM     13  H   UNL     1      48.615   3.519   6.585  0.00  0.00    +0.000 HD
ENDBRANCH   3  10
ENDBRANCH   1   6
BRANCH   1  14
ATOM     14  CA  UNL     1      43.559   4.777  11.396  0.00  0.00    +0.000 C 
BRANCH  14  15
ATOM     15  C   UNL     1      44.870   5.052  12.129  0.00  0.00    +0.000 A 
ATOM     16  C   UNL     1      45.457   4.039  12.903  0.00  0.00    +0.000 A 
ATOM     17  C   UNL     1      46.647   4.269  13.597  0.00  0.00    +0.000 A 
ATOM     18  C   UNL     1      47.270   5.512  13.523  0.00  0.00    +0.000 A 
ATOM     19  C   UNL     1      46.705   6.527  12.754  0.00  0.00    +0.000 A 
ATOM     20  C   UNL     1      45.515   6.301  12.060  0.00  0.00    +0.000 A 
ENDBRANCH  14  15
BRANCH  14  21
ATOM     21  C   UNL     1      42.471   5.815  11.771  0.00  0.00    +0.000 C 
BRANCH  21  22
ATOM     22  O   UNL     1      42.604   7.027  11.022  0.00  0.00    +0.000 OA
ATOM     23  H   UNL     1      42.486   6.801  10.081  0.00  0.00    +0.000 HD
ENDBRANCH  21  22
ENDBRANCH  14  21
ENDBRANCH   1  14
TORSDOF 6
ENDMDL
MODEL 3
REMARK VINA RESULT:    -7.039      2.890      6.052
REMARK INTER + INTRA:          -9.840
REMARK INTER:                  -9.512
REMARK INTRA:                  -0.328
REMARK UNBOUND:                -0.538
REMARK  Name = 
REMARK  6 active torsions:
REMARK  status: ('A' for Active; 'I' for Inactive)
REMARK    1  A    between atoms: C_2  and  C_4
REMARK    2  A    between atoms: C_7  and  N_8
REMARK    3  A    between atoms: N_8  and  CA_9
REMARK    4  A    between atoms: CA_9  and  C_10
REMARK    5  A    between atoms: CA_9  and  C_12
REMARK    6  A    between atoms: C_10  and  O_11
REMARK                            x       y       z     vdW  Elec       q    Type
REMARK                         _______ _______ _______ _____ _____    ______ ____
ROOT
ATOM      1  N   UNL     1      44.164   5.130  10.088  0.00  0.00    +0.000 N 
ATOM      2  H   UNL     1      43.493   5.738   9.636  0.00  0.00    +0.000 HD
ENDROOT
BRANCH   1   6
ATOM      3  C   UNL     1      46.634   7.063  12.810  0.00  0.00    +0.000 A 
ATOM      4  C   UNL     1      47.152   6.799  11.551  0.00  0.00    +0.000 A 
ATOM      5  C   UNL     1      46.343   6.138  10.620  0.00  0.00    +0.000 A 
ATOM      6  C   UNL     1      45.056   5.723  10.961  0.00  0.00    +0.000 A 
ATOM      7  C   UNL     1      44.650   6.034  12.268  0.00  0.00    +0.000 A 
ATOM      8  N   UNL     1      45.390   6.687  13.202  0.00  0.00    +0.000 NA
BRANCH   3  10
ATOM      9  N   UNL     1      46.893   8.990  14.263  0.00  0.00    +0.000 N 
ATOM     10  C   UNL     1      47.454   7.829  13.804  0.00  0.00    +0.000 C 
ATOM     11  O   UNL     1      48.560   7.458  14.175  0.00  0.00    +0.000 OA
ATOM     12  H   UNL     1      47.414   9.577  14.898  0.00  0.00    +0.000 HD
ATOM     13  H   UNL     1      45.989   9.283  13.909  0.00  0.00    +0.000 HD
ENDBRANCH   3  10
ENDBRANCH   1   6
BRANCH   1  14
ATOM     14  CA  UNL     1      43.956   3.693   9.911  0.00  0.00    +0.000 C 
BRANCH  14  15
ATOM     15  C   UNL     1      44.969   3.171   8.897  0.00  0.00    +0.000 A 
ATOM     16  C   UNL     1      45.376   1.828   8.951  0.00  0.00    +0.000 A 
ATOM     17  C   UNL     1      46.315   1.328   8.046  0.00  0.00    +0.000 A 
ATOM     18  C   UNL     1      46.857   2.162   7.071  0.00  0.00    +0.000 A 
ATOM     19  C   UNL     1      46.460   3.495   6.998  0.00  0.00    +0.000 A 
ATOM     20  C   UNL     1      45.523   3.998   7.902  0.00  0.00    +0.000 A 
ENDBRANCH  14  15
BRANCH  14  21
ATOM     21  C   UNL     1      44.075   2.951  11.267  0.00  0.00    +0.000 C 
BRANCH  21  22
ATOM     22  O   UNL     1      42.897   2.199  11.573  0.00  0.00    +0.000 OA
ATOM     23  H   UNL     1      42.464   2.633  12.332  0.00  0.00    +0.000 HD
ENDBRANCH  21  22
ENDBRANCH  14  21
ENDBRANCH   1  14
TORSDOF 6
ENDMDL
MODEL 4
REMARK VINA RESULT:    -7.010      2.806      6.293
REMARK INTER + INTRA:          -9.802
REMARK INTER:                  -9.279
REMARK INTRA:                  -0.523
REMARK UNBOUND:                -0.538
REMARK  Name = 
REMARK  6 active torsions:
REMARK  status: ('A' for Active; 'I' for Inactive)
REMARK    1  A    between atoms: C_2  and  C_4
REMARK    2  A    between atoms: C_7  and  N_8
REMARK    3  A    between atoms: N_8  and  CA_9
REMARK    4  A    between atoms: CA_9  and  C_10
REMARK    5  A    between atoms: CA_9  and  C_12
REMARK    6  A    between atoms: C_10  and  O_11
REMARK                            x       y       z     vdW  Elec       q    Type
REMARK                         _______ _______ _______ _____ _____    ______ ____
ROOT
ATOM      1  N   UNL     1      44.096   4.446   9.236  0.00  0.00    +0.000 N 
ATOM      2  H   UNL     1      43.442   4.808   8.553  0.00  0.00    +0.000 HD
ENDROOT
BRANCH   1   6
ATOM      3  C   UNL     1      45.343   7.290  11.992  0.00  0.00    +0.000 A 
ATOM      4  C   UNL     1      46.316   6.689  11.208  0.00  0.00    +0.000 A 
ATOM      5  C   UNL     1      45.922   5.719  10.280  0.00  0.00    +0.000 A 
ATOM      6  C   UNL     1      44.584   5.339  10.169  0.00  0.00    +0.000 A 
ATOM      7  C   UNL     1      43.696   6.008  11.026  0.00  0.00    +0.000 A 
ATOM      8  N   UNL     1      44.026   6.967  11.930  0.00  0.00    +0.000 NA
BRANCH   3  10
ATOM      9  N   UNL     1      44.906   9.476  12.955  0.00  0.00    +0.000 N 
ATOM     10  C   UNL     1      45.727   8.380  12.946  0.00  0.00    +0.000 C 
ATOM     11  O   UNL     1      46.717   8.313  13.664  0.00  0.00    +0.000 OA
ATOM     12  H   UNL     1      45.136  10.265  13.540  0.00  0.00    +0.000 HD
ATOM     13  H   UNL     1      44.114   9.511  12.323  0.00  0.00    +0.000 HD
ENDBRANCH   3  10
ENDBRANCH   1   6
BRANCH   1  14
ATOM     14  CA  UNL     1      44.265   2.993   9.261  0.00  0.00    +0.000 C 
BRANCH  14  15
ATOM     15  C   UNL     1      45.393   2.613   8.306  0.00  0.00    +0.000 A 
ATOM     16  C   UNL     1      45.816   3.531   7.331  0.00  0.00    +0.000 A 
ATOM     17  C   UNL     1      46.834   3.203   6.433  0.00  0.00    +0.000 A 
ATOM     18  C   UNL     1      47.447   1.954   6.500  0.00  0.00    +0.000 A 
ATOM     19  C   UNL     1      47.046   1.034   7.465  0.00  0.00    +0.000 A 
ATOM     20  C   UNL     1      46.027   1.358   8.363  0.00  0.00    +0.000 A 
ENDBRANCH  14  15
BRANCH  14  21
ATOM     21  C   UNL     1      44.550   2.500  10.702  0.00  0.00    +0.000 C 
BRANCH  21  22
ATOM     22  O   UNL     1      43.347   2.185  11.411  0.00  0.00    +0.000 OA
ATOM     23  H   UNL     1      42.973   1.382  11.005  0.00  0.00    +0.000 HD
ENDBRANCH  21  22
ENDBRANCH  14  21
ENDBRANCH   1  14
TORSDOF 6
ENDMDL
MODEL 5
REMARK VINA RESULT:    -6.710      2.936      6.386
REMARK INTER + INTRA:          -9.405
REMARK INTER:                  -8.836
REMARK INTRA:                  -0.569
REMARK UNBOUND:                -0.538
REMARK  Name = 
REMARK  6 active torsions:
REMARK  status: ('A' for Active; 'I' for Inactive)
REMARK    1  A    between atoms: C_2  and  C_4
REMARK    2  A    between atoms: C_7  and  N_8
REMARK    3  A    between atoms: N_8  and  CA_9
REMARK    4  A    between atoms: CA_9  and  C_10
REMARK    5  A    between atoms: CA_9  and  C_12
REMARK    6  A    between atoms: C_10  and  O_11
REMARK                            x       y       z     vdW  Elec       q    Type
REMARK                         _______ _______ _______ _____ _____    ______ ____
ROOT
ATOM      1  N   UNL     1      45.182   4.533  11.645  0.00  0.00    +0.000 N 
ATOM      2  H   UNL     1      45.781   3.873  12.125  0.00  0.00    +0.000 HD
ENDROOT
BRANCH   1   6
ATOM      3  C   UNL     1      45.866   8.615  11.978  0.00  0.00    +0.000 A 
ATOM      4  C   UNL     1      46.875   7.761  12.394  0.00  0.00    +0.000 A 
ATOM      5  C   UNL     1      46.664   6.381  12.304  0.00  0.00    +0.000 A 
ATOM      6  C   UNL     1      45.451   5.874  11.835  0.00  0.00    +0.000 A 
ATOM      7  C   UNL     1      44.503   6.837  11.457  0.00  0.00    +0.000 A 
ATOM      8  N   UNL     1      44.666   8.185  11.511  0.00  0.00    +0.000 NA
BRANCH   3  10
ATOM      9  N   UNL     1      44.972  10.862  12.198  0.00  0.00    +0.000 N 
ATOM     10  C   UNL     1      46.089  10.097  12.000  0.00  0.00    +0.000 C 
ATOM     11  O   UNL     1      47.193  10.602  11.837  0.00  0.00    +0.000 OA
ATOM     12  H   UNL     1      45.046  11.868  12.177  0.00  0.00    +0.000 HD
ATOM     13  H   UNL     1      44.068  10.411  12.297  0.00  0.00    +0.000 HD
ENDBRANCH   3  10
ENDBRANCH   1   6
BRANCH   1  14
ATOM     14  CA  UNL     1      44.259   3.969  10.660  0.00  0.00    +0.000 C 
BRANCH  14  15
ATOM     15  C   UNL     1      45.063   3.470   9.463  0.00  0.00    +0.000 A 
ATOM     16  C   UNL     1      45.258   2.091   9.285  0.00  0.00    +0.000 A 
ATOM     17  C   UNL     1      46.004   1.608   8.208  0.00  0.00    +0.000 A 
ATOM     18  C   UNL     1      46.562   2.495   7.290  0.00  0.00    +0.000 A 
ATOM     19  C   UNL     1      46.372   3.866   7.447  0.00  0.00    +0.000 A 
ATOM     20  C   UNL     1      45.628   4.353   8.524  0.00  0.00    +0.000 A 
ENDBRANCH  14  15
BRANCH  14  21
ATOM     21  C   UNL     1      43.413   2.833  11.290  0.00  0.00    +0.000 C 
BRANCH  21  22
ATOM     22  O   UNL     1      43.900   2.454  12.581  0.00  0.00    +0.000 OA
ATOM     23  H   UNL     1      43.215   1.900  12.998  0.00  0.00    +0.000 HD
ENDBRANCH  21  22
ENDBRANCH  14  21
ENDBRANCH   1  14
TORSDOF 6
ENDMDL
MODEL 6
REMARK VINA RESULT:    -6.703      2.910      5.747
REMARK INTER + INTRA:          -9.396
REMARK INTER:                  -9.895
REMARK INTRA:                   0.499
REMARK UNBOUND:                -0.538
REMARK  Name = 
REMARK  6 active torsions:
REMARK  status: ('A' for Active; 'I' for Inactive)
REMARK    1  A    between atoms: C_2  and  C_4
REMARK    2  A    between atoms: C_7  and  N_8
REMARK    3  A    between atoms: N_8  and  CA_9
REMARK    4  A    between atoms: CA_9  and  C_10
REMARK    5  A    between atoms: CA_9  and  C_12
REMARK    6  A    between atoms: C_10  and  O_11
REMARK                            x       y       z     vdW  Elec       q    Type
REMARK                         _______ _______ _______ _____ _____    ______ ____
ROOT
ATOM      1  N   UNL     1      44.960   5.407  10.576  0.00  0.00    +0.000 N 
ATOM      2  H   UNL     1      44.831   6.353  10.240  0.00  0.00    +0.000 HD
ENDROOT
BRANCH   1   6
ATOM      3  C   UNL     1      46.924   4.786  14.181  0.00  0.00    +0.000 A 
ATOM      4  C   UNL     1      47.039   6.038  13.597  0.00  0.00    +0.000 A 
ATOM      5  C   UNL     1      46.396   6.268  12.376  0.00  0.00    +0.000 A 
ATOM      6  C   UNL     1      45.683   5.250  11.742  0.00  0.00    +0.000 A 
ATOM      7  C   UNL     1      45.651   4.024  12.424  0.00  0.00    +0.000 A 
ATOM      8  N   UNL     1      46.243   3.756  13.616  0.00  0.00    +0.000 NA
BRANCH   3  10
ATOM      9  N   UNL     1      46.862   3.670  16.337  0.00  0.00    +0.000 N 
ATOM     10  C   UNL     1      47.546   4.531  15.521  0.00  0.00    +0.000 C 
ATOM     11  O   UNL     1      48.587   5.066  15.880  0.00  0.00    +0.000 OA
ATOM     12  H   UNL     1      47.201   3.493  17.270  0.00  0.00    +0.000 HD
ATOM     13  H   UNL     1      45.985   3.271  16.019  0.00  0.00    +0.000 HD
ENDBRANCH   3  10
ENDBRANCH   1   6
BRANCH   1  14
ATOM     14  CA  UNL     1      44.188   4.369   9.893  0.00  0.00    +0.000 C 
BRANCH  14  15
ATOM     15  C   UNL     1      45.122   3.588   8.972  0.00  0.00    +0.000 A 
ATOM     16  C   UNL     1      45.219   2.193   9.103  0.00  0.00    +0.000 A 
ATOM     17  C   UNL     1      46.078   1.456   8.286  0.00  0.00    +0.000 A 
ATOM     18  C   UNL     1      46.850   2.101   7.323  0.00  0.00    +0.000 A 
ATOM     19  C   UNL     1      46.762   3.483   7.174  0.00  0.00    +0.000 A 
ATOM     20  C   UNL     1      45.905   4.223   7.990  0.00  0.00    +0.000 A 
ENDBRANCH  14  15
BRANCH  14  21
ATOM     21  C   UNL     1      43.494   3.438  10.919  0.00  0.00    +0.000 C 
BRANCH  21  22
ATOM     22  O   UNL     1      42.366   4.066  11.537  0.00  0.00    +0.000 OA
ATOM     23  H   UNL     1      42.666   4.423  12.393  0.00  0.00    +0.000 HD
ENDBRANCH  21  22
ENDBRANCH  14  21
ENDBRANCH   1  14
TORSDOF 6
ENDMDL
MODEL 7
REMARK VINA RESULT:    -6.574      3.287      6.037
REMARK INTER + INTRA:          -9.225
REMARK INTER:                  -8.665
REMARK INTRA:                  -0.560
REMARK UNBOUND:                -0.538
REMARK  Name = 
REMARK  6 active torsions:
REMARK  status: ('A' for Active; 'I' for Inactive)
REMARK    1  A    between atoms: C_2  and  C_4
REMARK    2  A    between atoms: C_7  and  N_8
REMARK    3  A    between atoms: N_8  and  CA_9
REMARK    4  A    between atoms: CA_9  and  C_10
REMARK    5  A    between atoms: CA_9  and  C_12
REMARK    6  A    between atoms: C_10  and  O_11
REMARK                            x       y       z     vdW  Elec       q    Type
REMARK                         _______ _______ _______ _____ _____    ______ ____
ROOT
ATOM      1  N   UNL     1      44.926   4.918  12.406  0.00  0.00    +0.000 N 
ATOM      2  H   UNL     1      44.617   4.113  12.937  0.00  0.00    +0.000 HD
ENDROOT
BRANCH   1   6
ATOM      3  C   UNL     1      48.415   6.647  13.850  0.00  0.00    +0.000 A 
ATOM      4  C   UNL     1      47.825   7.228  12.738  0.00  0.00    +0.000 A 
ATOM      5  C   UNL     1      46.656   6.656  12.225  0.00  0.00    +0.000 A 
ATOM      6  C   UNL     1      46.112   5.507  12.800  0.00  0.00    +0.000 A 
ATOM      7  C   UNL     1      46.806   5.004  13.911  0.00  0.00    +0.000 A 
ATOM      8  N   UNL     1      47.934   5.531  14.455  0.00  0.00    +0.000 NA
BRANCH   3  10
ATOM      9  N   UNL     1      50.615   7.639  13.582  0.00  0.00    +0.000 N 
ATOM     10  C   UNL     1      49.630   7.277  14.461  0.00  0.00    +0.000 C 
ATOM     11  O   UNL     1      49.751   7.446  15.668  0.00  0.00    +0.000 OA
ATOM     12  H   UNL     1      51.479   8.024  13.934  0.00  0.00    +0.000 HD
ATOM     13  H   UNL     1      50.494   7.453  12.592  0.00  0.00    +0.000 HD
ENDBRANCH   3  10
ENDBRANCH   1   6
BRANCH   1  14
ATOM     14  CA  UNL     1      44.184   5.207  11.180  0.00  0.00    +0.000 C 
BRANCH  14  15
ATOM     15  C   UNL     1      44.691   4.288  10.071  0.00  0.00    +0.000 A 
ATOM     16  C   UNL     1      44.377   2.920  10.107  0.00  0.00    +0.000 A 
ATOM     17  C   UNL     1      44.843   2.053   9.115  0.00  0.00    +0.000 A 
ATOM     18  C   UNL     1      45.624   2.542   8.071  0.00  0.00    +0.000 A 
ATOM     19  C   UNL     1      45.938   3.898   8.016  0.00  0.00    +0.000 A 
ATOM     20  C   UNL     1      45.476   4.767   9.006  0.00  0.00    +0.000 A 
ENDBRANCH  14  15
BRANCH  14  21
ATOM     21  C   UNL     1      42.661   5.035  11.408  0.00  0.00    +0.000 C 
BRANCH  21  22
ATOM     22  O   UNL     1      42.027   6.270  11.754  0.00  0.00    +0.000 OA
ATOM     23  H   UNL     1      41.920   6.782  10.932  0.00  0.00    +0.000 HD
ENDBRANCH  21  22
ENDBRANCH  14  21
ENDBRANCH   1  14
TORSDOF 6
ENDMDL
MODEL 8
REMARK VINA RESULT:    -6.068      3.578      6.374
REMARK INTER + INTRA:          -8.556
REMARK INTER:                  -8.395
REMARK INTRA:                  -0.161
REMARK UNBOUND:                -0.538
REMARK  Name = 
REMARK  6 active torsions:
REMARK  status: ('A' for Active; 'I' for Inactive)
REMARK    1  A    between atoms: C_2  and  C_4
REMARK    2  A    between atoms: C_7  and  N_8
REMARK    3  A    between atoms: N_8  and  CA_9
REMARK    4  A    between atoms: CA_9  and  C_10
REMARK    5  A    between atoms: CA_9  and  C_12
REMARK    6  A    between atoms: C_10  and  O_11
REMARK                            x       y       z     vdW  Elec       q    Type
REMARK                         _______ _______ _______ _____ _____    ______ ____
ROOT
ATOM      1  N   UNL     1      46.685   6.259  11.418  0.00  0.00    +0.000 N 
ATOM      2  H   UNL     1      47.440   6.719  10.925  0.00  0.00    +0.000 HD
ENDROOT
BRANCH   1   6
ATOM      3  C   UNL     1      47.700   5.156  15.291  0.00  0.00    +0.000 A 
ATOM      4  C   UNL     1      46.759   4.381  14.630  0.00  0.00    +0.000 A 
ATOM      5  C   UNL     1      46.391   4.740  13.329  0.00  0.00    +0.000 A 
ATOM      6  C   UNL     1      46.934   5.872  12.720  0.00  0.00    +0.000 A 
ATOM      7  C   UNL     1      47.866   6.582  13.494  0.00  0.00    +0.000 A 
ATOM      8  N   UNL     1      48.267   6.266  14.753  0.00  0.00    +0.000 NA
BRANCH   3  10
ATOM      9  N   UNL     1      47.258   4.948  17.669  0.00  0.00    +0.000 N 
ATOM     10  C   UNL     1      48.162   4.757  16.659  0.00  0.00    +0.000 C 
ATOM     11  O   UNL     1      49.280   4.304  16.874  0.00  0.00    +0.000 OA
ATOM     12  H   UNL     1      47.525   4.744  18.621  0.00  0.00    +0.000 HD
ATOM     13  H   UNL     1      46.354   5.356  17.459  0.00  0.00    +0.000 HD
ENDBRANCH   3  10
ENDBRANCH   1   6
BRANCH   1  14
ATOM     14  CA  UNL     1      45.383   6.262  10.753  0.00  0.00    +0.000 C 
BRANCH  14  15
ATOM     15  C   UNL     1      45.196   4.930  10.033  0.00  0.00    +0.000 A 
ATOM     16  C   UNL     1      45.754   4.747   8.757  0.00  0.00    +0.000 A 
ATOM     17  C   UNL     1      45.584   3.544   8.068  0.00  0.00    +0.000 A 
ATOM     18  C   UNL     1      44.858   2.505   8.646  0.00  0.00    +0.000 A 
ATOM     19  C   UNL     1      44.304   2.667   9.914  0.00  0.00    +0.000 A 
ATOM     20  C   UNL     1      44.471   3.868  10.605  0.00  0.00    +0.000 A 
ENDBRANCH  14  15
BRANCH  14  21
ATOM     21  C   UNL     1      44.246   6.519  11.775  0.00  0.00    +0.000 C 
BRANCH  21  22
ATOM     22  O   UNL     1      43.217   7.354  11.235  0.00  0.00    +0.000 OA
ATOM     23  H   UNL     1      43.349   7.390  10.270  0.00  0.00    +0.000 HD
ENDBRANCH  21  22
ENDBRANCH  14  21
ENDBRANCH   1  14
TORSDOF 6
ENDMDL
MODEL 9
REMARK VINA RESULT:    -5.705      3.400      5.298
REMARK INTER + INTRA:          -8.077
REMARK INTER:                  -7.497
REMARK INTRA:                  -0.580
REMARK UNBOUND:                -0.538
REMARK  Name = 
REMARK  6 active torsions:
REMARK  status: ('A' for Active; 'I' for Inactive)
REMARK    1  A    between atoms: C_2  and  C_4
REMARK    2  A    between atoms: C_7  and  N_8
REMARK    3  A    between atoms: N_8  and  CA_9
REMARK    4  A    between atoms: CA_9  and  C_10
REMARK    5  A    between atoms: CA_9  and  C_12
REMARK    6  A    between atoms: C_10  and  O_11
REMARK                            x       y       z     vdW  Elec       q    Type
REMARK                         _______ _______ _______ _____ _____    ______ ____
ROOT
ATOM      1  N   UNL     1      46.951   6.847  13.616  0.00  0.00    +0.000 N 
ATOM      2  H   UNL     1      46.480   7.618  14.073  0.00  0.00    +0.000 HD
ENDROOT
BRANCH   1   6
ATOM      3  C   UNL     1      44.728   3.890  11.731  0.00  0.00    +0.000 A 
ATOM      4  C   UNL     1      44.905   5.087  11.054  0.00  0.00    +0.000 A 
ATOM      5  C   UNL     1      45.640   6.103  11.674  0.00  0.00    +0.000 A 
ATOM      6  C   UNL     1      46.156   5.930  12.958  0.00  0.00    +0.000 A 
ATOM      7  C   UNL     1      45.899   4.681  13.545  0.00  0.00    +0.000 A 
ATOM      8  N   UNL     1      45.206   3.658  12.980  0.00  0.00    +0.000 NA
BRANCH   3  10
ATOM      9  N   UNL     1      44.587   2.269   9.928  0.00  0.00    +0.000 N 
ATOM     10  C   UNL     1      44.003   2.760  11.065  0.00  0.00    +0.000 C 
ATOM     11  O   UNL     1      42.947   2.309  11.491  0.00  0.00    +0.000 OA
ATOM     12  H   UNL     1      44.125   1.541   9.406  0.00  0.00    +0.000 HD
ATOM     13  H   UNL     1      45.444   2.690   9.586  0.00  0.00    +0.000 HD
ENDBRANCH   3  10
ENDBRANCH   1   6
BRANCH   1  14
ATOM     14  CA  UNL     1      48.409   6.935  13.543  0.00  0.00    +0.000 C 
BRANCH  14  15
ATOM     15  C   UNL     1      48.786   8.143  12.689  0.00  0.00    +0.000 A 
ATOM     16  C   UNL     1      50.076   8.229  12.141  0.00  0.00    +0.000 A 
ATOM     17  C   UNL     1      50.453   9.331  11.370  0.00  0.00    +0.000 A 
ATOM     18  C   UNL     1      49.545  10.360  11.132  0.00  0.00    +0.000 A 
ATOM     19  C   UNL     1      48.259  10.287  11.661  0.00  0.00    +0.000 A 
ATOM     20  C   UNL     1      47.879   9.188  12.433  0.00  0.00    +0.000 A 
ENDBRANCH  14  15
BRANCH  14  21
ATOM     21  C   UNL     1      49.024   7.030  14.962  0.00  0.00    +0.000 C 
BRANCH  21  22
ATOM     22  O   UNL     1      48.206   6.389  15.946  0.00  0.00    +0.000 OA
ATOM     23  H   UNL     1      47.991   5.499  15.610  0.00  0.00    +0.000 HD
ENDBRANCH  21  22
ENDBRANCH  14  21
ENDBRANCH   1  14
TORSDOF 6
ENDMDL
