MODEL 1
REMARK VINA RESULT:    -7.783      0.000      0.000
REMARK INTER + INTRA:         -12.046
REMARK INTER:                 -10.968
REMARK INTRA:                  -1.077
REMARK UNBOUND:                -1.077
REMARK  Name = 
REMARK  8 active torsions:
REMARK  status: ('A' for Active; 'I' for Inactive)
REMARK    1  A    between atoms: C_1  and  O_2
REMARK    2  A    between atoms: O_2  and  C_3
REMARK    3  A    between atoms: C_5  and  C_6
REMARK    4  A    between atoms: C_6  and  N_7
REMARK    5  A    between atoms: C_8  and  C_10
REMARK    6  A    between atoms: C_17  and  C_18
REMARK    7  A    between atoms: C_18  and  N_19
REMARK    8  A    between atoms: C_20  and  C_22
REMARK                            x       y       z     vdW  Elec       q    Type
REMARK                         _______ _______ _______ _____ _____    ______ ____
ROOT
ATOM      1  C   UNL     1      45.313   8.181  12.267  0.00  0.00    +0.000 A 
ATOM      2  C   UNL     1      44.554   7.374  11.414  0.00  0.00    +0.000 A 
ATOM      3  C   UNL     1      44.937   6.055  11.124  0.00  0.00    +0.000 A 
ATOM      4  C   UNL     1      46.091   5.540  11.728  0.00  0.00    +0.000 A 
ATOM      5  C   UNL     1      46.856   6.340  12.576  0.00  0.00    +0.000 A 
ATOM      6  C   UNL     1      46.491   7.670  12.845  0.00  0.00    +0.000 A 
ENDROOT
BRANCH   1   8
ATOM      7  C   UNL     1      44.602  10.309  11.476  0.00  0.00    +0.000 C 
ATOM      8  O   UNL     1      45.005   9.485  12.564  0.00  0.00    +0.000 OA
ENDBRANCH   1   8
BRANCH   3   9
ATOM      9  C   UNL     1      44.097   5.194  10.219  0.00  0.00    +0.000 C 
BRANCH   9  10
ATOM     10  N   UNL     1      44.922   4.491   9.271  0.00  0.00    +0.000 N 
ATOM     11  C   UNL     1      44.995   3.116   9.233  0.00  0.00    +0.000 C 
ATOM     12  O   UNL     1      44.364   2.417  10.023  0.00  0.00    +0.000 OA
ATOM     13  H   UNL     1      45.400   5.016   8.550  0.00  0.00    +0.000 HD
BRANCH  11  14
ATOM     14  C   UNL     1      45.861   2.564   8.196  0.00  0.00    +0.000 A 
ATOM     15  C   UNL     1      46.293   1.254   8.075  0.00  0.00    +0.000 A 
ATOM     16  C   UNL     1      47.150   1.058   6.953  0.00  0.00    +0.000 A 
ATOM     17  C   UNL     1      47.349   2.223   6.247  0.00  0.00    +0.000 A 
ATOM     18  S   UNL     1      46.502   3.538   6.932  0.00  0.00    +0.000 S 
ENDBRANCH  11  14
ENDBRANCH   9  10
ENDBRANCH   3   9
BRANCH   6  19
ATOM     19  C   UNL     1      47.343   8.471  13.802  0.00  0.00    +0.000 C 
BRANCH  19  20
ATOM     20  N   UNL     1      47.805   7.633  14.885  0.00  0.00    +0.000 N 
ATOM     21  C   UNL     1      49.120   7.290  15.055  0.00  0.00    +0.000 C 
ATOM     22  O   UNL     1      49.983   7.550  14.220  0.00  0.00    +0.000 OA
ATOM     23  H   UNL     1      47.161   7.542  15.663  0.00  0.00    +0.000 HD
BRANCH  21  24
ATOM     24  C   UNL     1      49.451   6.565  16.288  0.00  0.00    +0.000 A 
ATOM     25  C   UNL     1      50.364   7.101  17.187  0.00  0.00    +0.000 A 
ATOM     26  S   UNL     1      50.566   6.163  18.598  0.00  0.00    +0.000 S 
ATOM     27  C   UNL     1      49.388   5.045  18.087  0.00  0.00    +0.000 A 
ATOM     28  N   UNL     1      48.986   4.031  18.899  0.00  0.00    +0.000 NA
ATOM     29  C   UNL     1      48.067   3.277  18.395  0.00  0.00    +0.000 A 
ATOM     30  N   UNL     1      47.545   3.418  17.136  0.00  0.00    +0.000 N 
ATOM     31  C   UNL     1      47.968   4.389  16.259  0.00  0.00    +0.000 A 
ATOM     32  O   UNL     1      47.572   4.410  15.098  0.00  0.00    +0.000 OA
ATOM     33  C   UNL     1      48.928   5.324  16.812  0.00  0.00    +0.000 A 
ATOM     34  H   UNL     1      46.873   2.758  16.777  0.00  0.00    +0.000 HD
ENDBRANCH  21  24
ENDBRANCH  19  20
ENDBRANCH   6  19
TORSDOF 7
ENDMDL
MODEL 2
REMARK VINA RESULT:    -7.685      1.759      2.475
REMARK INTER + INTRA:         -11.907
REMARK INTER:                 -10.739
REMARK INTRA:                  -1.168
REMARK UNBOUND:                -1.077
REMARK  Name = 
REMARK  8 active torsions:
REMARK  status: ('A' for Active; 'I' for Inactive)
REMARK    1  A    between atoms: C_1  and  O_2
REMARK    2  A    between atoms: O_2  and  C_3
REMARK    3  A    between atoms: C_5  and  C_6
REMARK    4  A    between atoms: C_6  and  N_7
REMARK    5  A    between atoms: C_8  and  C_10
REMARK    6  A    between atoms: C_17  and  C_18
REMARK    7  A    between atoms: C_18  and  N_19
REMARK    8  A    between atoms: C_20  and  C_22
REMARK                            x       y       z     vdW  Elec       q    Type
REMARK                         _______ _______ _______ _____ _____    ______ ____
ROOT
ATOM      1  C   UNL     1      46.863   5.512  13.034  0.00  0.00    +0.000 A 
ATOM      2  C   UNL     1      45.894   4.851  12.271  0.00  0.00    +0.000 A 
ATOM      3  C   UNL     1      45.026   5.557  11.424  0.00  0.00    +0.000 A 
ATOM      4  C   UNL     1      45.160   6.948  11.329  0.00  0.00    +0.000 A 
ATOM      5  C   UNL     1      46.121   7.614  12.089  0.00  0.00    +0.000 A 
ATOM      6  C   UNL     1      46.971   6.913  12.961  0.00  0.00    +0.000 A 
ENDROOT
BRANCH   1   8
ATOM      7  C   UNL     1      47.152   3.877  14.738  0.00  0.00    +0.000 C 
ATOM      8  O   UNL     1      47.719   4.879  13.900  0.00  0.00    +0.000 OA
ENDBRANCH   1   8
BRANCH   3   9
ATOM      9  C   UNL     1      44.002   4.827  10.596  0.00  0.00    +0.000 C 
BRANCH   9  10
ATOM     10  N   UNL     1      44.621   3.785   9.819  0.00  0.00    +0.000 N 
ATOM     11  C   UNL     1      45.446   4.053   8.749  0.00  0.00    +0.000 C 
ATOM     12  O   UNL     1      45.682   5.205   8.392  0.00  0.00    +0.000 OA
ATOM     13  H   UNL     1      44.522   2.824  10.118  0.00  0.00    +0.000 HD
BRANCH  11  14
ATOM     14  C   UNL     1      46.011   2.882   8.085  0.00  0.00    +0.000 A 
ATOM     15  C   UNL     1      45.943   1.565   8.506  0.00  0.00    +0.000 A 
ATOM     16  C   UNL     1      46.621   0.669   7.629  0.00  0.00    +0.000 A 
ATOM     17  C   UNL     1      47.190   1.327   6.561  0.00  0.00    +0.000 A 
ATOM     18  S   UNL     1      46.898   3.009   6.618  0.00  0.00    +0.000 S 
ENDBRANCH  11  14
ENDBRANCH   9  10
ENDBRANCH   3   9
BRANCH   6  19
ATOM     19  C   UNL     1      48.015   7.691  13.728  0.00  0.00    +0.000 C 
BRANCH  19  20
ATOM     20  N   UNL     1      47.944   7.373  15.136  0.00  0.00    +0.000 N 
ATOM     21  C   UNL     1      49.037   7.388  15.960  0.00  0.00    +0.000 C 
ATOM     22  O   UNL     1      50.181   7.531  15.537  0.00  0.00    +0.000 OA
ATOM     23  H   UNL     1      47.015   7.414  15.539  0.00  0.00    +0.000 HD
BRANCH  21  24
ATOM     24  C   UNL     1      48.776   7.197  17.393  0.00  0.00    +0.000 A 
ATOM     25  C   UNL     1      48.280   8.246  18.156  0.00  0.00    +0.000 A 
ATOM     26  S   UNL     1      47.961   7.822  19.778  0.00  0.00    +0.000 S 
ATOM     27  C   UNL     1      48.410   6.204  19.498  0.00  0.00    +0.000 A 
ATOM     28  N   UNL     1      48.263   5.259  20.465  0.00  0.00    +0.000 NA
ATOM     29  C   UNL     1      48.616   4.070  20.107  0.00  0.00    +0.000 A 
ATOM     30  N   UNL     1      49.144   3.749  18.884  0.00  0.00    +0.000 N 
ATOM     31  C   UNL     1      49.370   4.682  17.901  0.00  0.00    +0.000 A 
ATOM     32  O   UNL     1      49.959   4.384  16.867  0.00  0.00    +0.000 OA
ATOM     33  C   UNL     1      48.898   6.016  18.217  0.00  0.00    +0.000 A 
ATOM     34  H   UNL     1      49.458   2.811  18.686  0.00  0.00    +0.000 HD
ENDBRANCH  21  24
ENDBRANCH  19  20
ENDBRANCH   6  19
TORSDOF 7
ENDMDL
MODEL 3
REMARK VINA RESULT:    -7.490      2.160      3.214
REMARK INTER + INTRA:         -11.632
REMARK INTER:                 -10.418
REMARK INTRA:                  -1.214
REMARK UNBOUND:                -1.077
REMARK  Name = 
REMARK  8 active torsions:
REMARK  status: ('A' for Active; 'I' for Inactive)
REMARK    1  A    between atoms: C_1  and  O_2
REMARK    2  A    between atoms: O_2  and  C_3
REMARK    3  A    between atoms: C_5  and  C_6
REMARK    4  A    between atoms: C_6  and  N_7
REMARK    5  A    between atoms: C_8  and  C_10
REMARK    6  A    between atoms: C_17  and  C_18
REMARK    7  A    between atoms: C_18  and  N_19
REMARK    8  A    between atoms: C_20  and  C_22
REMARK                            x       y       z     vdW  Elec       q    Type
REMARK                         _______ _______ _______ _____ _____    ______ ____
ROOT
ATOM      1  C   UNL     1      46.839   5.396  12.977  0.00  0.00    +0.000 A 
ATOM      2  C   UNL     1      45.879   4.781  12.167  0.00  0.00    +0.000 A 
ATOM      3  C   UNL     1      45.022   5.535  11.350  0.00  0.00    +0.000 A 
ATOM      4  C   UNL     1      45.160   6.929  11.335  0.00  0.00    +0.000 A 
ATOM      5  C   UNL     1      46.112   7.550  12.143  0.00  0.00    +0.000 A 
ATOM      6  C   UNL     1      46.950   6.799  12.984  0.00  0.00    +0.000 A 
ENDROOT
BRANCH   1   8
ATOM      7  C   UNL     1      47.089   3.732  14.659  0.00  0.00    +0.000 C 
ATOM      8  O   UNL     1      47.683   4.713  13.817  0.00  0.00    +0.000 OA
ENDBRANCH   1   8
BRANCH   3   9
ATOM      9  C   UNL     1      44.007   4.856  10.470  0.00  0.00    +0.000 C 
BRANCH   9  10
ATOM     10  N   UNL     1      44.618   3.798   9.708  0.00  0.00    +0.000 N 
ATOM     11  C   UNL     1      45.498   4.044   8.677  0.00  0.00    +0.000 C 
ATOM     12  O   UNL     1      45.794   5.190   8.344  0.00  0.00    +0.000 OA
ATOM     13  H   UNL     1      44.469   2.839   9.990  0.00  0.00    +0.000 HD
BRANCH  11  14
ATOM     14  C   UNL     1      46.045   2.859   8.023  0.00  0.00    +0.000 A 
ATOM     15  C   UNL     1      45.989   1.552   8.475  0.00  0.00    +0.000 A 
ATOM     16  C   UNL     1      46.644   0.637   7.599  0.00  0.00    +0.000 A 
ATOM     17  C   UNL     1      47.182   1.272   6.502  0.00  0.00    +0.000 A 
ATOM     18  S   UNL     1      46.891   2.954   6.529  0.00  0.00    +0.000 S 
ENDBRANCH  11  14
ENDBRANCH   9  10
ENDBRANCH   3   9
BRANCH   6  19
ATOM     19  C   UNL     1      47.986   7.530  13.806  0.00  0.00    +0.000 C 
BRANCH  19  20
ATOM     20  N   UNL     1      47.886   7.147  15.196  0.00  0.00    +0.000 N 
ATOM     21  C   UNL     1      48.969   6.785  15.951  0.00  0.00    +0.000 C 
ATOM     22  O   UNL     1      50.085   6.618  15.466  0.00  0.00    +0.000 OA
ATOM     23  H   UNL     1      47.027   7.427  15.658  0.00  0.00    +0.000 HD
BRANCH  21  24
ATOM     24  C   UNL     1      48.725   6.576  17.384  0.00  0.00    +0.000 A 
ATOM     25  C   UNL     1      48.971   5.336  17.959  0.00  0.00    +0.000 A 
ATOM     26  S   UNL     1      48.709   5.299  19.644  0.00  0.00    +0.000 S 
ATOM     27  C   UNL     1      48.325   6.957  19.675  0.00  0.00    +0.000 A 
ATOM     28  N   UNL     1      48.105   7.604  20.850  0.00  0.00    +0.000 NA
ATOM     29  C   UNL     1      47.852   8.864  20.726  0.00  0.00    +0.000 A 
ATOM     30  N   UNL     1      47.756   9.527  19.531  0.00  0.00    +0.000 N 
ATOM     31  C   UNL     1      47.908   8.899  18.317  0.00  0.00    +0.000 A 
ATOM     32  O   UNL     1      47.692   9.494  17.266  0.00  0.00    +0.000 OA
ATOM     33  C   UNL     1      48.292   7.504  18.404  0.00  0.00    +0.000 A 
ATOM     34  H   UNL     1      47.495  10.500  19.498  0.00  0.00    +0.000 HD
ENDBRANCH  21  24
ENDBRANCH  19  20
ENDBRANCH   6  19
TORSDOF 7
ENDMDL
MODEL 4
REMARK VINA RESULT:    -7.434      4.620      9.243
REMARK INTER + INTRA:         -11.554
REMARK INTER:                 -10.336
REMARK INTRA:                  -1.217
REMARK UNBOUND:                -1.077
REMARK  Name = 
REMARK  8 active torsions:
REMARK  status: ('A' for Active; 'I' for Inactive)
REMARK    1  A    between atoms: C_1  and  O_2
REMARK    2  A    between atoms: O_2  and  C_3
REMARK    3  A    between atoms: C_5  and  C_6
REMARK    4  A    between atoms: C_6  and  N_7
REMARK    5  A    between atoms: C_8  and  C_10
REMARK    6  A    between atoms: C_17  and  C_18
REMARK    7  A    between atoms: C_18  and  N_19
REMARK    8  A    between atoms: C_20  and  C_22
REMARK                            x       y       z     vdW  Elec       q    Type
REMARK                         _______ _______ _______ _____ _____    ______ ____
ROOT
ATOM      1  C   UNL     1      49.246   4.507  17.645  0.00  0.00    +0.000 A 
ATOM      2  C   UNL     1      50.619   4.454  17.906  0.00  0.00    +0.000 A 
ATOM      3  C   UNL     1      51.356   3.277  17.699  0.00  0.00    +0.000 A 
ATOM      4  C   UNL     1      50.696   2.149  17.196  0.00  0.00    +0.000 A 
ATOM      5  C   UNL     1      49.326   2.193  16.938  0.00  0.00    +0.000 A 
ATOM      6  C   UNL     1      48.581   3.360  17.173  0.00  0.00    +0.000 A 
ENDROOT
BRANCH   1   8
ATOM      7  C   UNL     1      48.234   5.985  19.211  0.00  0.00    +0.000 C 
ATOM      8  O   UNL     1      48.469   5.619  17.856  0.00  0.00    +0.000 OA
ENDBRANCH   1   8
BRANCH   3   9
ATOM      9  C   UNL     1      52.837   3.243  17.967  0.00  0.00    +0.000 C 
BRANCH   9  10
ATOM     10  N   UNL     1      53.407   1.997  17.526  0.00  0.00    +0.000 N 
ATOM     11  C   UNL     1      54.101   1.162  18.374  0.00  0.00    +0.000 C 
ATOM     12  O   UNL     1      54.282   1.451  19.555  0.00  0.00    +0.000 OA
ATOM     13  H   UNL     1      53.220   1.675  16.586  0.00  0.00    +0.000 HD
BRANCH  11  14
ATOM     14  C   UNL     1      54.593  -0.074  17.772  0.00  0.00    +0.000 A 
ATOM     15  C   UNL     1      54.661  -0.381  16.424  0.00  0.00    +0.000 A 
ATOM     16  C   UNL     1      55.177  -1.687  16.181  0.00  0.00    +0.000 A 
ATOM     17  C   UNL     1      55.489  -2.343  17.351  0.00  0.00    +0.000 A 
ATOM     18  S   UNL     1      55.167  -1.384  18.727  0.00  0.00    +0.000 S 
ENDBRANCH  11  14
ENDBRANCH   9  10
ENDBRANCH   3   9
BRANCH   6  19
ATOM     19  C   UNL     1      47.107   3.354  16.837  0.00  0.00    +0.000 C 
BRANCH  19  20
ATOM     20  N   UNL     1      46.809   4.382  15.866  0.00  0.00    +0.000 N 
ATOM     21  C   UNL     1      46.813   4.157  14.516  0.00  0.00    +0.000 C 
ATOM     22  O   UNL     1      47.210   3.105  14.023  0.00  0.00    +0.000 OA
ATOM     23  H   UNL     1      46.328   5.195  16.236  0.00  0.00    +0.000 HD
BRANCH  21  24
ATOM     24  C   UNL     1      46.336   5.260  13.670  0.00  0.00    +0.000 A 
ATOM     25  C   UNL     1      47.170   6.336  13.394  0.00  0.00    +0.000 A 
ATOM     26  S   UNL     1      46.482   7.481  12.334  0.00  0.00    +0.000 S 
ATOM     27  C   UNL     1      45.073   6.543  12.151  0.00  0.00    +0.000 A 
ATOM     28  N   UNL     1      44.100   6.903  11.271  0.00  0.00    +0.000 NA
ATOM     29  C   UNL     1      43.102   6.086  11.216  0.00  0.00    +0.000 A 
ATOM     30  N   UNL     1      42.968   4.965  11.992  0.00  0.00    +0.000 N 
ATOM     31  C   UNL     1      43.894   4.599  12.939  0.00  0.00    +0.000 A 
ATOM     32  O   UNL     1      43.684   3.662  13.703  0.00  0.00    +0.000 OA
ATOM     33  C   UNL     1      45.083   5.429  12.971  0.00  0.00    +0.000 A 
ATOM     34  H   UNL     1      42.134   4.400  11.945  0.00  0.00    +0.000 HD
ENDBRANCH  21  24
ENDBRANCH  19  20
ENDBRANCH   6  19
TORSDOF 7
ENDMDL
MODEL 5
REMARK VINA RESULT:    -7.077      4.560      9.155
REMARK INTER + INTRA:         -11.051
REMARK INTER:                  -9.598
REMARK INTRA:                  -1.453
REMARK UNBOUND:                -1.077
REMARK  Name = 
REMARK  8 active torsions:
REMARK  status: ('A' for Active; 'I' for Inactive)
REMARK    1  A    between atoms: C_1  and  O_2
REMARK    2  A    between atoms: O_2  and  C_3
REMARK    3  A    between atoms: C_5  and  C_6
REMARK    4  A    between atoms: C_6  and  N_7
REMARK    5  A    between atoms: C_8  and  C_10
REMARK    6  A    between atoms: C_17  and  C_18
REMARK    7  A    between atoms: C_18  and  N_19
REMARK    8  A    between atoms: C_20  and  C_22
REMARK                            x       y       z     vdW  Elec       q    Type
REMARK                         _______ _______ _______ _____ _____    ______ ____
ROOT
ATOM      1  C   UNL     1      49.512   4.564  17.867  0.00  0.00    +0.000 A 
ATOM      2  C   UNL     1      50.876   4.370  18.109  0.00  0.00    +0.000 A 
ATOM      3  C   UNL     1      51.503   3.149  17.814  0.00  0.00    +0.000 A 
ATOM      4  C   UNL     1      50.742   2.122  17.242  0.00  0.00    +0.000 A 
ATOM      5  C   UNL     1      49.381   2.306  17.001  0.00  0.00    +0.000 A 
ATOM      6  C   UNL     1      48.745   3.517  17.324  0.00  0.00    +0.000 A 
ENDROOT
BRANCH   1   8
ATOM      7  C   UNL     1      48.644   6.015  19.541  0.00  0.00    +0.000 C 
ATOM      8  O   UNL     1      48.839   5.724  18.161  0.00  0.00    +0.000 OA
ENDBRANCH   1   8
BRANCH   3   9
ATOM      9  C   UNL     1      52.976   2.964  18.064  0.00  0.00    +0.000 C 
BRANCH   9  10
ATOM     10  N   UNL     1      53.425   1.696  17.553  0.00  0.00    +0.000 N 
ATOM     11  C   UNL     1      54.117   0.791  18.327  0.00  0.00    +0.000 C 
ATOM     12  O   UNL     1      54.400   1.032  19.499  0.00  0.00    +0.000 OA
ATOM     13  H   UNL     1      53.152   1.416  16.620  0.00  0.00    +0.000 HD
BRANCH  11  14
ATOM     14  C   UNL     1      54.478  -0.457  17.661  0.00  0.00    +0.000 A 
ATOM     15  C   UNL     1      54.705  -0.651  16.309  0.00  0.00    +0.000 A 
ATOM     16  C   UNL     1      55.020  -2.004  15.991  0.00  0.00    +0.000 A 
ATOM     17  C   UNL     1      55.025  -2.807  17.109  0.00  0.00    +0.000 A 
ATOM     18  S   UNL     1      54.660  -1.931  18.528  0.00  0.00    +0.000 S 
ENDBRANCH  11  14
ENDBRANCH   9  10
ENDBRANCH   3   9
BRANCH   6  19
ATOM     19  C   UNL     1      47.275   3.665  17.003  0.00  0.00    +0.000 C 
BRANCH  19  20
ATOM     20  N   UNL     1      47.089   4.614  15.930  0.00  0.00    +0.000 N 
ATOM     21  C   UNL     1      47.060   4.252  14.609  0.00  0.00    +0.000 C 
ATOM     22  O   UNL     1      47.335   3.117  14.230  0.00  0.00    +0.000 OA
ATOM     23  H   UNL     1      46.704   5.510  16.210  0.00  0.00    +0.000 HD
BRANCH  21  24
ATOM     24  C   UNL     1      46.706   5.308  13.651  0.00  0.00    +0.000 A 
ATOM     25  C   UNL     1      45.571   5.178  12.862  0.00  0.00    +0.000 A 
ATOM     26  S   UNL     1      45.271   6.532  11.867  0.00  0.00    +0.000 S 
ATOM     27  C   UNL     1      46.609   7.366  12.508  0.00  0.00    +0.000 A 
ATOM     28  N   UNL     1      46.863   8.656  12.162  0.00  0.00    +0.000 NA
ATOM     29  C   UNL     1      47.893   9.172  12.745  0.00  0.00    +0.000 A 
ATOM     30  N   UNL     1      48.717   8.502  13.610  0.00  0.00    +0.000 N 
ATOM     31  C   UNL     1      48.536   7.180  13.938  0.00  0.00    +0.000 A 
ATOM     32  O   UNL     1      49.363   6.576  14.614  0.00  0.00    +0.000 OA
ATOM     33  C   UNL     1      47.336   6.581  13.387  0.00  0.00    +0.000 A 
ATOM     34  H   UNL     1      49.543   8.944  13.985  0.00  0.00    +0.000 HD
ENDBRANCH  21  24
ENDBRANCH  19  20
ENDBRANCH   6  19
TORSDOF 7
ENDMDL
MODEL 6
REMARK VINA RESULT:    -6.882      3.319      8.427
REMARK INTER + INTRA:         -10.775
REMARK INTER:                  -9.632
REMARK INTRA:                  -1.143
REMARK UNBOUND:                -1.077
REMARK  Name = 
REMARK  8 active torsions:
REMARK  status: ('A' for Active; 'I' for Inactive)
REMARK    1  A    between atoms: C_1  and  O_2
REMARK    2  A    between atoms: O_2  and  C_3
REMARK    3  A    between atoms: C_5  and  C_6
REMARK    4  A    between atoms: C_6  and  N_7
REMARK    5  A    between atoms: C_8  and  C_10
REMARK    6  A    between atoms: C_17  and  C_18
REMARK    7  A    between atoms: C_18  and  N_19
REMARK    8  A    between atoms: C_20  and  C_22
REMARK                            x       y       z     vdW  Elec       q    Type
REMARK                         _______ _______ _______ _____ _____    ______ ____
ROOT
ATOM      1  C   UNL     1      49.884   6.599  16.173  0.00  0.00    +0.000 A 
ATOM      2  C   UNL     1      50.200   5.679  17.178  0.00  0.00    +0.000 A 
ATOM      3  C   UNL     1      49.346   4.607  17.481  0.00  0.00    +0.000 A 
ATOM      4  C   UNL     1      48.169   4.453  16.738  0.00  0.00    +0.000 A 
ATOM      5  C   UNL     1      47.844   5.368  15.738  0.00  0.00    +0.000 A 
ATOM      6  C   UNL     1      48.683   6.459  15.453  0.00  0.00    +0.000 A 
ENDROOT
BRANCH   1   8
ATOM      7  C   UNL     1      52.069   7.459  15.791  0.00  0.00    +0.000 C 
ATOM      8  O   UNL     1      50.665   7.681  15.852  0.00  0.00    +0.000 OA
ENDBRANCH   1   8
BRANCH   3   9
ATOM      9  C   UNL     1      49.712   3.615  18.553  0.00  0.00    +0.000 C 
BRANCH   9  10
ATOM     10  N   UNL     1      51.101   3.249  18.457  0.00  0.00    +0.000 N 
ATOM     11  C   UNL     1      51.531   2.174  17.710  0.00  0.00    +0.000 C 
ATOM     12  O   UNL     1      50.740   1.460  17.096  0.00  0.00    +0.000 OA
ATOM     13  H   UNL     1      51.798   3.848  18.879  0.00  0.00    +0.000 HD
BRANCH  11  14
ATOM     14  C   UNL     1      52.974   1.955  17.701  0.00  0.00    +0.000 A 
ATOM     15  C   UNL     1      53.969   2.915  17.778  0.00  0.00    +0.000 A 
ATOM     16  C   UNL     1      55.279   2.358  17.722  0.00  0.00    +0.000 A 
ATOM     17  C   UNL     1      55.250   0.986  17.605  0.00  0.00    +0.000 A 
ATOM     18  S   UNL     1      53.654   0.381  17.569  0.00  0.00    +0.000 S 
ENDBRANCH  11  14
ENDBRANCH   9  10
ENDBRANCH   3   9
BRANCH   6  19
ATOM     19  C   UNL     1      48.292   7.393  14.331  0.00  0.00    +0.000 C 
BRANCH  19  20
ATOM     20  N   UNL     1      47.001   7.026  13.799  0.00  0.00    +0.000 N 
ATOM     21  C   UNL     1      46.779   6.800  12.466  0.00  0.00    +0.000 C 
ATOM     22  O   UNL     1      47.626   7.033  11.608  0.00  0.00    +0.000 OA
ATOM     23  H   UNL     1      46.339   6.672  14.481  0.00  0.00    +0.000 HD
BRANCH  21  24
ATOM     24  C   UNL     1      45.453   6.282  12.104  0.00  0.00    +0.000 A 
ATOM     25  C   UNL     1      44.507   7.127  11.540  0.00  0.00    +0.000 A 
ATOM     26  S   UNL     1      43.055   6.339  11.110  0.00  0.00    +0.000 S 
ATOM     27  C   UNL     1      43.669   4.829  11.599  0.00  0.00    +0.000 A 
ATOM     28  N   UNL     1      42.961   3.686  11.395  0.00  0.00    +0.000 NA
ATOM     29  C   UNL     1      43.558   2.611  11.790  0.00  0.00    +0.000 A 
ATOM     30  N   UNL     1      44.780   2.580  12.410  0.00  0.00    +0.000 N 
ATOM     31  C   UNL     1      45.500   3.716  12.693  0.00  0.00    +0.000 A 
ATOM     32  O   UNL     1      46.529   3.664  13.360  0.00  0.00    +0.000 OA
ATOM     33  C   UNL     1      44.919   4.942  12.182  0.00  0.00    +0.000 A 
ATOM     34  H   UNL     1      45.166   1.713  12.750  0.00  0.00    +0.000 HD
ENDBRANCH  21  24
ENDBRANCH  19  20
ENDBRANCH   6  19
TORSDOF 7
ENDMDL
MODEL 7
REMARK VINA RESULT:    -6.694      1.902      2.473
REMARK INTER + INTRA:         -10.510
REMARK INTER:                  -9.397
REMARK INTRA:                  -1.113
REMARK UNBOUND:                -1.077
REMARK  Name = 
REMARK  8 active torsions:
REMARK  status: ('A' for Active; 'I' for Inactive)
REMARK    1  A    between atoms: C_1  and  O_2
REMARK    2  A    between atoms: O_2  and  C_3
REMARK    3  A    between atoms: C_5  and  C_6
REMARK    4  A    between atoms: C_6  and  N_7
REMARK    5  A    between atoms: C_8  and  C_10
REMARK    6  A    between atoms: C_17  and  C_18
REMARK    7  A    between atoms: C_18  and  N_19
REMARK    8  A    between atoms: C_20  and  C_22
REMARK                            x       y       z     vdW  Elec       q    Type
REMARK                         _______ _______ _______ _____ _____    ______ ____
ROOT
ATOM      1  C   UNL     1      46.564   7.144  12.450  0.00  0.00    +0.000 A 
ATOM      2  C   UNL     1      45.719   6.236  11.805  0.00  0.00    +0.000 A 
ATOM      3  C   UNL     1      45.573   4.919  12.269  0.00  0.00    +0.000 A 
ATOM      4  C   UNL     1      46.273   4.528  13.417  0.00  0.00    +0.000 A 
ATOM      5  C   UNL     1      47.122   5.426  14.063  0.00  0.00    +0.000 A 
ATOM      6  C   UNL     1      47.293   6.736  13.583  0.00  0.00    +0.000 A 
ENDROOT
BRANCH   1   8
ATOM      7  C   UNL     1      45.684   9.339  12.187  0.00  0.00    +0.000 C 
ATOM      8  O   UNL     1      46.770   8.433  12.025  0.00  0.00    +0.000 OA
ENDBRANCH   1   8
BRANCH   3   9
ATOM      9  C   UNL     1      44.643   3.960  11.575  0.00  0.00    +0.000 C 
BRANCH   9  10
ATOM     10  N   UNL     1      45.328   3.255  10.523  0.00  0.00    +0.000 N 
ATOM     11  C   UNL     1      45.053   3.466   9.190  0.00  0.00    +0.000 C 
ATOM     12  O   UNL     1      44.188   4.263   8.832  0.00  0.00    +0.000 OA
ATOM     13  H   UNL     1      46.101   2.647  10.761  0.00  0.00    +0.000 HD
BRANCH  11  14
ATOM     14  C   UNL     1      45.855   2.686   8.253  0.00  0.00    +0.000 A 
ATOM     15  C   UNL     1      46.110   1.326   8.297  0.00  0.00    +0.000 A 
ATOM     16  C   UNL     1      46.952   0.888   7.234  0.00  0.00    +0.000 A 
ATOM     17  C   UNL     1      47.317   1.926   6.406  0.00  0.00    +0.000 A 
ATOM     18  S   UNL     1      46.642   3.411   6.908  0.00  0.00    +0.000 S 
ENDBRANCH  11  14
ENDBRANCH   9  10
ENDBRANCH   3   9
BRANCH   6  19
ATOM     19  C   UNL     1      48.198   7.671  14.350  0.00  0.00    +0.000 C 
BRANCH  19  20
ATOM     20  N   UNL     1      48.887   6.955  15.399  0.00  0.00    +0.000 N 
ATOM     21  C   UNL     1      48.840   7.330  16.715  0.00  0.00    +0.000 C 
ATOM     22  O   UNL     1      48.328   8.385  17.083  0.00  0.00    +0.000 OA
ATOM     23  H   UNL     1      49.173   6.012  15.159  0.00  0.00    +0.000 HD
BRANCH  21  24
ATOM     24  C   UNL     1      49.462   6.412  17.678  0.00  0.00    +0.000 A 
ATOM     25  C   UNL     1      48.713   5.890  18.724  0.00  0.00    +0.000 A 
ATOM     26  S   UNL     1      49.575   4.781  19.695  0.00  0.00    +0.000 S 
ATOM     27  C   UNL     1      50.955   4.909  18.708  0.00  0.00    +0.000 A 
ATOM     28  N   UNL     1      52.043   4.120  18.919  0.00  0.00    +0.000 NA
ATOM     29  C   UNL     1      53.006   4.304  18.079  0.00  0.00    +0.000 A 
ATOM     30  N   UNL     1      52.997   5.235  17.073  0.00  0.00    +0.000 N 
ATOM     31  C   UNL     1      51.946   6.095  16.864  0.00  0.00    +0.000 A 
ATOM     32  O   UNL     1      52.023   6.999  16.037  0.00  0.00    +0.000 OA
ATOM     33  C   UNL     1      50.798   5.863  17.718  0.00  0.00    +0.000 A 
ATOM     34  H   UNL     1      53.807   5.371  16.488  0.00  0.00    +0.000 HD
ENDBRANCH  21  24
ENDBRANCH  19  20
ENDBRANCH   6  19
TORSDOF 7
ENDMDL
MODEL 8
REMARK VINA RESULT:    -6.457      4.323      7.509
REMARK INTER + INTRA:         -10.177
REMARK INTER:                  -8.919
REMARK INTRA:                  -1.257
REMARK UNBOUND:                -1.077
REMARK  Name = 
REMARK  8 active torsions:
REMARK  status: ('A' for Active; 'I' for Inactive)
REMARK    1  A    between atoms: C_1  and  O_2
REMARK    2  A    between atoms: O_2  and  C_3
REMARK    3  A    between atoms: C_5  and  C_6
REMARK    4  A    between atoms: C_6  and  N_7
REMARK    5  A    between atoms: C_8  and  C_10
REMARK    6  A    between atoms: C_17  and  C_18
REMARK    7  A    between atoms: C_18  and  N_19
REMARK    8  A    between atoms: C_20  and  C_22
REMARK                            x       y       z     vdW  Elec       q    Type
REMARK                         _______ _______ _______ _____ _____    ______ ____
ROOT
ATOM      1  C   UNL     1      48.845   7.806  13.753  0.00  0.00    +0.000 A 
ATOM      2  C   UNL     1      50.217   7.848  13.485  0.00  0.00    +0.000 A 
ATOM      3  C   UNL     1      50.726   8.574  12.396  0.00  0.00    +0.000 A 
ATOM      4  C   UNL     1      49.834   9.288  11.587  0.00  0.00    +0.000 A 
ATOM      5  C   UNL     1      48.464   9.248  11.845  0.00  0.00    +0.000 A 
ATOM      6  C   UNL     1      47.949   8.497  12.916  0.00  0.00    +0.000 A 
ENDROOT
BRANCH   1   8
ATOM      7  C   UNL     1      49.166   6.683  15.826  0.00  0.00    +0.000 C 
ATOM      8  O   UNL     1      48.287   7.090  14.783  0.00  0.00    +0.000 OA
ENDBRANCH   1   8
BRANCH   3   9
ATOM      9  C   UNL     1      52.208   8.623  12.134  0.00  0.00    +0.000 C 
BRANCH   9  10
ATOM     10  N   UNL     1      52.472   8.792  10.729  0.00  0.00    +0.000 N 
ATOM     11  C   UNL     1      52.587   7.724   9.866  0.00  0.00    +0.000 C 
ATOM     12  O   UNL     1      52.485   6.564  10.261  0.00  0.00    +0.000 OA
ATOM     13  H   UNL     1      52.487   9.725  10.339  0.00  0.00    +0.000 HD
BRANCH  11  14
ATOM     14  C   UNL     1      52.833   8.071   8.470  0.00  0.00    +0.000 A 
ATOM     15  C   UNL     1      52.892   9.339   7.918  0.00  0.00    +0.000 A 
ATOM     16  C   UNL     1      53.130   9.320   6.513  0.00  0.00    +0.000 A 
ATOM     17  C   UNL     1      53.247   8.035   6.029  0.00  0.00    +0.000 A 
ATOM     18  S   UNL     1      53.077   6.869   7.264  0.00  0.00    +0.000 S 
ENDBRANCH  11  14
ENDBRANCH   9  10
ENDBRANCH   3   9
BRANCH   6  19
ATOM     19  C   UNL     1      46.459   8.526  13.164  0.00  0.00    +0.000 C 
BRANCH  19  20
ATOM     20  N   UNL     1      45.892   7.211  12.970  0.00  0.00    +0.000 N 
ATOM     21  C   UNL     1      45.006   6.921  11.967  0.00  0.00    +0.000 C 
ATOM     22  O   UNL     1      44.516   7.788  11.248  0.00  0.00    +0.000 OA
ATOM     23  H   UNL     1      46.389   6.457  13.429  0.00  0.00    +0.000 HD
BRANCH  21  24
ATOM     24  C   UNL     1      44.643   5.507  11.805  0.00  0.00    +0.000 A 
ATOM     25  C   UNL     1      43.979   4.838  12.825  0.00  0.00    +0.000 A 
ATOM     26  S   UNL     1      43.568   3.229  12.434  0.00  0.00    +0.000 S 
ATOM     27  C   UNL     1      44.201   3.394  10.863  0.00  0.00    +0.000 A 
ATOM     28  N   UNL     1      44.068   2.398   9.946  0.00  0.00    +0.000 NA
ATOM     29  C   UNL     1      44.571   2.669   8.788  0.00  0.00    +0.000 A 
ATOM     30  N   UNL     1      45.232   3.828   8.476  0.00  0.00    +0.000 N 
ATOM     31  C   UNL     1      45.445   4.833   9.389  0.00  0.00    +0.000 A 
ATOM     32  O   UNL     1      46.148   5.800   9.114  0.00  0.00    +0.000 OA
ATOM     33  C   UNL     1      44.814   4.621  10.677  0.00  0.00    +0.000 A 
ATOM     34  H   UNL     1      45.656   3.954   7.570  0.00  0.00    +0.000 HD
ENDBRANCH  21  24
ENDBRANCH  19  20
ENDBRANCH   6  19
TORSDOF 7
ENDMDL
MODEL 9
REMARK VINA RESULT:    -6.440      3.041      4.763
REMARK INTER + INTRA:         -10.152
REMARK INTER:                  -9.207
REMARK INTRA:                  -0.946
REMARK UNBOUND:                -1.077
REMARK  Name = 
REMARK  8 active torsions:
REMARK  status: ('A' for Active; 'I' for Inactive)
REMARK    1  A    between atoms: C_1  and  O_2
REMARK    2  A    between atoms: O_2  and  C_3
REMARK    3  A    between atoms: C_5  and  C_6
REMARK    4  A    between atoms: C_6  and  N_7
REMARK    5  A    between atoms: C_8  and  C_10
REMARK    6  A    between atoms: C_17  and  C_18
REMARK    7  A    between atoms: C_18  and  N_19
REMARK    8  A    between atoms: C_20  and  C_22
REMARK                            x       y       z     vdW  Elec       q    Type
REMARK                         _______ _______ _______ _____ _____    ______ ____
ROOT
ATOM      1  C   UNL     1      46.441   5.042  13.835  0.00  0.00    +0.000 A 
ATOM      2  C   UNL     1      45.571   4.730  12.785  0.00  0.00    +0.000 A 
ATOM      3  C   UNL     1      45.527   5.508  11.618  0.00  0.00    +0.000 A 
ATOM      4  C   UNL     1      46.396   6.601  11.504  0.00  0.00    +0.000 A 
ATOM      5  C   UNL     1      47.263   6.921  12.548  0.00  0.00    +0.000 A 
ATOM      6  C   UNL     1      47.287   6.161  13.729  0.00  0.00    +0.000 A 
ENDROOT
BRANCH   1   8
ATOM      7  C   UNL     1      47.537   3.358  15.110  0.00  0.00    +0.000 C 
ATOM      8  O   UNL     1      46.507   4.336  15.010  0.00  0.00    +0.000 OA
ENDBRANCH   1   8
BRANCH   3   9
ATOM      9  C   UNL     1      44.598   5.146  10.489  0.00  0.00    +0.000 C 
BRANCH   9  10
ATOM     10  N   UNL     1      45.308   4.453   9.446  0.00  0.00    +0.000 N 
ATOM     11  C   UNL     1      45.221   3.090   9.273  0.00  0.00    +0.000 C 
ATOM     12  O   UNL     1      44.538   2.390  10.019  0.00  0.00    +0.000 OA
ATOM     13  H   UNL     1      45.821   4.991   8.759  0.00  0.00    +0.000 HD
BRANCH  11  14
ATOM     14  C   UNL     1      45.986   2.550   8.153  0.00  0.00    +0.000 A 
ATOM     15  C   UNL     1      46.413   1.244   7.982  0.00  0.00    +0.000 A 
ATOM     16  C   UNL     1      47.158   1.060   6.780  0.00  0.00    +0.000 A 
ATOM     17  C   UNL     1      47.279   2.232   6.067  0.00  0.00    +0.000 A 
ATOM     18  S   UNL     1      46.494   3.536   6.840  0.00  0.00    +0.000 S 
ENDBRANCH  11  14
ENDBRANCH   9  10
ENDBRANCH   3   9
BRANCH   6  19
ATOM     19  C   UNL     1      48.277   6.539  14.807  0.00  0.00    +0.000 C 
BRANCH  19  20
ATOM     20  N   UNL     1      49.519   6.980  14.216  0.00  0.00    +0.000 N 
ATOM     21  C   UNL     1      50.079   8.202  14.480  0.00  0.00    +0.000 C 
ATOM     22  O   UNL     1      49.495   9.070  15.124  0.00  0.00    +0.000 OA
ATOM     23  H   UNL     1      50.093   6.243  13.822  0.00  0.00    +0.000 HD
BRANCH  21  24
ATOM     24  C   UNL     1      51.419   8.438  13.926  0.00  0.00    +0.000 A 
ATOM     25  C   UNL     1      52.487   8.697  14.775  0.00  0.00    +0.000 A 
ATOM     26  S   UNL     1      53.979   8.867  13.966  0.00  0.00    +0.000 S 
ATOM     27  C   UNL     1      53.260   8.532  12.460  0.00  0.00    +0.000 A 
ATOM     28  N   UNL     1      54.015   8.408  11.335  0.00  0.00    +0.000 NA
ATOM     29  C   UNL     1      53.342   8.126  10.270  0.00  0.00    +0.000 A 
ATOM     30  N   UNL     1      51.978   7.999  10.219  0.00  0.00    +0.000 N 
ATOM     31  C   UNL     1      51.172   8.180  11.317  0.00  0.00    +0.000 A 
ATOM     32  O   UNL     1      49.949   8.184  11.212  0.00  0.00    +0.000 OA
ATOM     33  C   UNL     1      51.886   8.401  12.560  0.00  0.00    +0.000 A 
ATOM     34  H   UNL     1      51.506   7.838   9.343  0.00  0.00    +0.000 HD
ENDBRANCH  21  24
ENDBRANCH  19  20
ENDBRANCH   6  19
TORSDOF 7
ENDMDL
