MODEL 1
REMARK VINA RESULT:    -7.892      0.000      0.000
REMARK INTER + INTRA:         -10.824
REMARK INTER:                 -10.199
REMARK INTRA:                  -0.626
REMARK UNBOUND:                -0.626
REMARK  Name = 
REMARK  5 active torsions:
REMARK  status: ('A' for Active; 'I' for Inactive)
REMARK    1  A    between atoms: C_2  and  C_17
REMARK    2  A    between atoms: N_3  and  C_4
REMARK    3  A    between atoms: C_4  and  C_5
REMARK    4  A    between atoms: C_8  and  C_9
REMARK    5  A    between atoms: C_9  and  C_10
REMARK                            x       y       z     vdW  Elec       q    Type
REMARK                         _______ _______ _______ _____ _____    ______ ____
ROOT
ATOM      1  O   UNL     1      49.243   6.676  13.649  0.00  0.00    +0.000 OA
ATOM      2  C   UNL     1      48.361   6.560  14.495  0.00  0.00    +0.000 C 
ATOM      3  N   UNL     1      47.029   6.682  14.180  0.00  0.00    +0.000 N 
ATOM      4  H   UNL     1      46.356   6.818  14.929  0.00  0.00    +0.000 HD
ENDROOT
BRANCH   2   5
ATOM      5  C   UNL     1      48.676   6.243  15.890  0.00  0.00    +0.000 A 
ATOM      6  C   UNL     1      49.269   7.200  16.701  0.00  0.00    +0.000 A 
ATOM      7  S   UNL     1      49.562   6.658  18.292  0.00  0.00    +0.000 S 
ATOM      8  C   UNL     1      48.862   5.139  17.961  0.00  0.00    +0.000 A 
ATOM      9  N   UNL     1      48.751   4.191  18.930  0.00  0.00    +0.000 NA
ATOM     10  C   UNL     1      48.174   3.101  18.546  0.00  0.00    +0.000 A 
ATOM     11  N   UNL     1      47.708   2.872  17.280  0.00  0.00    +0.000 N 
ATOM     12  C   UNL     1      47.829   3.782  16.260  0.00  0.00    +0.000 A 
ATOM     13  O   UNL     1      47.456   3.521  15.123  0.00  0.00    +0.000 OA
ATOM     14  C   UNL     1      48.447   5.039  16.649  0.00  0.00    +0.000 A 
ATOM     15  H   UNL     1      47.284   1.986  17.038  0.00  0.00    +0.000 HD
ENDBRANCH   2   5
BRANCH   3  16
ATOM     16  C   UNL     1      46.637   7.087  12.857  0.00  0.00    +0.000 C 
BRANCH  16  17
ATOM     17  C   UNL     1      46.047   5.960  12.067  0.00  0.00    +0.000 A 
ATOM     18  C   UNL     1      45.830   4.713  12.651  0.00  0.00    +0.000 A 
ATOM     19  C   UNL     1      45.236   3.696  11.909  0.00  0.00    +0.000 A 
ATOM     20  C   UNL     1      44.838   3.945  10.598  0.00  0.00    +0.000 A 
ATOM     21  N   UNL     1      45.086   5.136   9.999  0.00  0.00    +0.000 NA
ATOM     22  C   UNL     1      45.694   6.102  10.732  0.00  0.00    +0.000 A 
BRANCH  20  23
ATOM     23  C   UNL     1      44.175   2.875   9.762  0.00  0.00    +0.000 C 
BRANCH  23  24
ATOM     24  C   UNL     1      44.821   2.585   8.391  0.00  0.00    +0.000 C 
ATOM     25  C   UNL     1      46.035   1.665   8.435  0.00  0.00    +0.000 C 
ATOM     26  C   UNL     1      46.839   2.040   7.208  0.00  0.00    +0.000 C 
ATOM     27  C   UNL     1      46.504   3.497   6.960  0.00  0.00    +0.000 C 
ATOM     28  N   UNL     1      45.376   3.831   7.828  0.00  0.00    +0.000 NA
ATOM     29  H   UNL     1      44.659   4.339   7.311  0.00  0.00    +0.000 HD
ENDBRANCH  23  24
ENDBRANCH  20  23
ENDBRANCH  16  17
ENDBRANCH   3  16
TORSDOF 5
ENDMDL
MODEL 2
REMARK VINA RESULT:    -7.695      1.456      1.741
REMARK INTER + INTRA:         -10.570
REMARK INTER:                  -9.575
REMARK INTRA:                  -0.995
REMARK UNBOUND:                -0.626
REMARK  Name = 
REMARK  5 active torsions:
REMARK  status: ('A' for Active; 'I' for Inactive)
REMARK    1  A    between atoms: C_2  and  C_17
REMARK    2  A    between atoms: N_3  and  C_4
REMARK    3  A    between atoms: C_4  and  C_5
REMARK    4  A    between atoms: C_8  and  C_9
REMARK    5  A    between atoms: C_9  and  C_10
REMARK                            x       y       z     vdW  Elec       q    Type
REMARK                         _______ _______ _______ _____ _____    ______ ____
ROOT
ATOM      1  O   UNL     1      50.230   6.668  15.345  0.00  0.00    +0.000 OA
ATOM      2  C   UNL     1      49.084   6.784  15.771  0.00  0.00    +0.000 C 
ATOM      3  N   UNL     1      47.997   6.843  14.933  0.00  0.00    +0.000 N 
ATOM      4  H   UNL     1      47.109   7.175  15.301  0.00  0.00    +0.000 HD
ENDROOT
BRANCH   2   5
ATOM      5  C   UNL     1      48.805   6.825  17.208  0.00  0.00    +0.000 A 
ATOM      6  C   UNL     1      48.384   8.008  17.799  0.00  0.00    +0.000 A 
ATOM      7  S   UNL     1      48.105   7.870  19.477  0.00  0.00    +0.000 S 
ATOM      8  C   UNL     1      48.492   6.211  19.460  0.00  0.00    +0.000 A 
ATOM      9  N   UNL     1      48.412   5.459  20.591  0.00  0.00    +0.000 NA
ATOM     10  C   UNL     1      48.706   4.213  20.425  0.00  0.00    +0.000 A 
ATOM     11  N   UNL     1      49.080   3.653  19.233  0.00  0.00    +0.000 N 
ATOM     12  C   UNL     1      49.211   4.376  18.074  0.00  0.00    +0.000 A 
ATOM     13  O   UNL     1      49.607   3.856  17.038  0.00  0.00    +0.000 OA
ATOM     14  C   UNL     1      48.863   5.781  18.202  0.00  0.00    +0.000 A 
ATOM     15  H   UNL     1      49.319   2.672  19.176  0.00  0.00    +0.000 HD
ENDBRANCH   2   5
BRANCH   3  16
ATOM     16  C   UNL     1      48.188   6.907  13.509  0.00  0.00    +0.000 C 
BRANCH  16  17
ATOM     17  C   UNL     1      47.087   6.228  12.756  0.00  0.00    +0.000 A 
ATOM     18  C   UNL     1      46.347   5.202  13.339  0.00  0.00    +0.000 A 
ATOM     19  C   UNL     1      45.296   4.620  12.634  0.00  0.00    +0.000 A 
ATOM     20  C   UNL     1      44.978   5.090  11.364  0.00  0.00    +0.000 A 
ATOM     21  N   UNL     1      45.718   6.054  10.761  0.00  0.00    +0.000 NA
ATOM     22  C   UNL     1      46.756   6.585  11.455  0.00  0.00    +0.000 A 
BRANCH  20  23
ATOM     23  C   UNL     1      43.836   4.500  10.570  0.00  0.00    +0.000 C 
BRANCH  23  24
ATOM     24  C   UNL     1      44.226   3.681   9.321  0.00  0.00    +0.000 C 
ATOM     25  C   UNL     1      45.157   2.505   9.590  0.00  0.00    +0.000 C 
ATOM     26  C   UNL     1      45.888   2.293   8.280  0.00  0.00    +0.000 C 
ATOM     27  C   UNL     1      45.917   3.663   7.632  0.00  0.00    +0.000 C 
ATOM     28  N   UNL     1      45.019   4.522   8.403  0.00  0.00    +0.000 NA
ATOM     29  H   UNL     1      44.405   5.052   7.786  0.00  0.00    +0.000 HD
ENDBRANCH  23  24
ENDBRANCH  20  23
ENDBRANCH  16  17
ENDBRANCH   3  16
TORSDOF 5
ENDMDL
MODEL 3
REMARK VINA RESULT:    -7.364      2.080      2.767
REMARK INTER + INTRA:         -10.142
REMARK INTER:                  -9.003
REMARK INTRA:                  -1.139
REMARK UNBOUND:                -0.626
REMARK  Name = 
REMARK  5 active torsions:
REMARK  status: ('A' for Active; 'I' for Inactive)
REMARK    1  A    between atoms: C_2  and  C_17
REMARK    2  A    between atoms: N_3  and  C_4
REMARK    3  A    between atoms: C_4  and  C_5
REMARK    4  A    between atoms: C_8  and  C_9
REMARK    5  A    between atoms: C_9  and  C_10
REMARK                            x       y       z     vdW  Elec       q    Type
REMARK                         _______ _______ _______ _____ _____    ______ ____
ROOT
ATOM      1  O   UNL     1      50.143   6.655  15.177  0.00  0.00    +0.000 OA
ATOM      2  C   UNL     1      49.053   6.575  15.736  0.00  0.00    +0.000 C 
ATOM      3  N   UNL     1      47.871   6.736  15.053  0.00  0.00    +0.000 N 
ATOM      4  H   UNL     1      47.017   6.900  15.580  0.00  0.00    +0.000 HD
ENDROOT
BRANCH   2   5
ATOM      5  C   UNL     1      48.946   6.261  17.162  0.00  0.00    +0.000 A 
ATOM      6  C   UNL     1      49.359   5.021  17.632  0.00  0.00    +0.000 A 
ATOM      7  S   UNL     1      49.163   4.831  19.316  0.00  0.00    +0.000 S 
ATOM      8  C   UNL     1      48.565   6.418  19.480  0.00  0.00    +0.000 A 
ATOM      9  N   UNL     1      48.238   6.923  20.701  0.00  0.00    +0.000 NA
ATOM     10  C   UNL     1      47.827   8.147  20.679  0.00  0.00    +0.000 A 
ATOM     11  N   UNL     1      47.705   8.907  19.547  0.00  0.00    +0.000 N 
ATOM     12  C   UNL     1      47.988   8.432  18.291  0.00  0.00    +0.000 A 
ATOM     13  O   UNL     1      47.809   9.120  17.293  0.00  0.00    +0.000 OA
ATOM     14  C   UNL     1      48.482   7.066  18.265  0.00  0.00    +0.000 A 
ATOM     15  H   UNL     1      47.355   9.855  19.597  0.00  0.00    +0.000 HD
ENDBRANCH   2   5
BRANCH   3  16
ATOM     16  C   UNL     1      47.885   7.140  13.674  0.00  0.00    +0.000 C 
BRANCH  16  17
ATOM     17  C   UNL     1      46.870   6.407  12.854  0.00  0.00    +0.000 A 
ATOM     18  C   UNL     1      46.511   5.096  13.163  0.00  0.00    +0.000 A 
ATOM     19  C   UNL     1      45.529   4.454  12.414  0.00  0.00    +0.000 A 
ATOM     20  C   UNL     1      44.895   5.138  11.382  0.00  0.00    +0.000 A 
ATOM     21  N   UNL     1      45.265   6.396  11.035  0.00  0.00    +0.000 NA
ATOM     22  C   UNL     1      46.246   6.991  11.759  0.00  0.00    +0.000 A 
BRANCH  20  23
ATOM     23  C   UNL     1      43.812   4.484  10.555  0.00  0.00    +0.000 C 
BRANCH  23  24
ATOM     24  C   UNL     1      44.259   3.867   9.213  0.00  0.00    +0.000 C 
ATOM     25  C   UNL     1      44.974   2.527   9.330  0.00  0.00    +0.000 C 
ATOM     26  C   UNL     1      45.846   2.453   8.094  0.00  0.00    +0.000 C 
ATOM     27  C   UNL     1      46.152   3.898   7.755  0.00  0.00    +0.000 C 
ATOM     28  N   UNL     1      45.280   4.727   8.585  0.00  0.00    +0.000 NA
ATOM     29  H   UNL     1      44.837   5.458   8.028  0.00  0.00    +0.000 HD
ENDBRANCH  23  24
ENDBRANCH  20  23
ENDBRANCH  16  17
ENDBRANCH   3  16
TORSDOF 5
ENDMDL
MODEL 4
REMARK VINA RESULT:    -7.175      3.519      4.239
REMARK INTER + INTRA:          -9.898
REMARK INTER:                  -8.827
REMARK INTRA:                  -1.071
REMARK UNBOUND:                -0.626
REMARK  Name = 
REMARK  5 active torsions:
REMARK  status: ('A' for Active; 'I' for Inactive)
REMARK    1  A    between atoms: C_2  and  C_17
REMARK    2  A    between atoms: N_3  and  C_4
REMARK    3  A    between atoms: C_4  and  C_5
REMARK    4  A    between atoms: C_8  and  C_9
REMARK    5  A    between atoms: C_9  and  C_10
REMARK                            x       y       z     vdW  Elec       q    Type
REMARK                         _______ _______ _______ _____ _____    ______ ____
ROOT
ATOM      1  O   UNL     1      44.923   8.265  11.302  0.00  0.00    +0.000 OA
ATOM      2  C   UNL     1      45.743   8.057  12.192  0.00  0.00    +0.000 C 
ATOM      3  N   UNL     1      45.613   7.010  13.072  0.00  0.00    +0.000 N 
ATOM      4  H   UNL     1      46.166   7.012  13.925  0.00  0.00    +0.000 HD
ENDROOT
BRANCH   2   5
ATOM      5  C   UNL     1      46.935   8.894  12.343  0.00  0.00    +0.000 A 
ATOM      6  C   UNL     1      46.834  10.273  12.217  0.00  0.00    +0.000 A 
ATOM      7  S   UNL     1      48.320  11.086  12.424  0.00  0.00    +0.000 S 
ATOM      8  C   UNL     1      49.139   9.624  12.735  0.00  0.00    +0.000 A 
ATOM      9  N   UNL     1      50.465   9.612  13.040  0.00  0.00    +0.000 NA
ATOM     10  C   UNL     1      50.946   8.438  13.281  0.00  0.00    +0.000 A 
ATOM     11  N   UNL     1      50.224   7.277  13.235  0.00  0.00    +0.000 N 
ATOM     12  C   UNL     1      48.895   7.233  12.898  0.00  0.00    +0.000 A 
ATOM     13  O   UNL     1      48.293   6.169  12.807  0.00  0.00    +0.000 OA
ATOM     14  C   UNL     1      48.298   8.533  12.645  0.00  0.00    +0.000 A 
ATOM     15  H   UNL     1      50.668   6.385  13.414  0.00  0.00    +0.000 HD
ENDBRANCH   2   5
BRANCH   3  16
ATOM     16  C   UNL     1      44.426   6.199  13.056  0.00  0.00    +0.000 C 
BRANCH  16  17
ATOM     17  C   UNL     1      44.506   5.091  12.053  0.00  0.00    +0.000 A 
ATOM     18  C   UNL     1      45.278   3.957  12.298  0.00  0.00    +0.000 A 
ATOM     19  C   UNL     1      45.298   2.919  11.370  0.00  0.00    +0.000 A 
ATOM     20  C   UNL     1      44.523   3.013  10.218  0.00  0.00    +0.000 A 
ATOM     21  N   UNL     1      43.804   4.130   9.939  0.00  0.00    +0.000 NA
ATOM     22  C   UNL     1      43.825   5.141  10.844  0.00  0.00    +0.000 A 
BRANCH  20  23
ATOM     23  C   UNL     1      44.501   1.904   9.192  0.00  0.00    +0.000 C 
BRANCH  23  24
ATOM     24  C   UNL     1      45.326   2.145   7.910  0.00  0.00    +0.000 C 
ATOM     25  C   UNL     1      46.661   1.413   7.860  0.00  0.00    +0.000 C 
ATOM     26  C   UNL     1      47.519   2.253   6.937  0.00  0.00    +0.000 C 
ATOM     27  C   UNL     1      46.980   3.662   7.090  0.00  0.00    +0.000 C 
ATOM     28  N   UNL     1      45.729   3.563   7.838  0.00  0.00    +0.000 NA
ATOM     29  H   UNL     1      44.997   4.119   7.395  0.00  0.00    +0.000 HD
ENDBRANCH  23  24
ENDBRANCH  20  23
ENDBRANCH  16  17
ENDBRANCH   3  16
TORSDOF 5
ENDMDL
MODEL 5
REMARK VINA RESULT:    -7.021      3.147      7.790
REMARK INTER + INTRA:          -9.698
REMARK INTER:                  -8.556
REMARK INTRA:                  -1.142
REMARK UNBOUND:                -0.626
REMARK  Name = 
REMARK  5 active torsions:
REMARK  status: ('A' for Active; 'I' for Inactive)
REMARK    1  A    between atoms: C_2  and  C_17
REMARK    2  A    between atoms: N_3  and  C_4
REMARK    3  A    between atoms: C_4  and  C_5
REMARK    4  A    between atoms: C_8  and  C_9
REMARK    5  A    between atoms: C_9  and  C_10
REMARK                            x       y       z     vdW  Elec       q    Type
REMARK                         _______ _______ _______ _____ _____    ______ ____
ROOT
ATOM      1  O   UNL     1      45.270   7.868  11.807  0.00  0.00    +0.000 OA
ATOM      2  C   UNL     1      46.019   6.971  11.428  0.00  0.00    +0.000 C 
ATOM      3  N   UNL     1      47.377   7.020  11.635  0.00  0.00    +0.000 N 
ATOM      4  H   UNL     1      47.978   6.393  11.107  0.00  0.00    +0.000 HD
ENDROOT
BRANCH   2   5
ATOM      5  C   UNL     1      45.501   5.772  10.766  0.00  0.00    +0.000 A 
ATOM      6  C   UNL     1      45.805   5.531   9.433  0.00  0.00    +0.000 A 
ATOM      7  S   UNL     1      45.119   4.091   8.828  0.00  0.00    +0.000 S 
ATOM      8  C   UNL     1      44.433   3.717  10.343  0.00  0.00    +0.000 A 
ATOM      9  N   UNL     1      43.733   2.566  10.532  0.00  0.00    +0.000 NA
ATOM     10  C   UNL     1      43.296   2.400  11.736  0.00  0.00    +0.000 A 
ATOM     11  N   UNL     1      43.489   3.284  12.763  0.00  0.00    +0.000 N 
ATOM     12  C   UNL     1      44.157   4.473  12.613  0.00  0.00    +0.000 A 
ATOM     13  O   UNL     1      44.258   5.270  13.538  0.00  0.00    +0.000 OA
ATOM     14  C   UNL     1      44.693   4.695  11.281  0.00  0.00    +0.000 A 
ATOM     15  H   UNL     1      43.101   3.103  13.680  0.00  0.00    +0.000 HD
ENDBRANCH   2   5
BRANCH   3  16
ATOM     16  C   UNL     1      47.979   8.202  12.190  0.00  0.00    +0.000 C 
BRANCH  16  17
ATOM     17  C   UNL     1      48.404   8.011  13.612  0.00  0.00    +0.000 A 
ATOM     18  C   UNL     1      48.150   8.988  14.573  0.00  0.00    +0.000 A 
ATOM     19  C   UNL     1      48.512   8.764  15.899  0.00  0.00    +0.000 A 
ATOM     20  C   UNL     1      49.099   7.554  16.256  0.00  0.00    +0.000 A 
ATOM     21  N   UNL     1      49.398   6.612  15.326  0.00  0.00    +0.000 NA
ATOM     22  C   UNL     1      49.064   6.865  14.036  0.00  0.00    +0.000 A 
BRANCH  20  23
ATOM     23  C   UNL     1      49.493   7.263  17.685  0.00  0.00    +0.000 C 
BRANCH  23  24
ATOM     24  C   UNL     1      48.791   6.062  18.354  0.00  0.00    +0.000 C 
ATOM     25  C   UNL     1      49.605   4.774  18.376  0.00  0.00    +0.000 C 
ATOM     26  C   UNL     1      48.568   3.672  18.440  0.00  0.00    +0.000 C 
ATOM     27  C   UNL     1      47.347   4.254  17.755  0.00  0.00    +0.000 C 
ATOM     28  N   UNL     1      47.600   5.682  17.570  0.00  0.00    +0.000 NA
ATOM     29  H   UNL     1      46.793   6.234  17.859  0.00  0.00    +0.000 HD
ENDBRANCH  23  24
ENDBRANCH  20  23
ENDBRANCH  16  17
ENDBRANCH   3  16
TORSDOF 5
ENDMDL
MODEL 6
REMARK VINA RESULT:    -6.971      3.246      7.402
REMARK INTER + INTRA:          -9.634
REMARK INTER:                  -8.461
REMARK INTRA:                  -1.173
REMARK UNBOUND:                -0.626
REMARK  Name = 
REMARK  5 active torsions:
REMARK  status: ('A' for Active; 'I' for Inactive)
REMARK    1  A    between atoms: C_2  and  C_17
REMARK    2  A    between atoms: N_3  and  C_4
REMARK    3  A    between atoms: C_4  and  C_5
REMARK    4  A    between atoms: C_8  and  C_9
REMARK    5  A    between atoms: C_9  and  C_10
REMARK                            x       y       z     vdW  Elec       q    Type
REMARK                         _______ _______ _______ _____ _____    ______ ____
ROOT
ATOM      1  O   UNL     1      47.674   7.213  11.797  0.00  0.00    +0.000 OA
ATOM      2  C   UNL     1      46.667   7.337  12.488  0.00  0.00    +0.000 C 
ATOM      3  N   UNL     1      46.636   8.158  13.589  0.00  0.00    +0.000 N 
ATOM      4  H   UNL     1      45.880   8.052  14.261  0.00  0.00    +0.000 HD
ENDROOT
BRANCH   2   5
ATOM      5  C   UNL     1      45.421   6.644  12.153  0.00  0.00    +0.000 A 
ATOM      6  C   UNL     1      44.373   7.344  11.571  0.00  0.00    +0.000 A 
ATOM      7  S   UNL     1      43.004   6.379  11.251  0.00  0.00    +0.000 S 
ATOM      8  C   UNL     1      43.785   4.981  11.836  0.00  0.00    +0.000 A 
ATOM      9  N   UNL     1      43.169   3.768  11.806  0.00  0.00    +0.000 NA
ATOM     10  C   UNL     1      43.889   2.794  12.253  0.00  0.00    +0.000 A 
ATOM     11  N   UNL     1      45.163   2.925  12.736  0.00  0.00    +0.000 N 
ATOM     12  C   UNL     1      45.812   4.131  12.820  0.00  0.00    +0.000 A 
ATOM     13  O   UNL     1      46.930   4.223  13.314  0.00  0.00    +0.000 OA
ATOM     14  C   UNL     1      45.054   5.257  12.301  0.00  0.00    +0.000 A 
ATOM     15  H   UNL     1      45.666   2.123  13.093  0.00  0.00    +0.000 HD
ENDBRANCH   2   5
BRANCH   3  16
ATOM     16  C   UNL     1      47.840   8.800  14.044  0.00  0.00    +0.000 C 
BRANCH  16  17
ATOM     17  C   UNL     1      48.494   8.054  15.165  0.00  0.00    +0.000 A 
ATOM     18  C   UNL     1      48.366   8.487  16.483  0.00  0.00    +0.000 A 
ATOM     19  C   UNL     1      48.944   7.749  17.512  0.00  0.00    +0.000 A 
ATOM     20  C   UNL     1      49.621   6.569  17.216  0.00  0.00    +0.000 A 
ATOM     21  N   UNL     1      49.798   6.159  15.934  0.00  0.00    +0.000 NA
ATOM     22  C   UNL     1      49.252   6.912  14.946  0.00  0.00    +0.000 A 
BRANCH  20  23
ATOM     23  C   UNL     1      50.249   5.728  18.302  0.00  0.00    +0.000 C 
BRANCH  23  24
ATOM     24  C   UNL     1      49.892   4.227  18.294  0.00  0.00    +0.000 C 
ATOM     25  C   UNL     1      50.899   3.332  17.581  0.00  0.00    +0.000 C 
ATOM     26  C   UNL     1      50.090   2.133  17.134  0.00  0.00    +0.000 C 
ATOM     27  C   UNL     1      48.684   2.668  16.944  0.00  0.00    +0.000 C 
ATOM     28  N   UNL     1      48.658   4.013  17.515  0.00  0.00    +0.000 NA
ATOM     29  H   UNL     1      47.837   4.140  18.106  0.00  0.00    +0.000 HD
ENDBRANCH  23  24
ENDBRANCH  20  23
ENDBRANCH  16  17
ENDBRANCH   3  16
TORSDOF 5
ENDMDL
MODEL 7
REMARK VINA RESULT:    -6.832      2.921      8.259
REMARK INTER + INTRA:          -9.454
REMARK INTER:                  -8.300
REMARK INTRA:                  -1.154
REMARK UNBOUND:                -0.626
REMARK  Name = 
REMARK  5 active torsions:
REMARK  status: ('A' for Active; 'I' for Inactive)
REMARK    1  A    between atoms: C_2  and  C_17
REMARK    2  A    between atoms: N_3  and  C_4
REMARK    3  A    between atoms: C_4  and  C_5
REMARK    4  A    between atoms: C_8  and  C_9
REMARK    5  A    between atoms: C_9  and  C_10
REMARK                            x       y       z     vdW  Elec       q    Type
REMARK                         _______ _______ _______ _____ _____    ______ ____
ROOT
ATOM      1  O   UNL     1      44.629   7.296  12.009  0.00  0.00    +0.000 OA
ATOM      2  C   UNL     1      45.356   6.349  11.724  0.00  0.00    +0.000 C 
ATOM      3  N   UNL     1      46.726   6.452  11.739  0.00  0.00    +0.000 N 
ATOM      4  H   UNL     1      47.278   5.735  11.274  0.00  0.00    +0.000 HD
ENDROOT
BRANCH   2   5
ATOM      5  C   UNL     1      44.803   5.034  11.392  0.00  0.00    +0.000 A 
ATOM      6  C   UNL     1      44.007   4.364  12.311  0.00  0.00    +0.000 A 
ATOM      7  S   UNL     1      43.450   2.851  11.755  0.00  0.00    +0.000 S 
ATOM      8  C   UNL     1      44.216   3.063  10.247  0.00  0.00    +0.000 A 
ATOM      9  N   UNL     1      44.099   2.130   9.263  0.00  0.00    +0.000 NA
ATOM     10  C   UNL     1      44.706   2.436   8.165  0.00  0.00    +0.000 A 
ATOM     11  N   UNL     1      45.426   3.583   7.966  0.00  0.00    +0.000 N 
ATOM     12  C   UNL     1      45.602   4.535   8.938  0.00  0.00    +0.000 A 
ATOM     13  O   UNL     1      46.303   5.521   8.747  0.00  0.00    +0.000 OA
ATOM     14  C   UNL     1      44.914   4.251  10.186  0.00  0.00    +0.000 A 
ATOM     15  H   UNL     1      45.896   3.751   7.087  0.00  0.00    +0.000 HD
ENDBRANCH   2   5
BRANCH   3  16
ATOM     16  C   UNL     1      47.350   7.728  11.960  0.00  0.00    +0.000 C 
BRANCH  16  17
ATOM     17  C   UNL     1      47.993   7.822  13.309  0.00  0.00    +0.000 A 
ATOM     18  C   UNL     1      47.756   8.915  14.140  0.00  0.00    +0.000 A 
ATOM     19  C   UNL     1      48.327   8.955  15.409  0.00  0.00    +0.000 A 
ATOM     20  C   UNL     1      49.107   7.888  15.845  0.00  0.00    +0.000 A 
ATOM     21  N   UNL     1      49.389   6.839  15.032  0.00  0.00    +0.000 NA
ATOM     22  C   UNL     1      48.846   6.837  13.788  0.00  0.00    +0.000 A 
BRANCH  20  23
ATOM     23  C   UNL     1      49.733   7.881  17.221  0.00  0.00    +0.000 C 
BRANCH  23  24
ATOM     24  C   UNL     1      49.257   6.771  18.181  0.00  0.00    +0.000 C 
ATOM     25  C   UNL     1      50.061   5.479  18.117  0.00  0.00    +0.000 C 
ATOM     26  C   UNL     1      49.096   4.408  18.580  0.00  0.00    +0.000 C 
ATOM     27  C   UNL     1      47.727   4.935  18.197  0.00  0.00    +0.000 C 
ATOM     28  N   UNL     1      47.901   6.330  17.798  0.00  0.00    +0.000 NA
ATOM     29  H   UNL     1      47.197   6.923  18.236  0.00  0.00    +0.000 HD
ENDBRANCH  23  24
ENDBRANCH  20  23
ENDBRANCH  16  17
ENDBRANCH   3  16
TORSDOF 5
ENDMDL
MODEL 8
REMARK VINA RESULT:    -6.797      2.852      3.885
REMARK INTER + INTRA:          -9.410
REMARK INTER:                  -8.719
REMARK INTRA:                  -0.690
REMARK UNBOUND:                -0.626
REMARK  Name = 
REMARK  5 active torsions:
REMARK  status: ('A' for Active; 'I' for Inactive)
REMARK    1  A    between atoms: C_2  and  C_17
REMARK    2  A    between atoms: N_3  and  C_4
REMARK    3  A    between atoms: C_4  and  C_5
REMARK    4  A    between atoms: C_8  and  C_9
REMARK    5  A    between atoms: C_9  and  C_10
REMARK                            x       y       z     vdW  Elec       q    Type
REMARK                         _______ _______ _______ _____ _____    ______ ____
ROOT
ATOM      1  O   UNL     1      49.349   6.007  18.553  0.00  0.00    +0.000 OA
ATOM      2  C   UNL     1      50.104   5.573  17.688  0.00  0.00    +0.000 C 
ATOM      3  N   UNL     1      49.965   5.909  16.363  0.00  0.00    +0.000 N 
ATOM      4  H   UNL     1      50.446   5.353  15.661  0.00  0.00    +0.000 HD
ENDROOT
BRANCH   2   5
ATOM      5  C   UNL     1      51.229   4.698  18.026  0.00  0.00    +0.000 A 
ATOM      6  C   UNL     1      52.330   5.213  18.697  0.00  0.00    +0.000 A 
ATOM      7  S   UNL     1      53.542   4.054  19.007  0.00  0.00    +0.000 S 
ATOM      8  C   UNL     1      52.614   2.813  18.297  0.00  0.00    +0.000 A 
ATOM      9  N   UNL     1      53.062   1.529  18.271  0.00  0.00    +0.000 NA
ATOM     10  C   UNL     1      52.242   0.691  17.729  0.00  0.00    +0.000 A 
ATOM     11  N   UNL     1      51.022   1.022  17.204  0.00  0.00    +0.000 N 
ATOM     12  C   UNL     1      50.543   2.308  17.175  0.00  0.00    +0.000 A 
ATOM     13  O   UNL     1      49.474   2.580  16.643  0.00  0.00    +0.000 OA
ATOM     14  C   UNL     1      51.417   3.287  17.800  0.00  0.00    +0.000 A 
ATOM     15  H   UNL     1      50.437   0.319  16.773  0.00  0.00    +0.000 HD
ENDBRANCH   2   5
BRANCH   3  16
ATOM     16  C   UNL     1      48.832   6.683  15.932  0.00  0.00    +0.000 C 
BRANCH  16  17
ATOM     17  C   UNL     1      47.900   5.895  15.065  0.00  0.00    +0.000 A 
ATOM     18  C   UNL     1      47.560   6.341  13.790  0.00  0.00    +0.000 A 
ATOM     19  C   UNL     1      46.729   5.566  12.985  0.00  0.00    +0.000 A 
ATOM     20  C   UNL     1      46.270   4.338  13.453  0.00  0.00    +0.000 A 
ATOM     21  N   UNL     1      46.551   3.911  14.710  0.00  0.00    +0.000 NA
ATOM     22  C   UNL     1      47.336   4.699  15.487  0.00  0.00    +0.000 A 
BRANCH  20  23
ATOM     23  C   UNL     1      45.380   3.457  12.608  0.00  0.00    +0.000 C 
BRANCH  23  24
ATOM     24  C   UNL     1      45.458   3.675  11.082  0.00  0.00    +0.000 C 
ATOM     25  C   UNL     1      44.484   4.710  10.532  0.00  0.00    +0.000 C 
ATOM     26  C   UNL     1      44.269   4.299   9.090  0.00  0.00    +0.000 C 
ATOM     27  C   UNL     1      44.483   2.798   9.083  0.00  0.00    +0.000 C 
ATOM     28  N   UNL     1      45.051   2.441  10.382  0.00  0.00    +0.000 NA
ATOM     29  H   UNL     1      45.850   1.817  10.269  0.00  0.00    +0.000 HD
ENDBRANCH  23  24
ENDBRANCH  20  23
ENDBRANCH  16  17
ENDBRANCH   3  16
TORSDOF 5
ENDMDL
MODEL 9
REMARK VINA RESULT:    -6.628      3.368      5.157
REMARK INTER + INTRA:          -9.190
REMARK INTER:                  -8.106
REMARK INTRA:                  -1.085
REMARK UNBOUND:                -0.626
REMARK  Name = 
REMARK  5 active torsions:
REMARK  status: ('A' for Active; 'I' for Inactive)
REMARK    1  A    between atoms: C_2  and  C_17
REMARK    2  A    between atoms: N_3  and  C_4
REMARK    3  A    between atoms: C_4  and  C_5
REMARK    4  A    between atoms: C_8  and  C_9
REMARK    5  A    between atoms: C_9  and  C_10
REMARK                            x       y       z     vdW  Elec       q    Type
REMARK                         _______ _______ _______ _____ _____    ______ ____
ROOT
ATOM      1  O   UNL     1      47.917   8.599  14.623  0.00  0.00    +0.000 OA
ATOM      2  C   UNL     1      48.771   8.015  13.962  0.00  0.00    +0.000 C 
ATOM      3  N   UNL     1      48.634   6.698  13.594  0.00  0.00    +0.000 N 
ATOM      4  H   UNL     1      49.451   6.192  13.263  0.00  0.00    +0.000 HD
ENDROOT
BRANCH   2   5
ATOM      5  C   UNL     1      49.974   8.704  13.489  0.00  0.00    +0.000 A 
ATOM      6  C   UNL     1      51.203   8.434  14.075  0.00  0.00    +0.000 A 
ATOM      7  S   UNL     1      52.491   9.325  13.399  0.00  0.00    +0.000 S 
ATOM      8  C   UNL     1      51.455  10.066  12.266  0.00  0.00    +0.000 A 
ATOM      9  N   UNL     1      51.938  10.931  11.334  0.00  0.00    +0.000 NA
ATOM     10  C   UNL     1      51.045  11.393  10.523  0.00  0.00    +0.000 A 
ATOM     11  N   UNL     1      49.715  11.074  10.566  0.00  0.00    +0.000 N 
ATOM     12  C   UNL     1      49.175  10.236  11.508  0.00  0.00    +0.000 A 
ATOM     13  O   UNL     1      47.970  10.020  11.556  0.00  0.00    +0.000 OA
ATOM     14  C   UNL     1      50.145   9.666  12.428  0.00  0.00    +0.000 A 
ATOM     15  H   UNL     1      49.063  11.489   9.913  0.00  0.00    +0.000 HD
ENDBRANCH   2   5
BRANCH   3  16
ATOM     16  C   UNL     1      47.532   5.921  14.095  0.00  0.00    +0.000 C 
BRANCH  16  17
ATOM     17  C   UNL     1      46.631   5.438  13.002  0.00  0.00    +0.000 A 
ATOM     18  C   UNL     1      46.036   4.180  13.069  0.00  0.00    +0.000 A 
ATOM     19  C   UNL     1      45.164   3.774  12.062  0.00  0.00    +0.000 A 
ATOM     20  C   UNL     1      44.873   4.641  11.013  0.00  0.00    +0.000 A 
ATOM     21  N   UNL     1      45.481   5.849  10.907  0.00  0.00    +0.000 NA
ATOM     22  C   UNL     1      46.351   6.211  11.883  0.00  0.00    +0.000 A 
BRANCH  20  23
ATOM     23  C   UNL     1      43.920   4.248   9.909  0.00  0.00    +0.000 C 
BRANCH  23  24
ATOM     24  C   UNL     1      44.565   3.800   8.580  0.00  0.00    +0.000 C 
ATOM     25  C   UNL     1      45.289   2.461   8.638  0.00  0.00    +0.000 C 
ATOM     26  C   UNL     1      46.327   2.543   7.538  0.00  0.00    +0.000 C 
ATOM     27  C   UNL     1      46.642   4.021   7.418  0.00  0.00    +0.000 C 
ATOM     28  N   UNL     1      45.642   4.738   8.209  0.00  0.00    +0.000 NA
ATOM     29  H   UNL     1      45.263   5.526   7.685  0.00  0.00    +0.000 HD
ENDBRANCH  23  24
ENDBRANCH  20  23
ENDBRANCH  16  17
ENDBRANCH   3  16
TORSDOF 5
ENDMDL
