MODEL 1
REMARK VINA RESULT:    -8.026      0.000      0.000
REMARK INTER + INTRA:         -12.353
REMARK INTER:                 -11.311
REMARK INTRA:                  -1.042
REMARK UNBOUND:                -1.042
REMARK  Name = 
REMARK  7 active torsions:
REMARK  status: ('A' for Active; 'I' for Inactive)
REMARK    1  A    between atoms: C_2  and  C_20
REMARK    2  A    between atoms: N_3  and  C_4
REMARK    3  A    between atoms: C_4  and  C_5
REMARK    4  A    between atoms: C_8  and  C_9
REMARK    5  A    between atoms: C_9  and  C_10
REMARK    6  A    between atoms: C_10  and  S_11
REMARK    7  A    between atoms: S_11  and  C_12
REMARK                            x       y       z     vdW  Elec       q    Type
REMARK                         _______ _______ _______ _____ _____    ______ ____
ROOT
ATOM      1  C   UNL     1      47.277   7.579  13.447  0.00  0.00    +0.000 C 
ENDROOT
BRANCH   1   2
ATOM      2  C   UNL     1      46.303   6.606  12.836  0.00  0.00    +0.000 A 
ATOM      3  C   UNL     1      45.183   7.066  12.132  0.00  0.00    +0.000 A 
ATOM      4  C   UNL     1      44.296   6.165  11.533  0.00  0.00    +0.000 A 
ATOM      5  C   UNL     1      44.507   4.783  11.626  0.00  0.00    +0.000 A 
ATOM      6  C   UNL     1      45.605   4.324  12.366  0.00  0.00    +0.000 A 
ATOM      7  C   UNL     1      46.490   5.225  12.969  0.00  0.00    +0.000 A 
BRANCH   5   8
ATOM      8  C   UNL     1      43.553   3.799  10.980  0.00  0.00    +0.000 C 
BRANCH   8   9
ATOM      9  C   UNL     1      44.218   2.946   9.892  0.00  0.00    +0.000 C 
BRANCH   9  10
ATOM     10  S   UNL     1      44.793   4.008   8.515  0.00  0.00    +0.000 S 
BRANCH  10  11
ATOM     11  C   UNL     1      45.989   2.965   7.686  0.00  0.00    +0.000 A 
ATOM     12  C   UNL     1      46.174   1.670   8.174  0.00  0.00    +0.000 A 
ATOM     13  C   UNL     1      47.075   0.837   7.528  0.00  0.00    +0.000 A 
ATOM     14  N   UNL     1      47.787   1.202   6.442  0.00  0.00    +0.000 NA
ATOM     15  C   UNL     1      47.581   2.451   5.978  0.00  0.00    +0.000 A 
ATOM     16  C   UNL     1      46.702   3.356   6.555  0.00  0.00    +0.000 A 
ENDBRANCH  10  11
ENDBRANCH   9  10
ENDBRANCH   8   9
ENDBRANCH   5   8
ENDBRANCH   1   2
BRANCH   1  19
ATOM     17  O   UNL     1      49.895   7.056  14.166  0.00  0.00    +0.000 OA
ATOM     18  C   UNL     1      49.035   6.998  15.041  0.00  0.00    +0.000 C 
ATOM     19  N   UNL     1      47.700   7.170  14.762  0.00  0.00    +0.000 N 
ATOM     20  H   UNL     1      47.049   7.326  15.525  0.00  0.00    +0.000 HD
BRANCH  18  21
ATOM     21  C   UNL     1      49.383   6.696  16.434  0.00  0.00    +0.000 A 
ATOM     22  C   UNL     1      50.098   7.619  17.185  0.00  0.00    +0.000 A 
ATOM     23  S   UNL     1      50.417   7.100  18.778  0.00  0.00    +0.000 S 
ATOM     24  C   UNL     1      49.568   5.646  18.534  0.00  0.00    +0.000 A 
ATOM     25  N   UNL     1      49.426   4.742  19.539  0.00  0.00    +0.000 NA
ATOM     26  C   UNL     1      48.727   3.702  19.225  0.00  0.00    +0.000 A 
ATOM     27  N   UNL     1      48.165   3.480  17.992  0.00  0.00    +0.000 N 
ATOM     28  C   UNL     1      48.317   4.347  16.938  0.00  0.00    +0.000 A 
ATOM     29  O   UNL     1      47.855   4.091  15.831  0.00  0.00    +0.000 OA
ATOM     30  C   UNL     1      49.073   5.546  17.246  0.00  0.00    +0.000 A 
ATOM     31  H   UNL     1      47.646   2.638  17.805  0.00  0.00    +0.000 HD
ENDBRANCH  18  21
ENDBRANCH   1  19
TORSDOF 7
ENDMDL
MODEL 2
REMARK VINA RESULT:    -7.447      2.108      3.287
REMARK INTER + INTRA:         -11.537
REMARK INTER:                 -10.660
REMARK INTRA:                  -0.877
REMARK UNBOUND:                -1.042
REMARK  Name = 
REMARK  7 active torsions:
REMARK  status: ('A' for Active; 'I' for Inactive)
REMARK    1  A    between atoms: C_2  and  C_20
REMARK    2  A    between atoms: N_3  and  C_4
REMARK    3  A    between atoms: C_4  and  C_5
REMARK    4  A    between atoms: C_8  and  C_9
REMARK    5  A    between atoms: C_9  and  C_10
REMARK    6  A    between atoms: C_10  and  S_11
REMARK    7  A    between atoms: S_11  and  C_12
REMARK                            x       y       z     vdW  Elec       q    Type
REMARK                         _______ _______ _______ _____ _____    ______ ____
ROOT
ATOM      1  C   UNL     1      47.582   4.102  15.548  0.00  0.00    +0.000 C 
ENDROOT
BRANCH   1   2
ATOM      2  C   UNL     1      46.949   4.520  14.246  0.00  0.00    +0.000 A 
ATOM      3  C   UNL     1      46.091   3.650  13.560  0.00  0.00    +0.000 A 
ATOM      4  C   UNL     1      45.474   4.049  12.369  0.00  0.00    +0.000 A 
ATOM      5  C   UNL     1      45.701   5.325  11.837  0.00  0.00    +0.000 A 
ATOM      6  C   UNL     1      46.592   6.177  12.503  0.00  0.00    +0.000 A 
ATOM      7  C   UNL     1      47.213   5.777  13.692  0.00  0.00    +0.000 A 
BRANCH   5   8
ATOM      8  C   UNL     1      45.036   5.767  10.549  0.00  0.00    +0.000 C 
BRANCH   8   9
ATOM      9  C   UNL     1      45.729   5.215   9.297  0.00  0.00    +0.000 C 
BRANCH   9  10
ATOM     10  S   UNL     1      44.722   3.881   8.549  0.00  0.00    +0.000 S 
BRANCH  10  11
ATOM     11  C   UNL     1      45.949   2.888   7.704  0.00  0.00    +0.000 A 
ATOM     12  C   UNL     1      46.167   1.588   8.163  0.00  0.00    +0.000 A 
ATOM     13  C   UNL     1      47.093   0.794   7.503  0.00  0.00    +0.000 A 
ATOM     14  N   UNL     1      47.800   1.202   6.430  0.00  0.00    +0.000 NA
ATOM     15  C   UNL     1      47.563   2.455   5.993  0.00  0.00    +0.000 A 
ATOM     16  C   UNL     1      46.657   3.323   6.585  0.00  0.00    +0.000 A 
ENDBRANCH  10  11
ENDBRANCH   9  10
ENDBRANCH   8   9
ENDBRANCH   5   8
ENDBRANCH   1   2
BRANCH   1  19
ATOM     17  O   UNL     1      49.726   5.424  16.686  0.00  0.00    +0.000 OA
ATOM     18  C   UNL     1      48.595   5.772  17.015  0.00  0.00    +0.000 C 
ATOM     19  N   UNL     1      47.473   5.123  16.557  0.00  0.00    +0.000 N 
ATOM     20  H   UNL     1      46.565   5.560  16.675  0.00  0.00    +0.000 HD
BRANCH  18  21
ATOM     21  C   UNL     1      48.380   6.877  17.955  0.00  0.00    +0.000 A 
ATOM     22  C   UNL     1      48.328   6.626  19.319  0.00  0.00    +0.000 A 
ATOM     23  S   UNL     1      48.067   8.025  20.260  0.00  0.00    +0.000 S 
ATOM     24  C   UNL     1      48.065   9.020  18.880  0.00  0.00    +0.000 A 
ATOM     25  N   UNL     1      47.921  10.368  18.989  0.00  0.00    +0.000 NA
ATOM     26  C   UNL     1      47.976  11.002  17.865  0.00  0.00    +0.000 A 
ATOM     27  N   UNL     1      48.151  10.409  16.639  0.00  0.00    +0.000 N 
ATOM     28  C   UNL     1      48.261   9.049  16.479  0.00  0.00    +0.000 A 
ATOM     29  O   UNL     1      48.354   8.545  15.366  0.00  0.00    +0.000 OA
ATOM     30  C   UNL     1      48.232   8.291  17.716  0.00  0.00    +0.000 A 
ATOM     31  H   UNL     1      48.166  10.959  15.797  0.00  0.00    +0.000 HD
ENDBRANCH  18  21
ENDBRANCH   1  19
TORSDOF 7
ENDMDL
MODEL 3
REMARK VINA RESULT:    -7.380      2.224      2.932
REMARK INTER + INTRA:         -11.442
REMARK INTER:                 -10.447
REMARK INTRA:                  -0.995
REMARK UNBOUND:                -1.042
REMARK  Name = 
REMARK  7 active torsions:
REMARK  status: ('A' for Active; 'I' for Inactive)
REMARK    1  A    between atoms: C_2  and  C_20
REMARK    2  A    between atoms: N_3  and  C_4
REMARK    3  A    between atoms: C_4  and  C_5
REMARK    4  A    between atoms: C_8  and  C_9
REMARK    5  A    between atoms: C_9  and  C_10
REMARK    6  A    between atoms: C_10  and  S_11
REMARK    7  A    between atoms: S_11  and  C_12
REMARK                            x       y       z     vdW  Elec       q    Type
REMARK                         _______ _______ _______ _____ _____    ______ ____
ROOT
ATOM      1  C   UNL     1      48.312   6.138  14.185  0.00  0.00    +0.000 C 
ENDROOT
BRANCH   1   2
ATOM      2  C   UNL     1      47.130   5.838  13.301  0.00  0.00    +0.000 A 
ATOM      3  C   UNL     1      46.972   6.497  12.075  0.00  0.00    +0.000 A 
ATOM      4  C   UNL     1      45.894   6.195  11.236  0.00  0.00    +0.000 A 
ATOM      5  C   UNL     1      44.948   5.228  11.604  0.00  0.00    +0.000 A 
ATOM      6  C   UNL     1      45.086   4.600  12.848  0.00  0.00    +0.000 A 
ATOM      7  C   UNL     1      46.161   4.905  13.691  0.00  0.00    +0.000 A 
BRANCH   5   8
ATOM      8  C   UNL     1      43.779   4.893  10.701  0.00  0.00    +0.000 C 
BRANCH   8   9
ATOM      9  C   UNL     1      44.212   4.292   9.358  0.00  0.00    +0.000 C 
BRANCH   9  10
ATOM     10  S   UNL     1      44.597   2.512   9.553  0.00  0.00    +0.000 S 
BRANCH  10  11
ATOM     11  C   UNL     1      45.753   2.211   8.219  0.00  0.00    +0.000 A 
ATOM     12  C   UNL     1      46.065   3.277   7.373  0.00  0.00    +0.000 A 
ATOM     13  C   UNL     1      46.981   3.071   6.353  0.00  0.00    +0.000 A 
ATOM     14  N   UNL     1      47.599   1.894   6.127  0.00  0.00    +0.000 NA
ATOM     15  C   UNL     1      47.295   0.883   6.965  0.00  0.00    +0.000 A 
ATOM     16  C   UNL     1      46.394   0.991   8.014  0.00  0.00    +0.000 A 
ENDBRANCH  10  11
ENDBRANCH   9  10
ENDBRANCH   8   9
ENDBRANCH   5   8
ENDBRANCH   1   2
BRANCH   1  19
ATOM     17  O   UNL     1      49.944   5.622  16.356  0.00  0.00    +0.000 OA
ATOM     18  C   UNL     1      48.834   6.100  16.571  0.00  0.00    +0.000 C 
ATOM     19  N   UNL     1      47.928   6.320  15.562  0.00  0.00    +0.000 N 
ATOM     20  H   UNL     1      47.117   6.903  15.741  0.00  0.00    +0.000 HD
BRANCH  18  21
ATOM     21  C   UNL     1      48.393   6.422  17.933  0.00  0.00    +0.000 A 
ATOM     22  C   UNL     1      48.348   5.428  18.900  0.00  0.00    +0.000 A 
ATOM     23  S   UNL     1      47.810   5.981  20.422  0.00  0.00    +0.000 S 
ATOM     24  C   UNL     1      47.667   7.578  19.853  0.00  0.00    +0.000 A 
ATOM     25  N   UNL     1      47.277   8.583  20.681  0.00  0.00    +0.000 NA
ATOM     26  C   UNL     1      47.247   9.749  20.125  0.00  0.00    +0.000 A 
ATOM     27  N   UNL     1      47.563   9.999  18.813  0.00  0.00    +0.000 N 
ATOM     28  C   UNL     1      47.923   9.008  17.932  0.00  0.00    +0.000 A 
ATOM     29  O   UNL     1      48.140   9.255  16.751  0.00  0.00    +0.000 OA
ATOM     30  C   UNL     1      47.997   7.681  18.513  0.00  0.00    +0.000 A 
ATOM     31  H   UNL     1      47.503  10.930  18.435  0.00  0.00    +0.000 HD
ENDBRANCH  18  21
ENDBRANCH   1  19
TORSDOF 7
ENDMDL
MODEL 4
REMARK VINA RESULT:    -7.287      2.831      8.175
REMARK INTER + INTRA:         -11.312
REMARK INTER:                  -9.998
REMARK INTRA:                  -1.313
REMARK UNBOUND:                -1.042
REMARK  Name = 
REMARK  7 active torsions:
REMARK  status: ('A' for Active; 'I' for Inactive)
REMARK    1  A    between atoms: C_2  and  C_20
REMARK    2  A    between atoms: N_3  and  C_4
REMARK    3  A    between atoms: C_4  and  C_5
REMARK    4  A    between atoms: C_8  and  C_9
REMARK    5  A    between atoms: C_9  and  C_10
REMARK    6  A    between atoms: C_10  and  S_11
REMARK    7  A    between atoms: S_11  and  C_12
REMARK                            x       y       z     vdW  Elec       q    Type
REMARK                         _______ _______ _______ _____ _____    ______ ____
ROOT
ATOM      1  C   UNL     1      48.080   8.168  12.163  0.00  0.00    +0.000 C 
ENDROOT
BRANCH   1   2
ATOM      2  C   UNL     1      48.371   8.048  13.636  0.00  0.00    +0.000 A 
ATOM      3  C   UNL     1      48.268   9.165  14.475  0.00  0.00    +0.000 A 
ATOM      4  C   UNL     1      48.504   9.049  15.850  0.00  0.00    +0.000 A 
ATOM      5  C   UNL     1      48.850   7.815  16.416  0.00  0.00    +0.000 A 
ATOM      6  C   UNL     1      48.993   6.709  15.567  0.00  0.00    +0.000 A 
ATOM      7  C   UNL     1      48.762   6.825  14.192  0.00  0.00    +0.000 A 
BRANCH   5   8
ATOM      8  C   UNL     1      49.106   7.679  17.903  0.00  0.00    +0.000 C 
BRANCH   8   9
ATOM      9  C   UNL     1      48.351   6.503  18.535  0.00  0.00    +0.000 C 
BRANCH   9  10
ATOM     10  S   UNL     1      49.534   5.276  19.205  0.00  0.00    +0.000 S 
BRANCH  10  11
ATOM     11  C   UNL     1      49.442   3.946  18.009  0.00  0.00    +0.000 A 
ATOM     12  C   UNL     1      50.583   3.167  17.810  0.00  0.00    +0.000 A 
ATOM     13  C   UNL     1      50.521   2.115  16.909  0.00  0.00    +0.000 A 
ATOM     14  N   UNL     1      49.415   1.791  16.209  0.00  0.00    +0.000 NA
ATOM     15  C   UNL     1      48.321   2.547  16.428  0.00  0.00    +0.000 A 
ATOM     16  C   UNL     1      48.283   3.618  17.309  0.00  0.00    +0.000 A 
ENDBRANCH  10  11
ENDBRANCH   9  10
ENDBRANCH   8   9
ENDBRANCH   5   8
ENDBRANCH   1   2
BRANCH   1  19
ATOM     17  O   UNL     1      45.357   7.861  11.799  0.00  0.00    +0.000 OA
ATOM     18  C   UNL     1      46.094   6.951  11.429  0.00  0.00    +0.000 C 
ATOM     19  N   UNL     1      47.452   6.984  11.635  0.00  0.00    +0.000 N 
ATOM     20  H   UNL     1      48.046   6.330  11.137  0.00  0.00    +0.000 HD
BRANCH  18  21
ATOM     21  C   UNL     1      45.555   5.750  10.780  0.00  0.00    +0.000 A 
ATOM     22  C   UNL     1      45.821   5.509   9.440  0.00  0.00    +0.000 A 
ATOM     23  S   UNL     1      45.114   4.072   8.852  0.00  0.00    +0.000 S 
ATOM     24  C   UNL     1      44.469   3.699  10.382  0.00  0.00    +0.000 A 
ATOM     25  N   UNL     1      43.763   2.554  10.584  0.00  0.00    +0.000 NA
ATOM     26  C   UNL     1      43.365   2.381  11.800  0.00  0.00    +0.000 A 
ATOM     27  N   UNL     1      43.600   3.255  12.832  0.00  0.00    +0.000 N 
ATOM     28  C   UNL     1      44.273   4.441  12.665  0.00  0.00    +0.000 A 
ATOM     29  O   UNL     1      44.413   5.230  13.592  0.00  0.00    +0.000 OA
ATOM     30  C   UNL     1      44.765   4.672  11.320  0.00  0.00    +0.000 A 
ATOM     31  H   UNL     1      43.246   3.071  13.756  0.00  0.00    +0.000 HD
ENDBRANCH  18  21
ENDBRANCH   1  19
TORSDOF 7
ENDMDL
MODEL 5
REMARK VINA RESULT:    -7.200      1.858      2.784
REMARK INTER + INTRA:         -11.188
REMARK INTER:                 -10.292
REMARK INTRA:                  -0.896
REMARK UNBOUND:                -1.042
REMARK  Name = 
REMARK  7 active torsions:
REMARK  status: ('A' for Active; 'I' for Inactive)
REMARK    1  A    between atoms: C_2  and  C_20
REMARK    2  A    between atoms: N_3  and  C_4
REMARK    3  A    between atoms: C_4  and  C_5
REMARK    4  A    between atoms: C_8  and  C_9
REMARK    5  A    between atoms: C_9  and  C_10
REMARK    6  A    between atoms: C_10  and  S_11
REMARK    7  A    between atoms: S_11  and  C_12
REMARK                            x       y       z     vdW  Elec       q    Type
REMARK                         _______ _______ _______ _____ _____    ______ ____
ROOT
ATOM      1  C   UNL     1      47.221   4.048  15.617  0.00  0.00    +0.000 C 
ENDROOT
BRANCH   1   2
ATOM      2  C   UNL     1      46.724   4.525  14.277  0.00  0.00    +0.000 A 
ATOM      3  C   UNL     1      45.852   3.735  13.518  0.00  0.00    +0.000 A 
ATOM      4  C   UNL     1      45.361   4.191  12.290  0.00  0.00    +0.000 A 
ATOM      5  C   UNL     1      45.733   5.447  11.791  0.00  0.00    +0.000 A 
ATOM      6  C   UNL     1      46.638   6.217  12.533  0.00  0.00    +0.000 A 
ATOM      7  C   UNL     1      47.133   5.760  13.759  0.00  0.00    +0.000 A 
BRANCH   5   8
ATOM      8  C   UNL     1      45.206   5.950  10.463  0.00  0.00    +0.000 C 
BRANCH   8   9
ATOM      9  C   UNL     1      45.903   5.307   9.259  0.00  0.00    +0.000 C 
BRANCH   9  10
ATOM     10  S   UNL     1      44.844   3.999   8.535  0.00  0.00    +0.000 S 
BRANCH  10  11
ATOM     11  C   UNL     1      46.029   2.959   7.685  0.00  0.00    +0.000 A 
ATOM     12  C   UNL     1      46.226   1.664   8.168  0.00  0.00    +0.000 A 
ATOM     13  C   UNL     1      47.118   0.835   7.505  0.00  0.00    +0.000 A 
ATOM     14  N   UNL     1      47.810   1.203   6.408  0.00  0.00    +0.000 NA
ATOM     15  C   UNL     1      47.593   2.452   5.949  0.00  0.00    +0.000 A 
ATOM     16  C   UNL     1      46.721   3.353   6.542  0.00  0.00    +0.000 A 
ENDBRANCH  10  11
ENDBRANCH   9  10
ENDBRANCH   8   9
ENDBRANCH   5   8
ENDBRANCH   1   2
BRANCH   1  19
ATOM     17  O   UNL     1      46.735   4.791  18.235  0.00  0.00    +0.000 OA
ATOM     18  C   UNL     1      47.673   5.326  17.649  0.00  0.00    +0.000 C 
ATOM     19  N   UNL     1      47.943   5.073  16.325  0.00  0.00    +0.000 N 
ATOM     20  H   UNL     1      48.835   5.361  15.937  0.00  0.00    +0.000 HD
BRANCH  18  21
ATOM     21  C   UNL     1      48.535   6.304  18.322  0.00  0.00    +0.000 A 
ATOM     22  C   UNL     1      47.969   7.316  19.086  0.00  0.00    +0.000 A 
ATOM     23  S   UNL     1      49.118   8.362  19.790  0.00  0.00    +0.000 S 
ATOM     24  C   UNL     1      50.412   7.469  19.139  0.00  0.00    +0.000 A 
ATOM     25  N   UNL     1      51.701   7.816  19.395  0.00  0.00    +0.000 NA
ATOM     26  C   UNL     1      52.580   7.029  18.868  0.00  0.00    +0.000 A 
ATOM     27  N   UNL     1      52.286   5.931  18.098  0.00  0.00    +0.000 N 
ATOM     28  C   UNL     1      50.999   5.568  17.781  0.00  0.00    +0.000 A 
ATOM     29  O   UNL     1      50.771   4.618  17.040  0.00  0.00    +0.000 OA
ATOM     30  C   UNL     1      49.972   6.405  18.371  0.00  0.00    +0.000 A 
ATOM     31  H   UNL     1      53.019   5.368  17.700  0.00  0.00    +0.000 HD
ENDBRANCH  18  21
ENDBRANCH   1  19
TORSDOF 7
ENDMDL
MODEL 6
REMARK VINA RESULT:    -7.138      2.562      8.603
REMARK INTER + INTRA:         -11.102
REMARK INTER:                  -9.764
REMARK INTRA:                  -1.338
REMARK UNBOUND:                -1.042
REMARK  Name = 
REMARK  7 active torsions:
REMARK  status: ('A' for Active; 'I' for Inactive)
REMARK    1  A    between atoms: C_2  and  C_20
REMARK    2  A    between atoms: N_3  and  C_4
REMARK    3  A    between atoms: C_4  and  C_5
REMARK    4  A    between atoms: C_8  and  C_9
REMARK    5  A    between atoms: C_9  and  C_10
REMARK    6  A    between atoms: C_10  and  S_11
REMARK    7  A    between atoms: S_11  and  C_12
REMARK                            x       y       z     vdW  Elec       q    Type
REMARK                         _______ _______ _______ _____ _____    ______ ____
ROOT
ATOM      1  C   UNL     1      47.329   7.744  12.149  0.00  0.00    +0.000 C 
ENDROOT
BRANCH   1   2
ATOM      2  C   UNL     1      47.960   7.817  13.515  0.00  0.00    +0.000 A 
ATOM      3  C   UNL     1      48.838   6.815  13.948  0.00  0.00    +0.000 A 
ATOM      4  C   UNL     1      49.453   6.898  15.202  0.00  0.00    +0.000 A 
ATOM      5  C   UNL     1      49.203   7.983  16.053  0.00  0.00    +0.000 A 
ATOM      6  C   UNL     1      48.293   8.963  15.634  0.00  0.00    +0.000 A 
ATOM      7  C   UNL     1      47.674   8.878  14.382  0.00  0.00    +0.000 A 
BRANCH   5   8
ATOM      8  C   UNL     1      49.866   8.083  17.412  0.00  0.00    +0.000 C 
BRANCH   8   9
ATOM      9  C   UNL     1      50.527   6.771  17.854  0.00  0.00    +0.000 C 
BRANCH   9  10
ATOM     10  S   UNL     1      49.317   5.716  18.737  0.00  0.00    +0.000 S 
BRANCH  10  11
ATOM     11  C   UNL     1      49.284   4.233  17.734  0.00  0.00    +0.000 A 
ATOM     12  C   UNL     1      50.407   3.404  17.757  0.00  0.00    +0.000 A 
ATOM     13  C   UNL     1      50.388   2.236  17.010  0.00  0.00    +0.000 A 
ATOM     14  N   UNL     1      49.340   1.844  16.258  0.00  0.00    +0.000 NA
ATOM     15  C   UNL     1      48.260   2.651  16.263  0.00  0.00    +0.000 A 
ATOM     16  C   UNL     1      48.183   3.837  16.978  0.00  0.00    +0.000 A 
ENDBRANCH  10  11
ENDBRANCH   9  10
ENDBRANCH   8   9
ENDBRANCH   5   8
ENDBRANCH   1   2
BRANCH   1  19
ATOM     17  O   UNL     1      44.598   7.324  12.060  0.00  0.00    +0.000 OA
ATOM     18  C   UNL     1      45.336   6.373  11.815  0.00  0.00    +0.000 C 
ATOM     19  N   UNL     1      46.703   6.470  11.908  0.00  0.00    +0.000 N 
ATOM     20  H   UNL     1      47.281   5.742  11.500  0.00  0.00    +0.000 HD
BRANCH  18  21
ATOM     21  C   UNL     1      44.791   5.060  11.451  0.00  0.00    +0.000 A 
ATOM     22  C   UNL     1      43.984   4.372  12.347  0.00  0.00    +0.000 A 
ATOM     23  S   UNL     1      43.445   2.864  11.760  0.00  0.00    +0.000 S 
ATOM     24  C   UNL     1      44.231   3.101  10.269  0.00  0.00    +0.000 A 
ATOM     25  N   UNL     1      44.140   2.178   9.275  0.00  0.00    +0.000 NA
ATOM     26  C   UNL     1      44.755   2.504   8.187  0.00  0.00    +0.000 A 
ATOM     27  N   UNL     1      45.462   3.667   8.006  0.00  0.00    +0.000 N 
ATOM     28  C   UNL     1      45.613   4.608   8.996  0.00  0.00    +0.000 A 
ATOM     29  O   UNL     1      46.302   5.607   8.824  0.00  0.00    +0.000 OA
ATOM     30  C   UNL     1      44.919   4.301  10.232  0.00  0.00    +0.000 A 
ATOM     31  H   UNL     1      45.935   3.854   7.138  0.00  0.00    +0.000 HD
ENDBRANCH  18  21
ENDBRANCH   1  19
TORSDOF 7
ENDMDL
MODEL 7
REMARK VINA RESULT:    -7.103      2.787      3.690
REMARK INTER + INTRA:         -11.051
REMARK INTER:                 -10.056
REMARK INTRA:                  -0.996
REMARK UNBOUND:                -1.042
REMARK  Name = 
REMARK  7 active torsions:
REMARK  status: ('A' for Active; 'I' for Inactive)
REMARK    1  A    between atoms: C_2  and  C_20
REMARK    2  A    between atoms: N_3  and  C_4
REMARK    3  A    between atoms: C_4  and  C_5
REMARK    4  A    between atoms: C_8  and  C_9
REMARK    5  A    between atoms: C_9  and  C_10
REMARK    6  A    between atoms: C_10  and  S_11
REMARK    7  A    between atoms: S_11  and  C_12
REMARK                            x       y       z     vdW  Elec       q    Type
REMARK                         _______ _______ _______ _____ _____    ______ ____
ROOT
ATOM      1  C   UNL     1      49.550   6.845  16.414  0.00  0.00    +0.000 C 
ENDROOT
BRANCH   1   2
ATOM      2  C   UNL     1      48.566   6.178  15.488  0.00  0.00    +0.000 A 
ATOM      3  C   UNL     1      48.369   6.664  14.189  0.00  0.00    +0.000 A 
ATOM      4  C   UNL     1      47.482   6.026  13.315  0.00  0.00    +0.000 A 
ATOM      5  C   UNL     1      46.771   4.888  13.720  0.00  0.00    +0.000 A 
ATOM      6  C   UNL     1      46.940   4.429  15.033  0.00  0.00    +0.000 A 
ATOM      7  C   UNL     1      47.822   5.070  15.909  0.00  0.00    +0.000 A 
BRANCH   5   8
ATOM      8  C   UNL     1      45.810   4.189  12.780  0.00  0.00    +0.000 C 
BRANCH   8   9
ATOM      9  C   UNL     1      45.051   5.160  11.868  0.00  0.00    +0.000 C 
BRANCH   9  10
ATOM     10  S   UNL     1      43.822   4.252  10.857  0.00  0.00    +0.000 S 
BRANCH  10  11
ATOM     11  C   UNL     1      44.827   3.554   9.550  0.00  0.00    +0.000 A 
ATOM     12  C   UNL     1      45.440   4.434   8.657  0.00  0.00    +0.000 A 
ATOM     13  C   UNL     1      46.245   3.914   7.655  0.00  0.00    +0.000 A 
ATOM     14  N   UNL     1      46.481   2.596   7.492  0.00  0.00    +0.000 NA
ATOM     15  C   UNL     1      45.891   1.765   8.374  0.00  0.00    +0.000 A 
ATOM     16  C   UNL     1      45.071   2.189   9.409  0.00  0.00    +0.000 A 
ENDBRANCH  10  11
ENDBRANCH   9  10
ENDBRANCH   8   9
ENDBRANCH   5   8
ENDBRANCH   1   2
BRANCH   1  19
ATOM     17  O   UNL     1      50.028   6.020  19.009  0.00  0.00    +0.000 OA
ATOM     18  C   UNL     1      50.729   5.550  18.116  0.00  0.00    +0.000 C 
ATOM     19  N   UNL     1      50.612   5.956  16.809  0.00  0.00    +0.000 N 
ATOM     20  H   UNL     1      51.048   5.405  16.077  0.00  0.00    +0.000 HD
BRANCH  18  21
ATOM     21  C   UNL     1      51.766   4.554  18.406  0.00  0.00    +0.000 A 
ATOM     22  C   UNL     1      52.866   4.904  19.176  0.00  0.00    +0.000 A 
ATOM     23  S   UNL     1      53.971   3.624  19.409  0.00  0.00    +0.000 S 
ATOM     24  C   UNL     1      52.991   2.546  18.529  0.00  0.00    +0.000 A 
ATOM     25  N   UNL     1      53.348   1.243  18.376  0.00  0.00    +0.000 NA
ATOM     26  C   UNL     1      52.494   0.531  17.718  0.00  0.00    +0.000 A 
ATOM     27  N   UNL     1      51.319   1.006  17.192  0.00  0.00    +0.000 N 
ATOM     28  C   UNL     1      50.938   2.323  17.289  0.00  0.00    +0.000 A 
ATOM     29  O   UNL     1      49.913   2.731  16.755  0.00  0.00    +0.000 OA
ATOM     30  C   UNL     1      51.852   3.161  18.042  0.00  0.00    +0.000 A 
ATOM     31  H   UNL     1      50.703   0.402  16.673  0.00  0.00    +0.000 HD
ENDBRANCH  18  21
ENDBRANCH   1  19
TORSDOF 7
ENDMDL
MODEL 8
REMARK VINA RESULT:    -6.917      4.011      8.796
REMARK INTER + INTRA:         -10.789
REMARK INTER:                  -9.655
REMARK INTRA:                  -1.134
REMARK UNBOUND:                -1.042
REMARK  Name = 
REMARK  7 active torsions:
REMARK  status: ('A' for Active; 'I' for Inactive)
REMARK    1  A    between atoms: C_2  and  C_20
REMARK    2  A    between atoms: N_3  and  C_4
REMARK    3  A    between atoms: C_4  and  C_5
REMARK    4  A    between atoms: C_8  and  C_9
REMARK    5  A    between atoms: C_9  and  C_10
REMARK    6  A    between atoms: C_10  and  S_11
REMARK    7  A    between atoms: S_11  and  C_12
REMARK                            x       y       z     vdW  Elec       q    Type
REMARK                         _______ _______ _______ _____ _____    ______ ____
ROOT
ATOM      1  C   UNL     1      47.171   3.389  16.792  0.00  0.00    +0.000 C 
ENDROOT
BRANCH   1   2
ATOM      2  C   UNL     1      48.640   3.383  17.128  0.00  0.00    +0.000 A 
ATOM      3  C   UNL     1      49.409   2.228  16.936  0.00  0.00    +0.000 A 
ATOM      4  C   UNL     1      50.781   2.230  17.214  0.00  0.00    +0.000 A 
ATOM      5  C   UNL     1      51.414   3.386  17.692  0.00  0.00    +0.000 A 
ATOM      6  C   UNL     1      50.634   4.527  17.921  0.00  0.00    +0.000 A 
ATOM      7  C   UNL     1      49.261   4.524  17.648  0.00  0.00    +0.000 A 
BRANCH   5   8
ATOM      8  C   UNL     1      52.898   3.398  17.994  0.00  0.00    +0.000 C 
BRANCH   8   9
ATOM      9  C   UNL     1      53.469   4.814  18.139  0.00  0.00    +0.000 C 
BRANCH   9  10
ATOM     10  S   UNL     1      54.786   5.098  16.898  0.00  0.00    +0.000 S 
BRANCH  10  11
ATOM     11  C   UNL     1      54.046   6.313  15.810  0.00  0.00    +0.000 A 
ATOM     12  C   UNL     1      52.765   6.772  16.120  0.00  0.00    +0.000 A 
ATOM     13  C   UNL     1      52.187   7.734  15.305  0.00  0.00    +0.000 A 
ATOM     14  N   UNL     1      52.794   8.263  14.224  0.00  0.00    +0.000 NA
ATOM     15  C   UNL     1      54.037   7.817  13.952  0.00  0.00    +0.000 A 
ATOM     16  C   UNL     1      54.698   6.860  14.706  0.00  0.00    +0.000 A 
ENDBRANCH  10  11
ENDBRANCH   9  10
ENDBRANCH   8   9
ENDBRANCH   5   8
ENDBRANCH   1   2
BRANCH   1  19
ATOM     17  O   UNL     1      47.220   3.100  14.043  0.00  0.00    +0.000 OA
ATOM     18  C   UNL     1      46.823   4.168  14.503  0.00  0.00    +0.000 C 
ATOM     19  N   UNL     1      46.834   4.428  15.852  0.00  0.00    +0.000 N 
ATOM     20  H   UNL     1      46.311   5.220  16.209  0.00  0.00    +0.000 HD
BRANCH  18  21
ATOM     21  C   UNL     1      46.355   5.248  13.628  0.00  0.00    +0.000 A 
ATOM     22  C   UNL     1      47.186   6.325  13.351  0.00  0.00    +0.000 A 
ATOM     23  S   UNL     1      46.477   7.486  12.321  0.00  0.00    +0.000 S 
ATOM     24  C   UNL     1      45.054   6.565  12.171  0.00  0.00    +0.000 A 
ATOM     25  N   UNL     1      44.030   6.983  11.381  0.00  0.00    +0.000 NA
ATOM     26  C   UNL     1      43.028   6.169  11.331  0.00  0.00    +0.000 A 
ATOM     27  N   UNL     1      42.955   4.977  12.008  0.00  0.00    +0.000 N 
ATOM     28  C   UNL     1      43.948   4.535  12.848  0.00  0.00    +0.000 A 
ATOM     29  O   UNL     1      43.826   3.496  13.487  0.00  0.00    +0.000 OA
ATOM     30  C   UNL     1      45.109   5.402  12.919  0.00  0.00    +0.000 A 
ATOM     31  H   UNL     1      42.136   4.395  11.941  0.00  0.00    +0.000 HD
ENDBRANCH  18  21
ENDBRANCH   1  19
TORSDOF 7
ENDMDL
MODEL 9
REMARK VINA RESULT:    -6.878      4.882      9.377
REMARK INTER + INTRA:         -10.734
REMARK INTER:                  -9.950
REMARK INTRA:                  -0.784
REMARK UNBOUND:                -1.042
REMARK  Name = 
REMARK  7 active torsions:
REMARK  status: ('A' for Active; 'I' for Inactive)
REMARK    1  A    between atoms: C_2  and  C_20
REMARK    2  A    between atoms: N_3  and  C_4
REMARK    3  A    between atoms: C_4  and  C_5
REMARK    4  A    between atoms: C_8  and  C_9
REMARK    5  A    between atoms: C_9  and  C_10
REMARK    6  A    between atoms: C_10  and  S_11
REMARK    7  A    between atoms: S_11  and  C_12
REMARK                            x       y       z     vdW  Elec       q    Type
REMARK                         _______ _______ _______ _____ _____    ______ ____
ROOT
ATOM      1  C   UNL     1      47.267   3.387  16.736  0.00  0.00    +0.000 C 
ENDROOT
BRANCH   1   2
ATOM      2  C   UNL     1      48.740   3.393  17.048  0.00  0.00    +0.000 A 
ATOM      3  C   UNL     1      49.389   4.583  17.402  0.00  0.00    +0.000 A 
ATOM      4  C   UNL     1      50.750   4.585  17.727  0.00  0.00    +0.000 A 
ATOM      5  C   UNL     1      51.494   3.398  17.702  0.00  0.00    +0.000 A 
ATOM      6  C   UNL     1      50.853   2.217  17.308  0.00  0.00    +0.000 A 
ATOM      7  C   UNL     1      49.493   2.215  16.978  0.00  0.00    +0.000 A 
BRANCH   5   8
ATOM      8  C   UNL     1      52.968   3.390  18.053  0.00  0.00    +0.000 C 
BRANCH   8   9
ATOM      9  C   UNL     1      53.496   1.991  18.391  0.00  0.00    +0.000 C 
BRANCH   9  10
ATOM     10  S   UNL     1      54.697   1.442  17.121  0.00  0.00    +0.000 S 
BRANCH  10  11
ATOM     11  C   UNL     1      54.692  -0.338  17.318  0.00  0.00    +0.000 A 
ATOM     12  C   UNL     1      55.077  -1.117  16.226  0.00  0.00    +0.000 A 
ATOM     13  C   UNL     1      55.107  -2.496  16.368  0.00  0.00    +0.000 A 
ATOM     14  N   UNL     1      54.789  -3.138  17.510  0.00  0.00    +0.000 NA
ATOM     15  C   UNL     1      54.435  -2.366  18.557  0.00  0.00    +0.000 A 
ATOM     16  C   UNL     1      54.376  -0.982  18.513  0.00  0.00    +0.000 A 
ENDBRANCH  10  11
ENDBRANCH   9  10
ENDBRANCH   8   9
ENDBRANCH   5   8
ENDBRANCH   1   2
BRANCH   1  19
ATOM     17  O   UNL     1      47.162   3.027  13.997  0.00  0.00    +0.000 OA
ATOM     18  C   UNL     1      46.820   4.117  14.449  0.00  0.00    +0.000 C 
ATOM     19  N   UNL     1      46.909   4.411  15.788  0.00  0.00    +0.000 N 
ATOM     20  H   UNL     1      46.427   5.227  16.151  0.00  0.00    +0.000 HD
BRANCH  18  21
ATOM     21  C   UNL     1      46.335   5.188  13.570  0.00  0.00    +0.000 A 
ATOM     22  C   UNL     1      47.172   6.245  13.240  0.00  0.00    +0.000 A 
ATOM     23  S   UNL     1      46.443   7.397  12.215  0.00  0.00    +0.000 S 
ATOM     24  C   UNL     1      45.001   6.498  12.138  0.00  0.00    +0.000 A 
ATOM     25  N   UNL     1      43.953   6.918  11.380  0.00  0.00    +0.000 NA
ATOM     26  C   UNL     1      42.937   6.120  11.385  0.00  0.00    +0.000 A 
ATOM     27  N   UNL     1      42.870   4.943  12.089  0.00  0.00    +0.000 N 
ATOM     28  C   UNL     1      43.889   4.501  12.898  0.00  0.00    +0.000 A 
ATOM     29  O   UNL     1      43.775   3.477  13.563  0.00  0.00    +0.000 OA
ATOM     30  C   UNL     1      45.065   5.349  12.907  0.00  0.00    +0.000 A 
ATOM     31  H   UNL     1      42.041   4.374  12.066  0.00  0.00    +0.000 HD
ENDBRANCH  18  21
ENDBRANCH   1  19
TORSDOF 7
ENDMDL
