MODEL 1
REMARK VINA RESULT:    -7.989      0.000      0.000
REMARK INTER + INTRA:         -12.904
REMARK INTER:                 -11.725
REMARK INTRA:                  -1.179
REMARK UNBOUND:                -1.179
REMARK  Name = 
REMARK  9 active torsions:
REMARK  status: ('A' for Active; 'I' for Inactive)
REMARK    1  A    between atoms: C_1  and  O_2
REMARK    2  A    between atoms: O_2  and  C_3
REMARK    3  A    between atoms: C_10  and  C_11
REMARK    4  A    between atoms: N_13  and  C_14
REMARK    5  A    between atoms: C_14  and  C_15
REMARK    6  A    between atoms: C_18  and  C_19
REMARK    7  A    between atoms: C_19  and  N_20
REMARK    8  A    between atoms: N_20  and  C_21
REMARK    9  A    between atoms: C_21  and  C_22
REMARK                            x       y       z     vdW  Elec       q    Type
REMARK                         _______ _______ _______ _____ _____    ______ ____
ROOT
ATOM      1  C   UNL     1      48.285   6.644  13.570  0.00  0.00    +0.000 C 
ENDROOT
BRANCH   1   2
ATOM      2  C   UNL     1      47.067   6.109  12.857  0.00  0.00    +0.000 A 
ATOM      3  C   UNL     1      46.560   6.771  11.734  0.00  0.00    +0.000 A 
ATOM      4  C   UNL     1      45.500   6.228  10.999  0.00  0.00    +0.000 A 
ATOM      5  C   UNL     1      44.919   5.003  11.357  0.00  0.00    +0.000 A 
ATOM      6  C   UNL     1      45.368   4.386  12.537  0.00  0.00    +0.000 A 
ATOM      7  C   UNL     1      46.429   4.934  13.278  0.00  0.00    +0.000 A 
BRANCH   5   8
ATOM      8  C   UNL     1      43.811   4.378  10.524  0.00  0.00    +0.000 C 
BRANCH   8   9
ATOM      9  N   UNL     1      44.328   3.367   9.592  0.00  0.00    +0.000 NA
ATOM     10  H   UNL     1      43.575   2.710   9.384  0.00  0.00    +0.000 HD
BRANCH   9  11
ATOM     11  C   UNL     1      44.843   3.938   8.345  0.00  0.00    +0.000 C 
BRANCH  11  12
ATOM     12  C   UNL     1      45.618   2.866   7.546  0.00  0.00    +0.000 C 
ATOM     13  C   UNL     1      46.030   1.662   8.412  0.00  0.00    +0.000 C 
ATOM     14  C   UNL     1      46.859   0.673   7.599  0.00  0.00    +0.000 C 
ATOM     15  O   UNL     1      48.006   1.311   7.038  0.00  0.00    +0.000 OA
ATOM     16  C   UNL     1      47.652   2.369   6.150  0.00  0.00    +0.000 C 
ATOM     17  C   UNL     1      46.877   3.456   6.888  0.00  0.00    +0.000 C 
ENDBRANCH  11  12
ENDBRANCH   9  11
ENDBRANCH   8   9
ENDBRANCH   5   8
ENDBRANCH   1   2
BRANCH   1  20
ATOM     18  C   UNL     1      48.981   7.351  15.816  0.00  0.00    +0.000 C 
ATOM     19  O   UNL     1      49.907   8.013  15.348  0.00  0.00    +0.000 OA
ATOM     20  N   UNL     1      48.137   6.640  15.003  0.00  0.00    +0.000 N 
ATOM     21  H   UNL     1      47.330   6.176  15.391  0.00  0.00    +0.000 HD
BRANCH  18  29
ATOM     22  C   UNL     1      48.857   4.734  18.035  0.00  0.00    +0.000 A 
ATOM     23  N   UNL     1      48.882   3.921  19.110  0.00  0.00    +0.000 NA
ATOM     24  C   UNL     1      48.770   4.478  20.320  0.00  0.00    +0.000 A 
ATOM     25  N   UNL     1      48.614   5.768  20.598  0.00  0.00    +0.000 NA
ATOM     26  C   UNL     1      48.608   6.543  19.501  0.00  0.00    +0.000 A 
ATOM     27  S   UNL     1      48.395   8.221  19.659  0.00  0.00    +0.000 S 
ATOM     28  C   UNL     1      48.536   8.445  17.980  0.00  0.00    +0.000 A 
ATOM     29  C   UNL     1      48.761   7.270  17.271  0.00  0.00    +0.000 A 
ATOM     30  C   UNL     1      48.751   6.128  18.181  0.00  0.00    +0.000 A 
BRANCH  22  32
ATOM     31  C   UNL     1      47.819   3.295  16.484  0.00  0.00    +0.000 C 
ATOM     32  O   UNL     1      48.904   4.169  16.777  0.00  0.00    +0.000 OA
ENDBRANCH  22  32
ENDBRANCH  18  29
ENDBRANCH   1  20
TORSDOF 8
ENDMDL
MODEL 2
REMARK VINA RESULT:    -7.751      1.766      2.409
REMARK INTER + INTRA:         -12.555
REMARK INTER:                 -11.415
REMARK INTRA:                  -1.140
REMARK UNBOUND:                -1.179
REMARK  Name = 
REMARK  9 active torsions:
REMARK  status: ('A' for Active; 'I' for Inactive)
REMARK    1  A    between atoms: C_1  and  O_2
REMARK    2  A    between atoms: O_2  and  C_3
REMARK    3  A    between atoms: C_10  and  C_11
REMARK    4  A    between atoms: N_13  and  C_14
REMARK    5  A    between atoms: C_14  and  C_15
REMARK    6  A    between atoms: C_18  and  C_19
REMARK    7  A    between atoms: C_19  and  N_20
REMARK    8  A    between atoms: N_20  and  C_21
REMARK    9  A    between atoms: C_21  and  C_22
REMARK                            x       y       z     vdW  Elec       q    Type
REMARK                         _______ _______ _______ _____ _____    ______ ____
ROOT
ATOM      1  C   UNL     1      47.461   3.260  14.828  0.00  0.00    +0.000 C 
ENDROOT
BRANCH   1   2
ATOM      2  C   UNL     1      46.779   3.940  13.667  0.00  0.00    +0.000 A 
ATOM      3  C   UNL     1      47.120   5.252  13.319  0.00  0.00    +0.000 A 
ATOM      4  C   UNL     1      46.575   5.856  12.180  0.00  0.00    +0.000 A 
ATOM      5  C   UNL     1      45.682   5.166  11.347  0.00  0.00    +0.000 A 
ATOM      6  C   UNL     1      45.272   3.883  11.747  0.00  0.00    +0.000 A 
ATOM      7  C   UNL     1      45.814   3.279  12.894  0.00  0.00    +0.000 A 
BRANCH   5   8
ATOM      8  C   UNL     1      45.139   5.796  10.073  0.00  0.00    +0.000 C 
BRANCH   8   9
ATOM      9  N   UNL     1      45.624   5.105   8.870  0.00  0.00    +0.000 NA
ATOM     10  H   UNL     1      46.560   4.748   9.064  0.00  0.00    +0.000 HD
BRANCH   9  11
ATOM     11  C   UNL     1      44.755   4.007   8.443  0.00  0.00    +0.000 C 
BRANCH  11  12
ATOM     12  C   UNL     1      45.566   2.965   7.640  0.00  0.00    +0.000 C 
ATOM     13  C   UNL     1      45.960   1.741   8.484  0.00  0.00    +0.000 C 
ATOM     14  C   UNL     1      46.825   0.782   7.672  0.00  0.00    +0.000 C 
ATOM     15  O   UNL     1      47.984   1.445   7.167  0.00  0.00    +0.000 OA
ATOM     16  C   UNL     1      47.650   2.526   6.299  0.00  0.00    +0.000 C 
ATOM     17  C   UNL     1      46.842   3.584   7.041  0.00  0.00    +0.000 C 
ENDBRANCH  11  12
ENDBRANCH   9  11
ENDBRANCH   8   9
ENDBRANCH   5   8
ENDBRANCH   1   2
BRANCH   1  20
ATOM     18  C   UNL     1      47.354   4.117  17.127  0.00  0.00    +0.000 C 
ATOM     19  O   UNL     1      46.518   3.267  17.432  0.00  0.00    +0.000 OA
ATOM     20  N   UNL     1      47.865   4.184  15.856  0.00  0.00    +0.000 N 
ATOM     21  H   UNL     1      48.614   4.826  15.643  0.00  0.00    +0.000 HD
BRANCH  18  29
ATOM     22  C   UNL     1      50.461   5.263  18.033  0.00  0.00    +0.000 A 
ATOM     23  N   UNL     1      51.526   5.961  18.478  0.00  0.00    +0.000 NA
ATOM     24  C   UNL     1      51.305   6.961  19.337  0.00  0.00    +0.000 A 
ATOM     25  N   UNL     1      50.136   7.350  19.832  0.00  0.00    +0.000 NA
ATOM     26  C   UNL     1      49.102   6.639  19.353  0.00  0.00    +0.000 A 
ATOM     27  S   UNL     1      47.527   6.979  19.893  0.00  0.00    +0.000 S 
ATOM     28  C   UNL     1      46.870   5.784  18.878  0.00  0.00    +0.000 A 
ATOM     29  C   UNL     1      47.816   5.119  18.105  0.00  0.00    +0.000 A 
ATOM     30  C   UNL     1      49.155   5.598  18.431  0.00  0.00    +0.000 A 
BRANCH  22  32
ATOM     31  C   UNL     1      51.681   3.283  17.653  0.00  0.00    +0.000 C 
ATOM     32  O   UNL     1      50.678   4.186  17.199  0.00  0.00    +0.000 OA
ENDBRANCH  22  32
ENDBRANCH  18  29
ENDBRANCH   1  20
TORSDOF 8
ENDMDL
MODEL 3
REMARK VINA RESULT:    -7.640      1.875      3.486
REMARK INTER + INTRA:         -12.392
REMARK INTER:                 -10.996
REMARK INTRA:                  -1.396
REMARK UNBOUND:                -1.179
REMARK  Name = 
REMARK  9 active torsions:
REMARK  status: ('A' for Active; 'I' for Inactive)
REMARK    1  A    between atoms: C_1  and  O_2
REMARK    2  A    between atoms: O_2  and  C_3
REMARK    3  A    between atoms: C_10  and  C_11
REMARK    4  A    between atoms: N_13  and  C_14
REMARK    5  A    between atoms: C_14  and  C_15
REMARK    6  A    between atoms: C_18  and  C_19
REMARK    7  A    between atoms: C_19  and  N_20
REMARK    8  A    between atoms: N_20  and  C_21
REMARK    9  A    between atoms: C_21  and  C_22
REMARK                            x       y       z     vdW  Elec       q    Type
REMARK                         _______ _______ _______ _____ _____    ______ ____
ROOT
ATOM      1  C   UNL     1      47.234   4.474  14.970  0.00  0.00    +0.000 C 
ENDROOT
BRANCH   1   2
ATOM      2  C   UNL     1      46.425   4.507  13.696  0.00  0.00    +0.000 A 
ATOM      3  C   UNL     1      46.029   3.314  13.082  0.00  0.00    +0.000 A 
ATOM      4  C   UNL     1      45.188   3.329  11.963  0.00  0.00    +0.000 A 
ATOM      5  C   UNL     1      44.710   4.534  11.429  0.00  0.00    +0.000 A 
ATOM      6  C   UNL     1      45.182   5.732  11.989  0.00  0.00    +0.000 A 
ATOM      7  C   UNL     1      46.031   5.718  13.110  0.00  0.00    +0.000 A 
BRANCH   5   8
ATOM      8  C   UNL     1      43.745   4.551  10.253  0.00  0.00    +0.000 C 
BRANCH   8   9
ATOM      9  N   UNL     1      44.136   3.596   9.208  0.00  0.00    +0.000 NA
ATOM     10  H   UNL     1      43.294   3.315   8.703  0.00  0.00    +0.000 HD
BRANCH   9  11
ATOM     11  C   UNL     1      45.118   4.137   8.266  0.00  0.00    +0.000 C 
BRANCH  11  12
ATOM     12  C   UNL     1      45.809   2.989   7.496  0.00  0.00    +0.000 C 
ATOM     13  C   UNL     1      46.048   1.746   8.370  0.00  0.00    +0.000 C 
ATOM     14  C   UNL     1      46.801   0.675   7.590  0.00  0.00    +0.000 C 
ATOM     15  O   UNL     1      48.035   1.186   7.085  0.00  0.00    +0.000 OA
ATOM     16  C   UNL     1      47.839   2.278   6.190  0.00  0.00    +0.000 C 
ATOM     17  C   UNL     1      47.153   3.441   6.900  0.00  0.00    +0.000 C 
ENDBRANCH  11  12
ENDBRANCH   9  11
ENDBRANCH   8   9
ENDBRANCH   5   8
ENDBRANCH   1   2
BRANCH   1  20
ATOM     18  C   UNL     1      48.747   5.966  16.201  0.00  0.00    +0.000 C 
ATOM     19  O   UNL     1      49.411   5.007  16.596  0.00  0.00    +0.000 OA
ATOM     20  N   UNL     1      47.650   5.785  15.399  0.00  0.00    +0.000 N 
ATOM     21  H   UNL     1      47.168   6.581  15.010  0.00  0.00    +0.000 HD
BRANCH  18  29
ATOM     22  C   UNL     1      48.814   8.956  14.516  0.00  0.00    +0.000 A 
ATOM     23  N   UNL     1      48.805  10.249  14.133  0.00  0.00    +0.000 NA
ATOM     24  C   UNL     1      49.073  11.177  15.056  0.00  0.00    +0.000 A 
ATOM     25  N   UNL     1      49.374  10.975  16.334  0.00  0.00    +0.000 NA
ATOM     26  C   UNL     1      49.358   9.677  16.676  0.00  0.00    +0.000 A 
ATOM     27  S   UNL     1      49.742   9.223  18.268  0.00  0.00    +0.000 S 
ATOM     28  C   UNL     1      49.478   7.581  17.914  0.00  0.00    +0.000 A 
ATOM     29  C   UNL     1      49.083   7.344  16.602  0.00  0.00    +0.000 A 
ATOM     30  C   UNL     1      49.064   8.596  15.851  0.00  0.00    +0.000 A 
BRANCH  22  32
ATOM     31  C   UNL     1      49.763   7.642  12.805  0.00  0.00    +0.000 C 
ATOM     32  O   UNL     1      48.606   7.982  13.561  0.00  0.00    +0.000 OA
ENDBRANCH  22  32
ENDBRANCH  18  29
ENDBRANCH   1  20
TORSDOF 8
ENDMDL
MODEL 4
REMARK VINA RESULT:    -7.494      1.469      2.827
REMARK INTER + INTRA:         -12.177
REMARK INTER:                 -10.918
REMARK INTRA:                  -1.260
REMARK UNBOUND:                -1.179
REMARK  Name = 
REMARK  9 active torsions:
REMARK  status: ('A' for Active; 'I' for Inactive)
REMARK    1  A    between atoms: C_1  and  O_2
REMARK    2  A    between atoms: O_2  and  C_3
REMARK    3  A    between atoms: C_10  and  C_11
REMARK    4  A    between atoms: N_13  and  C_14
REMARK    5  A    between atoms: C_14  and  C_15
REMARK    6  A    between atoms: C_18  and  C_19
REMARK    7  A    between atoms: C_19  and  N_20
REMARK    8  A    between atoms: N_20  and  C_21
REMARK    9  A    between atoms: C_21  and  C_22
REMARK                            x       y       z     vdW  Elec       q    Type
REMARK                         _______ _______ _______ _____ _____    ______ ____
ROOT
ATOM      1  C   UNL     1      47.154   4.102  15.064  0.00  0.00    +0.000 C 
ENDROOT
BRANCH   1   2
ATOM      2  C   UNL     1      46.572   4.611  13.769  0.00  0.00    +0.000 A 
ATOM      3  C   UNL     1      47.142   5.713  13.123  0.00  0.00    +0.000 A 
ATOM      4  C   UNL     1      46.681   6.127  11.868  0.00  0.00    +0.000 A 
ATOM      5  C   UNL     1      45.642   5.448  11.215  0.00  0.00    +0.000 A 
ATOM      6  C   UNL     1      45.010   4.400  11.904  0.00  0.00    +0.000 A 
ATOM      7  C   UNL     1      45.469   3.987  13.167  0.00  0.00    +0.000 A 
BRANCH   5   8
ATOM      8  C   UNL     1      45.182   5.855   9.824  0.00  0.00    +0.000 C 
BRANCH   8   9
ATOM      9  N   UNL     1      45.776   5.009   8.780  0.00  0.00    +0.000 NA
ATOM     10  H   UNL     1      46.635   4.601   9.151  0.00  0.00    +0.000 HD
BRANCH   9  11
ATOM     11  C   UNL     1      44.883   3.944   8.319  0.00  0.00    +0.000 C 
BRANCH  11  12
ATOM     12  C   UNL     1      45.676   2.895   7.508  0.00  0.00    +0.000 C 
ATOM     13  C   UNL     1      46.034   1.649   8.336  0.00  0.00    +0.000 C 
ATOM     14  C   UNL     1      46.883   0.682   7.517  0.00  0.00    +0.000 C 
ATOM     15  O   UNL     1      48.061   1.325   7.032  0.00  0.00    +0.000 OA
ATOM     16  C   UNL     1      47.761   2.426   6.177  0.00  0.00    +0.000 C 
ATOM     17  C   UNL     1      46.971   3.492   6.929  0.00  0.00    +0.000 C 
ENDBRANCH  11  12
ENDBRANCH   9  11
ENDBRANCH   8   9
ENDBRANCH   5   8
ENDBRANCH   1   2
BRANCH   1  20
ATOM     18  C   UNL     1      48.494   5.143  16.840  0.00  0.00    +0.000 C 
ATOM     19  O   UNL     1      49.308   4.220  16.801  0.00  0.00    +0.000 OA
ATOM     20  N   UNL     1      47.397   5.155  16.017  0.00  0.00    +0.000 N 
ATOM     21  H   UNL     1      46.787   5.958  15.995  0.00  0.00    +0.000 HD
BRANCH  18  29
ATOM     22  C   UNL     1      48.523   8.558  16.488  0.00  0.00    +0.000 A 
ATOM     23  N   UNL     1      48.450   9.895  16.643  0.00  0.00    +0.000 NA
ATOM     24  C   UNL     1      48.504  10.386  17.885  0.00  0.00    +0.000 A 
ATOM     25  N   UNL     1      48.643   9.699  19.014  0.00  0.00    +0.000 NA
ATOM     26  C   UNL     1      48.697   8.372  18.816  0.00  0.00    +0.000 A 
ATOM     27  S   UNL     1      48.897   7.331  20.144  0.00  0.00    +0.000 S 
ATOM     28  C   UNL     1      48.834   5.960  19.140  0.00  0.00    +0.000 A 
ATOM     29  C   UNL     1      48.646   6.255  17.794  0.00  0.00    +0.000 A 
ATOM     30  C   UNL     1      48.618   7.702  17.599  0.00  0.00    +0.000 A 
BRANCH  22  32
ATOM     31  C   UNL     1      49.837   7.895  14.647  0.00  0.00    +0.000 C 
ATOM     32  O   UNL     1      48.537   8.040  15.209  0.00  0.00    +0.000 OA
ENDBRANCH  22  32
ENDBRANCH  18  29
ENDBRANCH   1  20
TORSDOF 8
ENDMDL
MODEL 5
REMARK VINA RESULT:    -7.482      1.649      2.508
REMARK INTER + INTRA:         -12.161
REMARK INTER:                 -11.089
REMARK INTRA:                  -1.072
REMARK UNBOUND:                -1.179
REMARK  Name = 
REMARK  9 active torsions:
REMARK  status: ('A' for Active; 'I' for Inactive)
REMARK    1  A    between atoms: C_1  and  O_2
REMARK    2  A    between atoms: O_2  and  C_3
REMARK    3  A    between atoms: C_10  and  C_11
REMARK    4  A    between atoms: N_13  and  C_14
REMARK    5  A    between atoms: C_14  and  C_15
REMARK    6  A    between atoms: C_18  and  C_19
REMARK    7  A    between atoms: C_19  and  N_20
REMARK    8  A    between atoms: N_20  and  C_21
REMARK    9  A    between atoms: C_21  and  C_22
REMARK                            x       y       z     vdW  Elec       q    Type
REMARK                         _______ _______ _______ _____ _____    ______ ____
ROOT
ATOM      1  C   UNL     1      47.180   4.347  15.026  0.00  0.00    +0.000 C 
ENDROOT
BRANCH   1   2
ATOM      2  C   UNL     1      46.383   4.423  13.747  0.00  0.00    +0.000 A 
ATOM      3  C   UNL     1      46.080   3.258  13.034  0.00  0.00    +0.000 A 
ATOM      4  C   UNL     1      45.250   3.303  11.908  0.00  0.00    +0.000 A 
ATOM      5  C   UNL     1      44.690   4.509  11.465  0.00  0.00    +0.000 A 
ATOM      6  C   UNL     1      45.068   5.689  12.126  0.00  0.00    +0.000 A 
ATOM      7  C   UNL     1      45.906   5.646  13.254  0.00  0.00    +0.000 A 
BRANCH   5   8
ATOM      8  C   UNL     1      43.736   4.552  10.280  0.00  0.00    +0.000 C 
BRANCH   8   9
ATOM      9  N   UNL     1      44.118   3.595   9.233  0.00  0.00    +0.000 NA
ATOM     10  H   UNL     1      43.274   3.321   8.728  0.00  0.00    +0.000 HD
BRANCH   9  11
ATOM     11  C   UNL     1      45.104   4.129   8.292  0.00  0.00    +0.000 C 
BRANCH  11  12
ATOM     12  C   UNL     1      45.758   2.979   7.493  0.00  0.00    +0.000 C 
ATOM     13  C   UNL     1      46.115   1.770   8.376  0.00  0.00    +0.000 C 
ATOM     14  C   UNL     1      46.828   0.698   7.559  0.00  0.00    +0.000 C 
ATOM     15  O   UNL     1      47.995   1.230   6.931  0.00  0.00    +0.000 OA
ATOM     16  C   UNL     1      47.684   2.288   6.027  0.00  0.00    +0.000 C 
ATOM     17  C   UNL     1      47.029   3.451   6.765  0.00  0.00    +0.000 C 
ENDBRANCH  11  12
ENDBRANCH   9  11
ENDBRANCH   8   9
ENDBRANCH   5   8
ENDBRANCH   1   2
BRANCH   1  20
ATOM     18  C   UNL     1      48.662   5.828  16.307  0.00  0.00    +0.000 C 
ATOM     19  O   UNL     1      49.391   4.883  16.605  0.00  0.00    +0.000 OA
ATOM     20  N   UNL     1      47.544   5.644  15.534  0.00  0.00    +0.000 N 
ATOM     21  H   UNL     1      47.005   6.438  15.222  0.00  0.00    +0.000 HD
BRANCH  18  29
ATOM     22  C   UNL     1      48.176   7.393  19.324  0.00  0.00    +0.000 A 
ATOM     23  N   UNL     1      48.211   8.189  20.411  0.00  0.00    +0.000 NA
ATOM     24  C   UNL     1      48.774   9.395  20.287  0.00  0.00    +0.000 A 
ATOM     25  N   UNL     1      49.302   9.925  19.189  0.00  0.00    +0.000 NA
ATOM     26  C   UNL     1      49.260   9.095  18.135  0.00  0.00    +0.000 A 
ATOM     27  S   UNL     1      49.868   9.611  16.635  0.00  0.00    +0.000 S 
ATOM     28  C   UNL     1      49.508   8.111  15.920  0.00  0.00    +0.000 A 
ATOM     29  C   UNL     1      48.941   7.191  16.794  0.00  0.00    +0.000 A 
ATOM     30  C   UNL     1      48.746   7.802  18.105  0.00  0.00    +0.000 A 
BRANCH  22  32
ATOM     31  C   UNL     1      48.331   5.138  19.990  0.00  0.00    +0.000 C 
ATOM     32  O   UNL     1      47.539   6.173  19.418  0.00  0.00    +0.000 OA
ENDBRANCH  22  32
ENDBRANCH  18  29
ENDBRANCH   1  20
TORSDOF 8
ENDMDL
MODEL 6
REMARK VINA RESULT:    -7.391      1.399      2.598
REMARK INTER + INTRA:         -12.026
REMARK INTER:                 -10.820
REMARK INTRA:                  -1.206
REMARK UNBOUND:                -1.179
REMARK  Name = 
REMARK  9 active torsions:
REMARK  status: ('A' for Active; 'I' for Inactive)
REMARK    1  A    between atoms: C_1  and  O_2
REMARK    2  A    between atoms: O_2  and  C_3
REMARK    3  A    between atoms: C_10  and  C_11
REMARK    4  A    between atoms: N_13  and  C_14
REMARK    5  A    between atoms: C_14  and  C_15
REMARK    6  A    between atoms: C_18  and  C_19
REMARK    7  A    between atoms: C_19  and  N_20
REMARK    8  A    between atoms: N_20  and  C_21
REMARK    9  A    between atoms: C_21  and  C_22
REMARK                            x       y       z     vdW  Elec       q    Type
REMARK                         _______ _______ _______ _____ _____    ______ ____
ROOT
ATOM      1  C   UNL     1      48.082   7.552  13.760  0.00  0.00    +0.000 C 
ENDROOT
BRANCH   1   2
ATOM      2  C   UNL     1      47.134   6.731  12.919  0.00  0.00    +0.000 A 
ATOM      3  C   UNL     1      46.962   5.367  13.178  0.00  0.00    +0.000 A 
ATOM      4  C   UNL     1      46.008   4.620  12.479  0.00  0.00    +0.000 A 
ATOM      5  C   UNL     1      45.189   5.213  11.507  0.00  0.00    +0.000 A 
ATOM      6  C   UNL     1      45.425   6.559  11.184  0.00  0.00    +0.000 A 
ATOM      7  C   UNL     1      46.388   7.309  11.883  0.00  0.00    +0.000 A 
BRANCH   5   8
ATOM      8  C   UNL     1      44.106   4.418  10.792  0.00  0.00    +0.000 C 
BRANCH   8   9
ATOM      9  N   UNL     1      44.673   3.432   9.862  0.00  0.00    +0.000 NA
ATOM     10  H   UNL     1      44.029   2.643   9.803  0.00  0.00    +0.000 HD
BRANCH   9  11
ATOM     11  C   UNL     1      44.915   3.971   8.522  0.00  0.00    +0.000 C 
BRANCH  11  12
ATOM     12  C   UNL     1      45.663   2.934   7.655  0.00  0.00    +0.000 C 
ATOM     13  C   UNL     1      46.001   1.647   8.428  0.00  0.00    +0.000 C 
ATOM     14  C   UNL     1      46.807   0.690   7.555  0.00  0.00    +0.000 C 
ATOM     15  O   UNL     1      47.994   1.320   7.072  0.00  0.00    +0.000 OA
ATOM     16  C   UNL     1      47.708   2.461   6.267  0.00  0.00    +0.000 C 
ATOM     17  C   UNL     1      46.963   3.518   7.074  0.00  0.00    +0.000 C 
ENDBRANCH  11  12
ENDBRANCH   9  11
ENDBRANCH   8   9
ENDBRANCH   5   8
ENDBRANCH   1   2
BRANCH   1  20
ATOM     18  C   UNL     1      48.988   6.770  15.903  0.00  0.00    +0.000 C 
ATOM     19  O   UNL     1      50.070   6.507  15.379  0.00  0.00    +0.000 OA
ATOM     20  N   UNL     1      47.951   7.284  15.169  0.00  0.00    +0.000 N 
ATOM     21  H   UNL     1      47.101   7.579  15.626  0.00  0.00    +0.000 HD
BRANCH  18  29
ATOM     22  C   UNL     1      47.853   8.723  18.489  0.00  0.00    +0.000 A 
ATOM     23  N   UNL     1      47.329   9.222  19.627  0.00  0.00    +0.000 NA
ATOM     24  C   UNL     1      47.212   8.401  20.675  0.00  0.00    +0.000 A 
ATOM     25  N   UNL     1      47.575   7.125  20.739  0.00  0.00    +0.000 NA
ATOM     26  C   UNL     1      48.078   6.665  19.582  0.00  0.00    +0.000 A 
ATOM     27  S   UNL     1      48.620   5.058  19.482  0.00  0.00    +0.000 S 
ATOM     28  C   UNL     1      49.028   5.248  17.842  0.00  0.00    +0.000 A 
ATOM     29  C   UNL     1      48.752   6.513  17.336  0.00  0.00    +0.000 A 
ATOM     30  C   UNL     1      48.233   7.373  18.395  0.00  0.00    +0.000 A 
BRANCH  22  32
ATOM     31  C   UNL     1      49.292  10.256  17.425  0.00  0.00    +0.000 C 
ATOM     32  O   UNL     1      48.042   9.574  17.420  0.00  0.00    +0.000 OA
ENDBRANCH  22  32
ENDBRANCH  18  29
ENDBRANCH   1  20
TORSDOF 8
ENDMDL
MODEL 7
REMARK VINA RESULT:    -7.364      1.787      2.486
REMARK INTER + INTRA:         -11.987
REMARK INTER:                 -10.825
REMARK INTRA:                  -1.162
REMARK UNBOUND:                -1.179
REMARK  Name = 
REMARK  9 active torsions:
REMARK  status: ('A' for Active; 'I' for Inactive)
REMARK    1  A    between atoms: C_1  and  O_2
REMARK    2  A    between atoms: O_2  and  C_3
REMARK    3  A    between atoms: C_10  and  C_11
REMARK    4  A    between atoms: N_13  and  C_14
REMARK    5  A    between atoms: C_14  and  C_15
REMARK    6  A    between atoms: C_18  and  C_19
REMARK    7  A    between atoms: C_19  and  N_20
REMARK    8  A    between atoms: N_20  and  C_21
REMARK    9  A    between atoms: C_21  and  C_22
REMARK                            x       y       z     vdW  Elec       q    Type
REMARK                         _______ _______ _______ _____ _____    ______ ____
ROOT
ATOM      1  C   UNL     1      47.522   4.699  14.600  0.00  0.00    +0.000 C 
ENDROOT
BRANCH   1   2
ATOM      2  C   UNL     1      46.457   4.685  13.531  0.00  0.00    +0.000 A 
ATOM      3  C   UNL     1      45.922   5.885  13.053  0.00  0.00    +0.000 A 
ATOM      4  C   UNL     1      45.015   5.892  11.987  0.00  0.00    +0.000 A 
ATOM      5  C   UNL     1      44.622   4.700  11.360  0.00  0.00    +0.000 A 
ATOM      6  C   UNL     1      45.088   3.491  11.899  0.00  0.00    +0.000 A 
ATOM      7  C   UNL     1      45.995   3.484  12.974  0.00  0.00    +0.000 A 
BRANCH   5   8
ATOM      8  C   UNL     1      43.687   4.708  10.159  0.00  0.00    +0.000 C 
BRANCH   8   9
ATOM      9  N   UNL     1      44.109   3.750   9.129  0.00  0.00    +0.000 NA
ATOM     10  H   UNL     1      43.322   3.595   8.497  0.00  0.00    +0.000 HD
BRANCH   9  11
ATOM     11  C   UNL     1      45.274   4.197   8.363  0.00  0.00    +0.000 C 
BRANCH  11  12
ATOM     12  C   UNL     1      45.863   3.023   7.551  0.00  0.00    +0.000 C 
ATOM     13  C   UNL     1      46.091   1.764   8.407  0.00  0.00    +0.000 C 
ATOM     14  C   UNL     1      46.747   0.662   7.581  0.00  0.00    +0.000 C 
ATOM     15  O   UNL     1      47.973   1.117   7.009  0.00  0.00    +0.000 OA
ATOM     16  C   UNL     1      47.779   2.222   6.129  0.00  0.00    +0.000 C 
ATOM     17  C   UNL     1      47.192   3.412   6.881  0.00  0.00    +0.000 C 
ENDBRANCH  11  12
ENDBRANCH   9  11
ENDBRANCH   8   9
ENDBRANCH   5   8
ENDBRANCH   1   2
BRANCH   1  20
ATOM     18  C   UNL     1      48.607   6.887  14.855  0.00  0.00    +0.000 C 
ATOM     19  O   UNL     1      49.401   6.626  13.950  0.00  0.00    +0.000 OA
ATOM     20  N   UNL     1      47.651   5.982  15.240  0.00  0.00    +0.000 N 
ATOM     21  H   UNL     1      46.952   6.241  15.919  0.00  0.00    +0.000 HD
BRANCH  18  29
ATOM     22  C   UNL     1      48.430   7.714  18.182  0.00  0.00    +0.000 A 
ATOM     23  N   UNL     1      48.513   8.287  19.399  0.00  0.00    +0.000 NA
ATOM     24  C   UNL     1      48.756   9.600  19.458  0.00  0.00    +0.000 A 
ATOM     25  N   UNL     1      48.911  10.434  18.436  0.00  0.00    +0.000 NA
ATOM     26  C   UNL     1      48.835   9.821  17.244  0.00  0.00    +0.000 A 
ATOM     27  S   UNL     1      48.985  10.734  15.819  0.00  0.00    +0.000 S 
ATOM     28  C   UNL     1      48.826   9.342  14.855  0.00  0.00    +0.000 A 
ATOM     29  C   UNL     1      48.673   8.167  15.582  0.00  0.00    +0.000 A 
ATOM     30  C   UNL     1      48.626   8.465  17.010  0.00  0.00    +0.000 A 
BRANCH  22  32
ATOM     31  C   UNL     1      47.171   5.933  19.075  0.00  0.00    +0.000 C 
ATOM     32  O   UNL     1      48.113   6.374  18.103  0.00  0.00    +0.000 OA
ENDBRANCH  22  32
ENDBRANCH  18  29
ENDBRANCH   1  20
TORSDOF 8
ENDMDL
MODEL 8
REMARK VINA RESULT:    -7.012      3.662      8.374
REMARK INTER + INTRA:         -11.470
REMARK INTER:                 -10.097
REMARK INTRA:                  -1.373
REMARK UNBOUND:                -1.179
REMARK  Name = 
REMARK  9 active torsions:
REMARK  status: ('A' for Active; 'I' for Inactive)
REMARK    1  A    between atoms: C_1  and  O_2
REMARK    2  A    between atoms: O_2  and  C_3
REMARK    3  A    between atoms: C_10  and  C_11
REMARK    4  A    between atoms: N_13  and  C_14
REMARK    5  A    between atoms: C_14  and  C_15
REMARK    6  A    between atoms: C_18  and  C_19
REMARK    7  A    between atoms: C_19  and  N_20
REMARK    8  A    between atoms: N_20  and  C_21
REMARK    9  A    between atoms: C_21  and  C_22
REMARK                            x       y       z     vdW  Elec       q    Type
REMARK                         _______ _______ _______ _____ _____    ______ ____
ROOT
ATOM      1  C   UNL     1      48.228   8.256  11.927  0.00  0.00    +0.000 C 
ENDROOT
BRANCH   1   2
ATOM      2  C   UNL     1      48.915   7.950  13.235  0.00  0.00    +0.000 A 
ATOM      3  C   UNL     1      48.178   7.470  14.323  0.00  0.00    +0.000 A 
ATOM      4  C   UNL     1      48.818   7.080  15.506  0.00  0.00    +0.000 A 
ATOM      5  C   UNL     1      50.213   7.148  15.635  0.00  0.00    +0.000 A 
ATOM      6  C   UNL     1      50.941   7.716  14.577  0.00  0.00    +0.000 A 
ATOM      7  C   UNL     1      50.299   8.113  13.391  0.00  0.00    +0.000 A 
BRANCH   5   8
ATOM      8  C   UNL     1      50.916   6.665  16.894  0.00  0.00    +0.000 C 
BRANCH   8   9
ATOM      9  N   UNL     1      49.962   6.228  17.922  0.00  0.00    +0.000 NA
ATOM     10  H   UNL     1      49.111   5.913  17.454  0.00  0.00    +0.000 HD
BRANCH   9  11
ATOM     11  C   UNL     1      50.480   5.158  18.777  0.00  0.00    +0.000 C 
BRANCH  11  12
ATOM     12  C   UNL     1      50.020   3.781  18.247  0.00  0.00    +0.000 C 
ATOM     13  C   UNL     1      51.147   3.011  17.539  0.00  0.00    +0.000 C 
ATOM     14  C   UNL     1      50.625   1.697  16.965  0.00  0.00    +0.000 C 
ATOM     15  O   UNL     1      49.532   1.929  16.077  0.00  0.00    +0.000 OA
ATOM     16  C   UNL     1      48.430   2.553  16.732  0.00  0.00    +0.000 C 
ATOM     17  C   UNL     1      48.831   3.918  17.280  0.00  0.00    +0.000 C 
ENDBRANCH  11  12
ENDBRANCH   9  11
ENDBRANCH   8   9
ENDBRANCH   5   8
ENDBRANCH   1   2
BRANCH   1  20
ATOM     18  C   UNL     1      46.228   6.945  11.367  0.00  0.00    +0.000 C 
ATOM     19  O   UNL     1      45.499   7.787  11.890  0.00  0.00    +0.000 OA
ATOM     20  N   UNL     1      47.591   7.100  11.349  0.00  0.00    +0.000 N 
ATOM     21  H   UNL     1      48.170   6.450  10.840  0.00  0.00    +0.000 HD
BRANCH  18  29
ATOM     22  C   UNL     1      44.531   4.254  12.658  0.00  0.00    +0.000 A 
ATOM     23  N   UNL     1      43.760   3.170  12.879  0.00  0.00    +0.000 NA
ATOM     24  C   UNL     1      43.407   2.427  11.826  0.00  0.00    +0.000 A 
ATOM     25  N   UNL     1      43.746   2.622  10.556  0.00  0.00    +0.000 NA
ATOM     26  C   UNL     1      44.501   3.718  10.378  0.00  0.00    +0.000 A 
ATOM     27  S   UNL     1      45.052   4.115   8.821  0.00  0.00    +0.000 S 
ATOM     28  C   UNL     1      45.824   5.515   9.400  0.00  0.00    +0.000 A 
ATOM     29  C   UNL     1      45.671   5.720  10.767  0.00  0.00    +0.000 A 
ATOM     30  C   UNL     1      44.923   4.613  11.356  0.00  0.00    +0.000 A 
BRANCH  22  32
ATOM     31  C   UNL     1      46.234   4.609  14.247  0.00  0.00    +0.000 C 
ATOM     32  O   UNL     1      44.960   4.993  13.741  0.00  0.00    +0.000 OA
ENDBRANCH  22  32
ENDBRANCH  18  29
ENDBRANCH   1  20
TORSDOF 8
ENDMDL
MODEL 9
REMARK VINA RESULT:    -6.786      2.368      3.383
REMARK INTER + INTRA:         -11.140
REMARK INTER:                 -10.123
REMARK INTRA:                  -1.017
REMARK UNBOUND:                -1.179
REMARK  Name = 
REMARK  9 active torsions:
REMARK  status: ('A' for Active; 'I' for Inactive)
REMARK    1  A    between atoms: C_1  and  O_2
REMARK    2  A    between atoms: O_2  and  C_3
REMARK    3  A    between atoms: C_10  and  C_11
REMARK    4  A    between atoms: N_13  and  C_14
REMARK    5  A    between atoms: C_14  and  C_15
REMARK    6  A    between atoms: C_18  and  C_19
REMARK    7  A    between atoms: C_19  and  N_20
REMARK    8  A    between atoms: N_20  and  C_21
REMARK    9  A    between atoms: C_21  and  C_22
REMARK                            x       y       z     vdW  Elec       q    Type
REMARK                         _______ _______ _______ _____ _____    ______ ____
ROOT
ATOM      1  C   UNL     1      47.251   5.001  14.606  0.00  0.00    +0.000 C 
ENDROOT
BRANCH   1   2
ATOM      2  C   UNL     1      46.409   4.895  13.358  0.00  0.00    +0.000 A 
ATOM      3  C   UNL     1      45.789   3.685  13.027  0.00  0.00    +0.000 A 
ATOM      4  C   UNL     1      44.919   3.602  11.933  0.00  0.00    +0.000 A 
ATOM      5  C   UNL     1      44.633   4.726  11.145  0.00  0.00    +0.000 A 
ATOM      6  C   UNL     1      45.326   5.916  11.423  0.00  0.00    +0.000 A 
ATOM      7  C   UNL     1      46.204   5.998  12.518  0.00  0.00    +0.000 A 
BRANCH   5   8
ATOM      8  C   UNL     1      43.638   4.655   9.996  0.00  0.00    +0.000 C 
BRANCH   8   9
ATOM      9  N   UNL     1      44.083   3.736   8.940  0.00  0.00    +0.000 NA
ATOM     10  H   UNL     1      43.326   3.638   8.263  0.00  0.00    +0.000 HD
BRANCH   9  11
ATOM     11  C   UNL     1      45.299   4.183   8.258  0.00  0.00    +0.000 C 
BRANCH  11  12
ATOM     12  C   UNL     1      45.928   3.014   7.466  0.00  0.00    +0.000 C 
ATOM     13  C   UNL     1      46.132   1.755   8.327  0.00  0.00    +0.000 C 
ATOM     14  C   UNL     1      46.827   0.661   7.523  0.00  0.00    +0.000 C 
ATOM     15  O   UNL     1      48.071   1.125   7.000  0.00  0.00    +0.000 OA
ATOM     16  C   UNL     1      47.904   2.232   6.117  0.00  0.00    +0.000 C 
ATOM     17  C   UNL     1      47.279   3.416   6.849  0.00  0.00    +0.000 C 
ENDBRANCH  11  12
ENDBRANCH   9  11
ENDBRANCH   8   9
ENDBRANCH   5   8
ENDBRANCH   1   2
BRANCH   1  20
ATOM     18  C   UNL     1      48.634   6.624  15.825  0.00  0.00    +0.000 C 
ATOM     19  O   UNL     1      48.608   5.924  16.837  0.00  0.00    +0.000 OA
ATOM     20  N   UNL     1      47.982   6.240  14.681  0.00  0.00    +0.000 N 
ATOM     21  H   UNL     1      48.085   6.776  13.833  0.00  0.00    +0.000 HD
BRANCH  18  29
ATOM     22  C   UNL     1      51.945   7.501  16.060  0.00  0.00    +0.000 A 
ATOM     23  N   UNL     1      53.153   8.098  16.006  0.00  0.00    +0.000 NA
ATOM     24  C   UNL     1      53.191   9.419  15.809  0.00  0.00    +0.000 A 
ATOM     25  N   UNL     1      52.155  10.241  15.674  0.00  0.00    +0.000 NA
ATOM     26  C   UNL     1      50.974   9.605  15.719  0.00  0.00    +0.000 A 
ATOM     27  S   UNL     1      49.534  10.497  15.588  0.00  0.00    +0.000 S 
ATOM     28  C   UNL     1      48.593   9.085  15.691  0.00  0.00    +0.000 A 
ATOM     29  C   UNL     1      49.340   7.918  15.809  0.00  0.00    +0.000 A 
ATOM     30  C   UNL     1      50.762   8.239  15.879  0.00  0.00    +0.000 A 
BRANCH  22  32
ATOM     31  C   UNL     1      51.931   5.824  17.715  0.00  0.00    +0.000 C 
ATOM     32  O   UNL     1      51.887   6.150  16.329  0.00  0.00    +0.000 OA
ENDBRANCH  22  32
ENDBRANCH  18  29
ENDBRANCH   1  20
TORSDOF 8
ENDMDL
