MODEL 1
REMARK VINA RESULT:    -7.069      0.000      0.000
REMARK INTER + INTRA:          -9.718
REMARK INTER:                  -8.929
REMARK INTRA:                  -0.790
REMARK UNBOUND:                -0.790
REMARK  Name = 
REMARK  7 active torsions:
REMARK  status: ('A' for Active; 'I' for Inactive)
REMARK    1  A    between atoms: C_1  and  C_2
REMARK    2  A    between atoms: C_4  and  C_5
REMARK    3  A    between atoms: C_5  and  O_7
REMARK    4  A    between atoms: C_10  and  O_11
REMARK    5  A    between atoms: O_11  and  C_12
REMARK    6  A    between atoms: C_12  and  C_13
REMARK    7  A    between atoms: N_17  and  C_18
REMARK                            x       y       z     vdW  Elec       q    Type
REMARK                         _______ _______ _______ _____ _____    ______ ____
ROOT
ATOM      1  C   UNL     1      43.828   2.305  10.887  0.00  0.00    +0.000 C 
ATOM      2  C   UNL     1      44.714   2.784   9.765  0.00  0.00    +0.000 A 
ATOM      3  C   UNL     1      45.454   1.752   9.107  0.00  0.00    +0.000 A 
ATOM      4  C   UNL     1      46.318   2.039   8.045  0.00  0.00    +0.000 A 
ATOM      5  C   UNL     1      46.437   3.350   7.618  0.00  0.00    +0.000 A 
ATOM      6  C   UNL     1      45.735   4.364   8.245  0.00  0.00    +0.000 A 
ATOM      7  C   UNL     1      44.844   4.117   9.326  0.00  0.00    +0.000 A 
ENDROOT
BRANCH   4   8
ATOM      8  C   UNL     1      47.059   1.015   7.277  0.00  0.00    +0.000 C 
ATOM      9  O   UNL     1      47.859   1.316   6.403  0.00  0.00    +0.000 OA
BRANCH   8  10
ATOM     10  O   UNL     1      46.841  -0.262   7.650  0.00  0.00    +0.000 OA
ATOM     11  H   UNL     1      46.222  -0.403   8.388  0.00  0.00    +0.000 HD
ENDBRANCH   8  10
ENDBRANCH   4   8
BRANCH   7  12
ATOM     12  O   UNL     1      44.150   5.188   9.873  0.00  0.00    +0.000 OA
BRANCH  12  13
ATOM     13  C   UNL     1      45.011   6.161  10.531  0.00  0.00    +0.000 C 
BRANCH  13  14
ATOM     14  C   UNL     1      45.960   5.632  11.594  0.00  0.00    +0.000 C 
ATOM     15  C   UNL     1      45.196   5.213  12.845  0.00  0.00    +0.000 C 
ATOM     16  C   UNL     1      46.177   4.626  13.845  0.00  0.00    +0.000 C 
ATOM     17  C   UNL     1      47.315   5.607  14.130  0.00  0.00    +0.000 C 
ATOM     18  N   UNL     1      48.008   6.009  12.895  0.00  0.00    +0.000 NA
ATOM     19  C   UNL     1      49.101   6.930  13.202  0.00  0.00    +0.000 C 
ATOM     20  C   UNL     1      47.078   6.621  11.931  0.00  0.00    +0.000 C 
ENDBRANCH  13  14
ENDBRANCH  12  13
ENDBRANCH   7  12
TORSDOF 5
ENDMDL
MODEL 2
REMARK VINA RESULT:    -6.711      2.884      6.530
REMARK INTER + INTRA:          -9.266
REMARK INTER:                  -8.623
REMARK INTRA:                  -0.643
REMARK UNBOUND:                -0.790
REMARK  Name = 
REMARK  7 active torsions:
REMARK  status: ('A' for Active; 'I' for Inactive)
REMARK    1  A    between atoms: C_1  and  C_2
REMARK    2  A    between atoms: C_4  and  C_5
REMARK    3  A    between atoms: C_5  and  O_7
REMARK    4  A    between atoms: C_10  and  O_11
REMARK    5  A    between atoms: O_11  and  C_12
REMARK    6  A    between atoms: C_12  and  C_13
REMARK    7  A    between atoms: N_17  and  C_18
REMARK                            x       y       z     vdW  Elec       q    Type
REMARK                         _______ _______ _______ _____ _____    ______ ____
ROOT
ATOM      1  C   UNL     1      46.774   3.687  13.621  0.00  0.00    +0.000 C 
ATOM      2  C   UNL     1      45.909   4.725  12.952  0.00  0.00    +0.000 A 
ATOM      3  C   UNL     1      46.292   6.078  13.212  0.00  0.00    +0.000 A 
ATOM      4  C   UNL     1      45.588   7.153  12.660  0.00  0.00    +0.000 A 
ATOM      5  C   UNL     1      44.511   6.890  11.832  0.00  0.00    +0.000 A 
ATOM      6  C   UNL     1      44.120   5.589  11.573  0.00  0.00    +0.000 A 
ATOM      7  C   UNL     1      44.809   4.466  12.110  0.00  0.00    +0.000 A 
ENDROOT
BRANCH   4   8
ATOM      8  C   UNL     1      45.970   8.572  12.831  0.00  0.00    +0.000 C 
ATOM      9  O   UNL     1      45.762   9.406  11.963  0.00  0.00    +0.000 OA
BRANCH   8  10
ATOM     10  O   UNL     1      46.501   8.891  14.029  0.00  0.00    +0.000 OA
ATOM     11  H   UNL     1      47.468   8.988  14.067  0.00  0.00    +0.000 HD
ENDBRANCH   8  10
ENDBRANCH   4   8
BRANCH   7  12
ATOM     12  O   UNL     1      44.373   3.193  11.768  0.00  0.00    +0.000 OA
BRANCH  12  13
ATOM     13  C   UNL     1      44.094   3.039  10.347  0.00  0.00    +0.000 C 
BRANCH  13  14
ATOM     14  C   UNL     1      45.291   2.979   9.413  0.00  0.00    +0.000 C 
ATOM     15  C   UNL     1      45.219   4.083   8.364  0.00  0.00    +0.000 C 
ATOM     16  C   UNL     1      46.470   4.026   7.504  0.00  0.00    +0.000 C 
ATOM     17  C   UNL     1      46.653   2.632   6.905  0.00  0.00    +0.000 C 
ATOM     18  N   UNL     1      46.689   1.593   7.946  0.00  0.00    +0.000 NA
ATOM     19  C   UNL     1      46.886   0.275   7.344  0.00  0.00    +0.000 C 
ATOM     20  C   UNL     1      45.464   1.605   8.762  0.00  0.00    +0.000 C 
ENDBRANCH  13  14
ENDBRANCH  12  13
ENDBRANCH   7  12
TORSDOF 5
ENDMDL
MODEL 3
REMARK VINA RESULT:    -6.624      1.125      2.138
REMARK INTER + INTRA:          -9.157
REMARK INTER:                  -8.406
REMARK INTRA:                  -0.751
REMARK UNBOUND:                -0.790
REMARK  Name = 
REMARK  7 active torsions:
REMARK  status: ('A' for Active; 'I' for Inactive)
REMARK    1  A    between atoms: C_1  and  C_2
REMARK    2  A    between atoms: C_4  and  C_5
REMARK    3  A    between atoms: C_5  and  O_7
REMARK    4  A    between atoms: C_10  and  O_11
REMARK    5  A    between atoms: O_11  and  C_12
REMARK    6  A    between atoms: C_12  and  C_13
REMARK    7  A    between atoms: N_17  and  C_18
REMARK                            x       y       z     vdW  Elec       q    Type
REMARK                         _______ _______ _______ _____ _____    ______ ____
ROOT
ATOM      1  C   UNL     1      46.015   5.519   8.783  0.00  0.00    +0.000 C 
ATOM      2  C   UNL     1      45.611   4.067   8.825  0.00  0.00    +0.000 A 
ATOM      3  C   UNL     1      46.461   3.189   8.083  0.00  0.00    +0.000 A 
ATOM      4  C   UNL     1      46.217   1.813   8.027  0.00  0.00    +0.000 A 
ATOM      5  C   UNL     1      45.137   1.299   8.723  0.00  0.00    +0.000 A 
ATOM      6  C   UNL     1      44.298   2.132   9.442  0.00  0.00    +0.000 A 
ATOM      7  C   UNL     1      44.511   3.535   9.528  0.00  0.00    +0.000 A 
ENDROOT
BRANCH   4   8
ATOM      8  C   UNL     1      47.093   0.841   7.337  0.00  0.00    +0.000 C 
ATOM      9  O   UNL     1      47.974   1.196   6.568  0.00  0.00    +0.000 OA
BRANCH   8  10
ATOM     10  O   UNL     1      46.895  -0.452   7.663  0.00  0.00    +0.000 OA
ATOM     11  H   UNL     1      47.276  -1.118   7.064  0.00  0.00    +0.000 HD
ENDBRANCH   8  10
ENDBRANCH   4   8
BRANCH   7  12
ATOM     12  O   UNL     1      43.643   4.294  10.303  0.00  0.00    +0.000 OA
BRANCH  12  13
ATOM     13  C   UNL     1      43.919   4.210  11.731  0.00  0.00    +0.000 C 
BRANCH  13  14
ATOM     14  C   UNL     1      44.592   5.411  12.373  0.00  0.00    +0.000 C 
ATOM     15  C   UNL     1      44.296   6.684  11.590  0.00  0.00    +0.000 C 
ATOM     16  C   UNL     1      44.929   7.862  12.312  0.00  0.00    +0.000 C 
ATOM     17  C   UNL     1      46.422   7.623  12.537  0.00  0.00    +0.000 C 
ATOM     18  N   UNL     1      46.667   6.370  13.271  0.00  0.00    +0.000 NA
ATOM     19  C   UNL     1      48.099   6.180  13.488  0.00  0.00    +0.000 C 
ATOM     20  C   UNL     1      46.097   5.211  12.562  0.00  0.00    +0.000 C 
ENDBRANCH  13  14
ENDBRANCH  12  13
ENDBRANCH   7  12
TORSDOF 5
ENDMDL
MODEL 4
REMARK VINA RESULT:    -6.535      2.865      6.164
REMARK INTER + INTRA:          -9.043
REMARK INTER:                  -8.542
REMARK INTRA:                  -0.501
REMARK UNBOUND:                -0.790
REMARK  Name = 
REMARK  7 active torsions:
REMARK  status: ('A' for Active; 'I' for Inactive)
REMARK    1  A    between atoms: C_1  and  C_2
REMARK    2  A    between atoms: C_4  and  C_5
REMARK    3  A    between atoms: C_5  and  O_7
REMARK    4  A    between atoms: C_10  and  O_11
REMARK    5  A    between atoms: O_11  and  C_12
REMARK    6  A    between atoms: C_12  and  C_13
REMARK    7  A    between atoms: N_17  and  C_18
REMARK                            x       y       z     vdW  Elec       q    Type
REMARK                         _______ _______ _______ _____ _____    ______ ____
ROOT
ATOM      1  C   UNL     1      43.806   3.295  12.814  0.00  0.00    +0.000 C 
ATOM      2  C   UNL     1      44.710   4.365  12.257  0.00  0.00    +0.000 A 
ATOM      3  C   UNL     1      45.576   4.974  13.219  0.00  0.00    +0.000 A 
ATOM      4  C   UNL     1      46.474   5.982  12.855  0.00  0.00    +0.000 A 
ATOM      5  C   UNL     1      46.532   6.377  11.530  0.00  0.00    +0.000 A 
ATOM      6  C   UNL     1      45.699   5.805  10.585  0.00  0.00    +0.000 A 
ATOM      7  C   UNL     1      44.773   4.776  10.910  0.00  0.00    +0.000 A 
ENDROOT
BRANCH   4   8
ATOM      8  C   UNL     1      47.443   6.606  13.782  0.00  0.00    +0.000 C 
ATOM      9  O   UNL     1      48.427   6.005  14.190  0.00  0.00    +0.000 OA
BRANCH   8  10
ATOM     10  O   UNL     1      47.203   7.896  14.092  0.00  0.00    +0.000 OA
ATOM     11  H   UNL     1      46.918   8.080  15.004  0.00  0.00    +0.000 HD
ENDBRANCH   8  10
ENDBRANCH   4   8
BRANCH   7  12
ATOM     12  O   UNL     1      44.002   4.229   9.893  0.00  0.00    +0.000 OA
BRANCH  12  13
ATOM     13  C   UNL     1      44.581   4.407   8.569  0.00  0.00    +0.000 C 
BRANCH  13  14
ATOM     14  C   UNL     1      45.146   3.169   7.892  0.00  0.00    +0.000 C 
ATOM     15  C   UNL     1      45.517   2.108   8.922  0.00  0.00    +0.000 C 
ATOM     16  C   UNL     1      46.007   0.868   8.194  0.00  0.00    +0.000 C 
ATOM     17  C   UNL     1      47.151   1.214   7.241  0.00  0.00    +0.000 C 
ATOM     18  N   UNL     1      46.763   2.261   6.283  0.00  0.00    +0.000 NA
ATOM     19  C   UNL     1      47.869   2.556   5.374  0.00  0.00    +0.000 C 
ATOM     20  C   UNL     1      46.326   3.487   6.972  0.00  0.00    +0.000 C 
ENDBRANCH  13  14
ENDBRANCH  12  13
ENDBRANCH   7  12
TORSDOF 5
ENDMDL
MODEL 5
REMARK VINA RESULT:    -6.477      2.965      6.360
REMARK INTER + INTRA:          -8.970
REMARK INTER:                  -8.590
REMARK INTRA:                  -0.380
REMARK UNBOUND:                -0.790
REMARK  Name = 
REMARK  7 active torsions:
REMARK  status: ('A' for Active; 'I' for Inactive)
REMARK    1  A    between atoms: C_1  and  C_2
REMARK    2  A    between atoms: C_4  and  C_5
REMARK    3  A    between atoms: C_5  and  O_7
REMARK    4  A    between atoms: C_10  and  O_11
REMARK    5  A    between atoms: O_11  and  C_12
REMARK    6  A    between atoms: C_12  and  C_13
REMARK    7  A    between atoms: N_17  and  C_18
REMARK                            x       y       z     vdW  Elec       q    Type
REMARK                         _______ _______ _______ _____ _____    ______ ____
ROOT
ATOM      1  C   UNL     1      46.050   7.168  11.373  0.00  0.00    +0.000 C 
ATOM      2  C   UNL     1      45.920   5.768  11.917  0.00  0.00    +0.000 A 
ATOM      3  C   UNL     1      46.620   5.536  13.142  0.00  0.00    +0.000 A 
ATOM      4  C   UNL     1      46.594   4.288  13.772  0.00  0.00    +0.000 A 
ATOM      5  C   UNL     1      45.856   3.268  13.199  0.00  0.00    +0.000 A 
ATOM      6  C   UNL     1      45.177   3.469  12.010  0.00  0.00    +0.000 A 
ATOM      7  C   UNL     1      45.174   4.722  11.338  0.00  0.00    +0.000 A 
ENDROOT
BRANCH   4   8
ATOM      8  C   UNL     1      47.237   4.000  15.072  0.00  0.00    +0.000 C 
ATOM      9  O   UNL     1      47.864   2.970  15.269  0.00  0.00    +0.000 OA
BRANCH   8  10
ATOM     10  O   UNL     1      47.137   4.975  15.999  0.00  0.00    +0.000 OA
ATOM     11  H   UNL     1      47.966   5.266  16.418  0.00  0.00    +0.000 HD
ENDBRANCH   8  10
ENDBRANCH   4   8
BRANCH   7  12
ATOM     12  O   UNL     1      44.434   4.848  10.170  0.00  0.00    +0.000 OA
BRANCH  12  13
ATOM     13  C   UNL     1      44.297   3.599   9.434  0.00  0.00    +0.000 C 
BRANCH  13  14
ATOM     14  C   UNL     1      45.549   3.048   8.772  0.00  0.00    +0.000 C 
ATOM     15  C   UNL     1      45.890   3.836   7.513  0.00  0.00    +0.000 C 
ATOM     16  C   UNL     1      47.186   3.295   6.932  0.00  0.00    +0.000 C 
ATOM     17  C   UNL     1      47.088   1.788   6.696  0.00  0.00    +0.000 C 
ATOM     18  N   UNL     1      46.729   1.067   7.928  0.00  0.00    +0.000 NA
ATOM     19  C   UNL     1      46.663  -0.371   7.676  0.00  0.00    +0.000 C 
ATOM     20  C   UNL     1      45.452   1.549   8.482  0.00  0.00    +0.000 C 
ENDBRANCH  13  14
ENDBRANCH  12  13
ENDBRANCH   7  12
TORSDOF 5
ENDMDL
MODEL 6
REMARK VINA RESULT:    -6.086      2.993      6.314
REMARK INTER + INTRA:          -8.476
REMARK INTER:                  -8.019
REMARK INTRA:                  -0.458
REMARK UNBOUND:                -0.790
REMARK  Name = 
REMARK  7 active torsions:
REMARK  status: ('A' for Active; 'I' for Inactive)
REMARK    1  A    between atoms: C_1  and  C_2
REMARK    2  A    between atoms: C_4  and  C_5
REMARK    3  A    between atoms: C_5  and  O_7
REMARK    4  A    between atoms: C_10  and  O_11
REMARK    5  A    between atoms: O_11  and  C_12
REMARK    6  A    between atoms: C_12  and  C_13
REMARK    7  A    between atoms: N_17  and  C_18
REMARK                            x       y       z     vdW  Elec       q    Type
REMARK                         _______ _______ _______ _____ _____    ______ ____
ROOT
ATOM      1  C   UNL     1      47.909   7.347  11.761  0.00  0.00    +0.000 C 
ATOM      2  C   UNL     1      47.107   6.299  12.490  0.00  0.00    +0.000 A 
ATOM      3  C   UNL     1      47.685   5.856  13.721  0.00  0.00    +0.000 A 
ATOM      4  C   UNL     1      47.059   4.888  14.513  0.00  0.00    +0.000 A 
ATOM      5  C   UNL     1      45.846   4.368  14.096  0.00  0.00    +0.000 A 
ATOM      6  C   UNL     1      45.274   4.778  12.905  0.00  0.00    +0.000 A 
ATOM      7  C   UNL     1      45.874   5.761  12.071  0.00  0.00    +0.000 A 
ENDROOT
BRANCH   4   8
ATOM      8  C   UNL     1      47.564   4.436  15.827  0.00  0.00    +0.000 C 
ATOM      9  O   UNL     1      48.056   3.328  15.985  0.00  0.00    +0.000 OA
BRANCH   8  10
ATOM     10  O   UNL     1      47.504   5.348  16.819  0.00  0.00    +0.000 OA
ATOM     11  H   UNL     1      47.074   5.068  17.645  0.00  0.00    +0.000 HD
ENDBRANCH   8  10
ENDBRANCH   4   8
BRANCH   7  12
ATOM     12  O   UNL     1      45.213   6.143  10.911  0.00  0.00    +0.000 OA
BRANCH  12  13
ATOM     13  C   UNL     1      44.091   5.278  10.573  0.00  0.00    +0.000 C 
BRANCH  13  14
ATOM     14  C   UNL     1      44.344   4.198   9.535  0.00  0.00    +0.000 C 
ATOM     15  C   UNL     1      44.381   2.818  10.182  0.00  0.00    +0.000 C 
ATOM     16  C   UNL     1      44.562   1.771   9.096  0.00  0.00    +0.000 C 
ATOM     17  C   UNL     1      45.798   2.076   8.249  0.00  0.00    +0.000 C 
ATOM     18  N   UNL     1      45.737   3.426   7.666  0.00  0.00    +0.000 NA
ATOM     19  C   UNL     1      46.920   3.680   6.846  0.00  0.00    +0.000 C 
ATOM     20  C   UNL     1      45.605   4.458   8.709  0.00  0.00    +0.000 C 
ENDBRANCH  13  14
ENDBRANCH  12  13
ENDBRANCH   7  12
TORSDOF 5
ENDMDL
MODEL 7
REMARK VINA RESULT:    -5.806      2.967      5.968
REMARK INTER + INTRA:          -8.123
REMARK INTER:                  -7.430
REMARK INTRA:                  -0.693
REMARK UNBOUND:                -0.790
REMARK  Name = 
REMARK  7 active torsions:
REMARK  status: ('A' for Active; 'I' for Inactive)
REMARK    1  A    between atoms: C_1  and  C_2
REMARK    2  A    between atoms: C_4  and  C_5
REMARK    3  A    between atoms: C_5  and  O_7
REMARK    4  A    between atoms: C_10  and  O_11
REMARK    5  A    between atoms: O_11  and  C_12
REMARK    6  A    between atoms: C_12  and  C_13
REMARK    7  A    between atoms: N_17  and  C_18
REMARK                            x       y       z     vdW  Elec       q    Type
REMARK                         _______ _______ _______ _____ _____    ______ ____
ROOT
ATOM      1  C   UNL     1      46.333   3.733  13.816  0.00  0.00    +0.000 C 
ATOM      2  C   UNL     1      46.484   5.038  13.077  0.00  0.00    +0.000 A 
ATOM      3  C   UNL     1      47.734   5.700  13.284  0.00  0.00    +0.000 A 
ATOM      4  C   UNL     1      48.024   6.920  12.665  0.00  0.00    +0.000 A 
ATOM      5  C   UNL     1      47.081   7.480  11.821  0.00  0.00    +0.000 A 
ATOM      6  C   UNL     1      45.862   6.859  11.613  0.00  0.00    +0.000 A 
ATOM      7  C   UNL     1      45.528   5.617  12.219  0.00  0.00    +0.000 A 
ENDROOT
BRANCH   4   8
ATOM      8  C   UNL     1      49.320   7.624  12.780  0.00  0.00    +0.000 C 
ATOM      9  O   UNL     1      49.554   8.653  12.164  0.00  0.00    +0.000 OA
BRANCH   8  10
ATOM     10  O   UNL     1      50.196   7.089  13.656  0.00  0.00    +0.000 OA
ATOM     11  H   UNL     1      50.829   7.702  14.070  0.00  0.00    +0.000 HD
ENDBRANCH   8  10
ENDBRANCH   4   8
BRANCH   7  12
ATOM     12  O   UNL     1      44.298   5.043  11.925  0.00  0.00    +0.000 OA
BRANCH  12  13
ATOM     13  C   UNL     1      43.882   5.243  10.543  0.00  0.00    +0.000 C 
BRANCH  13  14
ATOM     14  C   UNL     1      44.222   4.140   9.555  0.00  0.00    +0.000 C 
ATOM     15  C   UNL     1      44.333   2.793  10.260  0.00  0.00    +0.000 C 
ATOM     16  C   UNL     1      44.601   1.717   9.222  0.00  0.00    +0.000 C 
ATOM     17  C   UNL     1      45.832   2.065   8.385  0.00  0.00    +0.000 C 
ATOM     18  N   UNL     1      45.698   3.384   7.744  0.00  0.00    +0.000 NA
ATOM     19  C   UNL     1      46.879   3.679   6.935  0.00  0.00    +0.000 C 
ATOM     20  C   UNL     1      45.481   4.446   8.741  0.00  0.00    +0.000 C 
ENDBRANCH  13  14
ENDBRANCH  12  13
ENDBRANCH   7  12
TORSDOF 5
ENDMDL
MODEL 8
REMARK VINA RESULT:    -5.650      3.223      5.121
REMARK INTER + INTRA:          -7.926
REMARK INTER:                  -7.520
REMARK INTRA:                  -0.406
REMARK UNBOUND:                -0.790
REMARK  Name = 
REMARK  7 active torsions:
REMARK  status: ('A' for Active; 'I' for Inactive)
REMARK    1  A    between atoms: C_1  and  C_2
REMARK    2  A    between atoms: C_4  and  C_5
REMARK    3  A    between atoms: C_5  and  O_7
REMARK    4  A    between atoms: C_10  and  O_11
REMARK    5  A    between atoms: O_11  and  C_12
REMARK    6  A    between atoms: C_12  and  C_13
REMARK    7  A    between atoms: N_17  and  C_18
REMARK                            x       y       z     vdW  Elec       q    Type
REMARK                         _______ _______ _______ _____ _____    ______ ____
ROOT
ATOM      1  C   UNL     1      46.862   6.960  13.149  0.00  0.00    +0.000 C 
ATOM      2  C   UNL     1      46.175   5.743  12.584  0.00  0.00    +0.000 A 
ATOM      3  C   UNL     1      45.915   5.803  11.178  0.00  0.00    +0.000 A 
ATOM      4  C   UNL     1      45.285   4.750  10.508  0.00  0.00    +0.000 A 
ATOM      5  C   UNL     1      44.927   3.622  11.226  0.00  0.00    +0.000 A 
ATOM      6  C   UNL     1      45.163   3.546  12.587  0.00  0.00    +0.000 A 
ATOM      7  C   UNL     1      45.803   4.592  13.307  0.00  0.00    +0.000 A 
ENDROOT
BRANCH   4   8
ATOM      8  C   UNL     1      45.049   4.717   9.049  0.00  0.00    +0.000 C 
ATOM      9  O   UNL     1      45.957   4.859   8.243  0.00  0.00    +0.000 OA
BRANCH   8  10
ATOM     10  O   UNL     1      43.780   4.456   8.671  0.00  0.00    +0.000 OA
ATOM     11  H   UNL     1      43.636   3.644   8.154  0.00  0.00    +0.000 HD
ENDBRANCH   8  10
ENDBRANCH   4   8
BRANCH   7  12
ATOM     12  O   UNL     1      46.037   4.418  14.665  0.00  0.00    +0.000 OA
BRANCH  12  13
ATOM     13  C   UNL     1      47.190   3.575  14.950  0.00  0.00    +0.000 C 
BRANCH  13  14
ATOM     14  C   UNL     1      48.007   3.920  16.184  0.00  0.00    +0.000 C 
ATOM     15  C   UNL     1      48.623   2.667  16.796  0.00  0.00    +0.000 C 
ATOM     16  C   UNL     1      49.486   3.073  17.979  0.00  0.00    +0.000 C 
ATOM     17  C   UNL     1      48.681   3.903  18.979  0.00  0.00    +0.000 C 
ATOM     18  N   UNL     1      48.080   5.086  18.343  0.00  0.00    +0.000 NA
ATOM     19  C   UNL     1      47.335   5.869  19.327  0.00  0.00    +0.000 C 
ATOM     20  C   UNL     1      47.204   4.708  17.221  0.00  0.00    +0.000 C 
ENDBRANCH  13  14
ENDBRANCH  12  13
ENDBRANCH   7  12
TORSDOF 5
ENDMDL
MODEL 9
REMARK VINA RESULT:    -5.641      3.736      6.931
REMARK INTER + INTRA:          -7.915
REMARK INTER:                  -7.349
REMARK INTRA:                  -0.566
REMARK UNBOUND:                -0.790
REMARK  Name = 
REMARK  7 active torsions:
REMARK  status: ('A' for Active; 'I' for Inactive)
REMARK    1  A    between atoms: C_1  and  C_2
REMARK    2  A    between atoms: C_4  and  C_5
REMARK    3  A    between atoms: C_5  and  O_7
REMARK    4  A    between atoms: C_10  and  O_11
REMARK    5  A    between atoms: O_11  and  C_12
REMARK    6  A    between atoms: C_12  and  C_13
REMARK    7  A    between atoms: N_17  and  C_18
REMARK                            x       y       z     vdW  Elec       q    Type
REMARK                         _______ _______ _______ _____ _____    ______ ____
ROOT
ATOM      1  C   UNL     1      48.825   7.699  14.922  0.00  0.00    +0.000 C 
ATOM      2  C   UNL     1      48.169   6.343  14.907  0.00  0.00    +0.000 A 
ATOM      3  C   UNL     1      48.271   5.617  16.135  0.00  0.00    +0.000 A 
ATOM      4  C   UNL     1      47.711   4.344  16.278  0.00  0.00    +0.000 A 
ATOM      5  C   UNL     1      47.028   3.792  15.208  0.00  0.00    +0.000 A 
ATOM      6  C   UNL     1      46.923   4.474  14.009  0.00  0.00    +0.000 A 
ATOM      7  C   UNL     1      47.475   5.771  13.822  0.00  0.00    +0.000 A 
ENDROOT
BRANCH   4   8
ATOM      8  C   UNL     1      47.720   3.568  17.537  0.00  0.00    +0.000 C 
ATOM      9  O   UNL     1      48.653   3.624  18.324  0.00  0.00    +0.000 OA
BRANCH   8  10
ATOM     10  O   UNL     1      46.606   2.850  17.786  0.00  0.00    +0.000 OA
ATOM     11  H   UNL     1      46.675   1.885  17.684  0.00  0.00    +0.000 HD
ENDBRANCH   8  10
ENDBRANCH   4   8
BRANCH   7  12
ATOM     12  O   UNL     1      47.290   6.402  12.598  0.00  0.00    +0.000 OA
BRANCH  12  13
ATOM     13  C   UNL     1      46.046   7.156  12.518  0.00  0.00    +0.000 C 
BRANCH  13  14
ATOM     14  C   UNL     1      44.873   6.477  11.831  0.00  0.00    +0.000 C 
ATOM     15  C   UNL     1      43.911   5.885  12.854  0.00  0.00    +0.000 C 
ATOM     16  C   UNL     1      42.724   5.285  12.120  0.00  0.00    +0.000 C 
ATOM     17  C   UNL     1      43.188   4.276  11.070  0.00  0.00    +0.000 C 
ATOM     18  N   UNL     1      44.136   4.878  10.120  0.00  0.00    +0.000 NA
ATOM     19  C   UNL     1      44.545   3.896   9.117  0.00  0.00    +0.000 C 
ATOM     20  C   UNL     1      45.316   5.426  10.810  0.00  0.00    +0.000 C 
ENDBRANCH  13  14
ENDBRANCH  12  13
ENDBRANCH   7  12
TORSDOF 5
ENDMDL
