MODEL 1
REMARK VINA RESULT:    -8.713      0.000      0.000
REMARK INTER + INTRA:         -12.663
REMARK INTER:                 -11.514
REMARK INTRA:                  -1.148
REMARK UNBOUND:                -1.148
REMARK  Name = 
REMARK  6 active torsions:
REMARK  status: ('A' for Active; 'I' for Inactive)
REMARK    1  A    between atoms: C_2  and  C_4
REMARK    2  A    between atoms: C_7  and  O_8
REMARK    3  A    between atoms: O_8  and  C_9
REMARK    4  A    between atoms: C_9  and  C_10
REMARK    5  A    between atoms: C_15  and  N_16
REMARK    6  A    between atoms: C_19  and  N_20
REMARK                            x       y       z     vdW  Elec       q    Type
REMARK                         _______ _______ _______ _____ _____    ______ ____
ROOT
ATOM      1  C   UNL     1      44.648   4.626  12.101  0.00  0.00    +0.000 A 
ATOM      2  C   UNL     1      45.410   3.744  12.871  0.00  0.00    +0.000 A 
ATOM      3  C   UNL     1      46.557   4.202  13.501  0.00  0.00    +0.000 A 
ATOM      4  F   UNL     1      47.314   3.345  14.201  0.00  0.00    +0.000 F 
ATOM      5  C   UNL     1      46.956   5.530  13.391  0.00  0.00    +0.000 A 
ATOM      6  C   UNL     1      46.204   6.454  12.650  0.00  0.00    +0.000 A 
ATOM      7  C   UNL     1      45.045   5.977  12.016  0.00  0.00    +0.000 A 
ENDROOT
BRANCH   6   8
ATOM      8  N   UNL     1      46.667   7.760  12.521  0.00  0.00    +0.000 N 
ATOM      9  C   UNL     1      45.819   8.897  12.886  0.00  0.00    +0.000 C 
ATOM     10  C   UNL     1      46.231  10.107  12.044  0.00  0.00    +0.000 C 
ATOM     11  C   UNL     1      47.735  10.411  12.115  0.00  0.00    +0.000 C 
ATOM     12  C   UNL     1      48.562   9.142  11.872  0.00  0.00    +0.000 C 
ATOM     13  C   UNL     1      48.105   7.977  12.745  0.00  0.00    +0.000 C 
BRANCH  11  14
ATOM     14  N   UNL     1      48.107  11.044  13.386  0.00  0.00    +0.000 NA
ATOM     15  H   UNL     1      48.502  11.968  13.228  0.00  0.00    +0.000 HD
ATOM     16  H   UNL     1      48.837  10.495  13.840  0.00  0.00    +0.000 HD
ENDBRANCH  11  14
ENDBRANCH   6   8
BRANCH   1  17
ATOM     17  C   UNL     1      43.440   4.129  11.345  0.00  0.00    +0.000 C 
BRANCH  17  18
ATOM     18  O   UNL     1      43.565   4.444   9.961  0.00  0.00    +0.000 OA
BRANCH  18  22
ATOM     19  C   UNL     1      46.422   2.406   7.690  0.00  0.00    +0.000 A 
ATOM     20  C   UNL     1      45.586   1.665   8.531  0.00  0.00    +0.000 A 
ATOM     21  C   UNL     1      44.611   2.311   9.303  0.00  0.00    +0.000 A 
ATOM     22  C   UNL     1      44.469   3.700   9.245  0.00  0.00    +0.000 A 
ATOM     23  C   UNL     1      45.306   4.436   8.404  0.00  0.00    +0.000 A 
ATOM     24  C   UNL     1      46.284   3.795   7.634  0.00  0.00    +0.000 A 
BRANCH  19  26
ATOM     25  N   UNL     1      48.539   2.540   6.485  0.00  0.00    +0.000 N 
ATOM     26  C   UNL     1      47.487   1.761   6.878  0.00  0.00    +0.000 C 
ATOM     27  O   UNL     1      47.445   0.572   6.591  0.00  0.00    +0.000 OA
ATOM     28  H   UNL     1      49.300   2.059   6.024  0.00  0.00    +0.000 HD
ATOM     29  H   UNL     1      48.740   3.433   6.912  0.00  0.00    +0.000 HD
ENDBRANCH  19  26
ENDBRANCH  18  22
ENDBRANCH  17  18
ENDBRANCH   1  17
TORSDOF 6
ENDMDL
MODEL 2
REMARK VINA RESULT:    -8.462      2.763      4.106
REMARK INTER + INTRA:         -12.331
REMARK INTER:                 -11.521
REMARK INTRA:                  -0.811
REMARK UNBOUND:                -1.148
REMARK  Name = 
REMARK  6 active torsions:
REMARK  status: ('A' for Active; 'I' for Inactive)
REMARK    1  A    between atoms: C_2  and  C_4
REMARK    2  A    between atoms: C_7  and  O_8
REMARK    3  A    between atoms: O_8  and  C_9
REMARK    4  A    between atoms: C_9  and  C_10
REMARK    5  A    between atoms: C_15  and  N_16
REMARK    6  A    between atoms: C_19  and  N_20
REMARK                            x       y       z     vdW  Elec       q    Type
REMARK                         _______ _______ _______ _____ _____    ______ ____
ROOT
ATOM      1  C   UNL     1      45.479   5.049  12.363  0.00  0.00    +0.000 A 
ATOM      2  C   UNL     1      46.155   6.113  11.761  0.00  0.00    +0.000 A 
ATOM      3  C   UNL     1      47.237   6.690  12.410  0.00  0.00    +0.000 A 
ATOM      4  F   UNL     1      47.857   7.741  11.856  0.00  0.00    +0.000 F 
ATOM      5  C   UNL     1      47.669   6.217  13.645  0.00  0.00    +0.000 A 
ATOM      6  C   UNL     1      47.035   5.133  14.270  0.00  0.00    +0.000 A 
ATOM      7  C   UNL     1      45.940   4.559  13.602  0.00  0.00    +0.000 A 
ENDROOT
BRANCH   6   8
ATOM      8  N   UNL     1      47.464   4.727  15.530  0.00  0.00    +0.000 N 
ATOM      9  C   UNL     1      47.613   3.306  15.850  0.00  0.00    +0.000 C 
ATOM     10  C   UNL     1      47.400   3.116  17.354  0.00  0.00    +0.000 C 
ATOM     11  C   UNL     1      48.281   4.038  18.211  0.00  0.00    +0.000 C 
ATOM     12  C   UNL     1      48.192   5.489  17.723  0.00  0.00    +0.000 C 
ATOM     13  C   UNL     1      48.419   5.610  16.219  0.00  0.00    +0.000 C 
BRANCH  11  14
ATOM     14  N   UNL     1      49.675   3.583  18.251  0.00  0.00    +0.000 NA
ATOM     15  H   UNL     1      49.969   3.234  17.342  0.00  0.00    +0.000 HD
ATOM     16  H   UNL     1      49.761   2.800  18.899  0.00  0.00    +0.000 HD
ENDBRANCH  11  14
ENDBRANCH   6   8
BRANCH   1  17
ATOM     17  C   UNL     1      44.253   4.459  11.709  0.00  0.00    +0.000 C 
BRANCH  17  18
ATOM     18  O   UNL     1      44.233   4.787  10.322  0.00  0.00    +0.000 OA
BRANCH  18  22
ATOM     19  C   UNL     1      46.486   2.465   7.674  0.00  0.00    +0.000 A 
ATOM     20  C   UNL     1      45.703   1.814   8.633  0.00  0.00    +0.000 A 
ATOM     21  C   UNL     1      44.929   2.557   9.533  0.00  0.00    +0.000 A 
ATOM     22  C   UNL     1      44.935   3.954   9.488  0.00  0.00    +0.000 A 
ATOM     23  C   UNL     1      45.718   4.600   8.529  0.00  0.00    +0.000 A 
ATOM     24  C   UNL     1      46.496   3.862   7.630  0.00  0.00    +0.000 A 
BRANCH  19  26
ATOM     25  N   UNL     1      48.420   2.369   6.192  0.00  0.00    +0.000 N 
ATOM     26  C   UNL     1      47.343   1.715   6.720  0.00  0.00    +0.000 C 
ATOM     27  O   UNL     1      47.116   0.545   6.436  0.00  0.00    +0.000 OA
ATOM     28  H   UNL     1      49.047   1.809   5.627  0.00  0.00    +0.000 HD
ATOM     29  H   UNL     1      48.786   3.221   6.591  0.00  0.00    +0.000 HD
ENDBRANCH  19  26
ENDBRANCH  18  22
ENDBRANCH  17  18
ENDBRANCH   1  17
TORSDOF 6
ENDMDL
MODEL 3
REMARK VINA RESULT:    -7.681      2.097      2.679
REMARK INTER + INTRA:         -11.299
REMARK INTER:                 -10.473
REMARK INTRA:                  -0.826
REMARK UNBOUND:                -1.148
REMARK  Name = 
REMARK  6 active torsions:
REMARK  status: ('A' for Active; 'I' for Inactive)
REMARK    1  A    between atoms: C_2  and  C_4
REMARK    2  A    between atoms: C_7  and  O_8
REMARK    3  A    between atoms: O_8  and  C_9
REMARK    4  A    between atoms: C_9  and  C_10
REMARK    5  A    between atoms: C_15  and  N_16
REMARK    6  A    between atoms: C_19  and  N_20
REMARK                            x       y       z     vdW  Elec       q    Type
REMARK                         _______ _______ _______ _____ _____    ______ ____
ROOT
ATOM      1  C   UNL     1      44.709   5.248  11.710  0.00  0.00    +0.000 A 
ATOM      2  C   UNL     1      43.843   6.248  11.262  0.00  0.00    +0.000 A 
ATOM      3  C   UNL     1      44.202   7.579  11.408  0.00  0.00    +0.000 A 
ATOM      4  F   UNL     1      43.351   8.540  11.021  0.00  0.00    +0.000 F 
ATOM      5  C   UNL     1      45.419   7.936  11.980  0.00  0.00    +0.000 A 
ATOM      6  C   UNL     1      46.328   6.962  12.418  0.00  0.00    +0.000 A 
ATOM      7  C   UNL     1      45.951   5.618  12.266  0.00  0.00    +0.000 A 
ENDROOT
BRANCH   6   8
ATOM      8  N   UNL     1      47.510   7.363  13.034  0.00  0.00    +0.000 N 
ATOM      9  C   UNL     1      48.130   6.539  14.074  0.00  0.00    +0.000 C 
ATOM     10  C   UNL     1      48.921   7.451  15.016  0.00  0.00    +0.000 C 
ATOM     11  C   UNL     1      49.911   8.368  14.283  0.00  0.00    +0.000 C 
ATOM     12  C   UNL     1      49.227   9.085  13.112  0.00  0.00    +0.000 C 
ATOM     13  C   UNL     1      48.463   8.121  12.209  0.00  0.00    +0.000 C 
BRANCH  11  14
ATOM     14  N   UNL     1      51.101   7.640  13.829  0.00  0.00    +0.000 NA
ATOM     15  H   UNL     1      50.879   7.038  13.039  0.00  0.00    +0.000 HD
ATOM     16  H   UNL     1      51.430   7.025  14.573  0.00  0.00    +0.000 HD
ENDBRANCH  11  14
ENDBRANCH   6   8
BRANCH   1  17
ATOM     17  C   UNL     1      44.303   3.796  11.631  0.00  0.00    +0.000 C 
BRANCH  17  18
ATOM     18  O   UNL     1      43.769   3.508  10.341  0.00  0.00    +0.000 OA
BRANCH  18  22
ATOM     19  C   UNL     1      46.546   2.529   7.373  0.00  0.00    +0.000 A 
ATOM     20  C   UNL     1      46.025   1.500   8.164  0.00  0.00    +0.000 A 
ATOM     21  C   UNL     1      45.086   1.787   9.165  0.00  0.00    +0.000 A 
ATOM     22  C   UNL     1      44.667   3.102   9.387  0.00  0.00    +0.000 A 
ATOM     23  C   UNL     1      45.191   4.126   8.594  0.00  0.00    +0.000 A 
ATOM     24  C   UNL     1      46.131   3.845   7.597  0.00  0.00    +0.000 A 
BRANCH  19  26
ATOM     25  N   UNL     1      47.547   3.074   5.217  0.00  0.00    +0.000 N 
ATOM     26  C   UNL     1      47.564   2.270   6.322  0.00  0.00    +0.000 C 
ATOM     27  O   UNL     1      48.406   1.391   6.447  0.00  0.00    +0.000 OA
ATOM     28  H   UNL     1      48.310   2.949   4.564  0.00  0.00    +0.000 HD
ATOM     29  H   UNL     1      47.054   3.955   5.196  0.00  0.00    +0.000 HD
ENDBRANCH  19  26
ENDBRANCH  18  22
ENDBRANCH  17  18
ENDBRANCH   1  17
TORSDOF 6
ENDMDL
MODEL 4
REMARK VINA RESULT:    -7.114      2.825      7.028
REMARK INTER + INTRA:         -10.550
REMARK INTER:                  -9.507
REMARK INTRA:                  -1.043
REMARK UNBOUND:                -1.148
REMARK  Name = 
REMARK  6 active torsions:
REMARK  status: ('A' for Active; 'I' for Inactive)
REMARK    1  A    between atoms: C_2  and  C_4
REMARK    2  A    between atoms: C_7  and  O_8
REMARK    3  A    between atoms: O_8  and  C_9
REMARK    4  A    between atoms: C_9  and  C_10
REMARK    5  A    between atoms: C_15  and  N_16
REMARK    6  A    between atoms: C_19  and  N_20
REMARK                            x       y       z     vdW  Elec       q    Type
REMARK                         _______ _______ _______ _____ _____    ______ ____
ROOT
ATOM      1  C   UNL     1      44.431   5.174  10.855  0.00  0.00    +0.000 A 
ATOM      2  C   UNL     1      43.696   4.210  11.548  0.00  0.00    +0.000 A 
ATOM      3  C   UNL     1      43.699   2.897  11.101  0.00  0.00    +0.000 A 
ATOM      4  F   UNL     1      42.956   1.981  11.738  0.00  0.00    +0.000 F 
ATOM      5  C   UNL     1      44.435   2.520   9.982  0.00  0.00    +0.000 A 
ATOM      6  C   UNL     1      45.208   3.452   9.275  0.00  0.00    +0.000 A 
ATOM      7  C   UNL     1      45.195   4.779   9.736  0.00  0.00    +0.000 A 
ENDROOT
BRANCH   6   8
ATOM      8  N   UNL     1      45.885   3.045   8.129  0.00  0.00    +0.000 N 
ATOM      9  C   UNL     1      46.704   3.989   7.366  0.00  0.00    +0.000 C 
ATOM     10  C   UNL     1      46.735   3.541   5.902  0.00  0.00    +0.000 C 
ATOM     11  C   UNL     1      47.158   2.075   5.726  0.00  0.00    +0.000 C 
ATOM     12  C   UNL     1      46.362   1.160   6.667  0.00  0.00    +0.000 C 
ATOM     13  C   UNL     1      46.376   1.658   8.109  0.00  0.00    +0.000 C 
BRANCH  11  14
ATOM     14  N   UNL     1      48.601   1.893   5.916  0.00  0.00    +0.000 NA
ATOM     15  H   UNL     1      48.809   0.951   6.238  0.00  0.00    +0.000 HD
ATOM     16  H   UNL     1      48.933   2.524   6.645  0.00  0.00    +0.000 HD
ENDBRANCH  11  14
ENDBRANCH   6   8
BRANCH   1  17
ATOM     17  C   UNL     1      44.380   6.622  11.279  0.00  0.00    +0.000 C 
BRANCH  17  18
ATOM     18  O   UNL     1      44.984   6.778  12.560  0.00  0.00    +0.000 OA
BRANCH  18  22
ATOM     19  C   UNL     1      49.051   7.747  12.531  0.00  0.00    +0.000 A 
ATOM     20  C   UNL     1      48.673   6.467  12.948  0.00  0.00    +0.000 A 
ATOM     21  C   UNL     1      47.320   6.101  12.965  0.00  0.00    +0.000 A 
ATOM     22  C   UNL     1      46.335   7.013  12.573  0.00  0.00    +0.000 A 
ATOM     23  C   UNL     1      46.718   8.290  12.157  0.00  0.00    +0.000 A 
ATOM     24  C   UNL     1      48.067   8.661  12.142  0.00  0.00    +0.000 A 
BRANCH  19  26
ATOM     25  N   UNL     1      51.329   7.524  11.690  0.00  0.00    +0.000 N 
ATOM     26  C   UNL     1      50.471   8.182  12.526  0.00  0.00    +0.000 C 
ATOM     27  O   UNL     1      50.860   9.113  13.219  0.00  0.00    +0.000 OA
ATOM     28  H   UNL     1      52.265   7.903  11.626  0.00  0.00    +0.000 HD
ATOM     29  H   UNL     1      51.005   6.945  10.928  0.00  0.00    +0.000 HD
ENDBRANCH  19  26
ENDBRANCH  18  22
ENDBRANCH  17  18
ENDBRANCH   1  17
TORSDOF 6
ENDMDL
MODEL 5
REMARK VINA RESULT:    -6.932      2.741      7.408
REMARK INTER + INTRA:         -10.310
REMARK INTER:                  -9.515
REMARK INTRA:                  -0.795
REMARK UNBOUND:                -1.148
REMARK  Name = 
REMARK  6 active torsions:
REMARK  status: ('A' for Active; 'I' for Inactive)
REMARK    1  A    between atoms: C_2  and  C_4
REMARK    2  A    between atoms: C_7  and  O_8
REMARK    3  A    between atoms: O_8  and  C_9
REMARK    4  A    between atoms: C_9  and  C_10
REMARK    5  A    between atoms: C_15  and  N_16
REMARK    6  A    between atoms: C_19  and  N_20
REMARK                            x       y       z     vdW  Elec       q    Type
REMARK                         _______ _______ _______ _____ _____    ______ ____
ROOT
ATOM      1  C   UNL     1      44.368   5.133  10.894  0.00  0.00    +0.000 A 
ATOM      2  C   UNL     1      43.614   4.160  11.555  0.00  0.00    +0.000 A 
ATOM      3  C   UNL     1      43.622   2.854  11.088  0.00  0.00    +0.000 A 
ATOM      4  F   UNL     1      42.862   1.931  11.694  0.00  0.00    +0.000 F 
ATOM      5  C   UNL     1      44.380   2.493   9.980  0.00  0.00    +0.000 A 
ATOM      6  C   UNL     1      45.173   3.433   9.305  0.00  0.00    +0.000 A 
ATOM      7  C   UNL     1      45.155   4.752   9.787  0.00  0.00    +0.000 A 
ENDROOT
BRANCH   6   8
ATOM      8  N   UNL     1      45.873   3.041   8.168  0.00  0.00    +0.000 N 
ATOM      9  C   UNL     1      46.609   4.020   7.366  0.00  0.00    +0.000 C 
ATOM     10  C   UNL     1      46.668   3.525   5.918  0.00  0.00    +0.000 C 
ATOM     11  C   UNL     1      47.205   2.092   5.789  0.00  0.00    +0.000 C 
ATOM     12  C   UNL     1      46.492   1.150   6.768  0.00  0.00    +0.000 C 
ATOM     13  C   UNL     1      46.475   1.698   8.191  0.00  0.00    +0.000 C 
BRANCH  11  14
ATOM     14  N   UNL     1      48.660   2.034   5.972  0.00  0.00    +0.000 NA
ATOM     15  H   UNL     1      49.093   2.920   5.721  0.00  0.00    +0.000 HD
ATOM     16  H   UNL     1      49.056   1.335   5.343  0.00  0.00    +0.000 HD
ENDBRANCH  11  14
ENDBRANCH   6   8
BRANCH   1  17
ATOM     17  C   UNL     1      44.312   6.573  11.340  0.00  0.00    +0.000 C 
BRANCH  17  18
ATOM     18  O   UNL     1      45.565   7.208  11.101  0.00  0.00    +0.000 OA
BRANCH  18  22
ATOM     19  C   UNL     1      48.186   7.378  14.354  0.00  0.00    +0.000 A 
ATOM     20  C   UNL     1      47.462   8.528  14.019  0.00  0.00    +0.000 A 
ATOM     21  C   UNL     1      46.569   8.509  12.940  0.00  0.00    +0.000 A 
ATOM     22  C   UNL     1      46.396   7.345  12.184  0.00  0.00    +0.000 A 
ATOM     23  C   UNL     1      47.121   6.200  12.522  0.00  0.00    +0.000 A 
ATOM     24  C   UNL     1      48.017   6.216  13.597  0.00  0.00    +0.000 A 
BRANCH  19  26
ATOM     25  N   UNL     1      49.018   8.313  16.447  0.00  0.00    +0.000 N 
ATOM     26  C   UNL     1      49.164   7.366  15.472  0.00  0.00    +0.000 C 
ATOM     27  O   UNL     1      50.051   6.525  15.540  0.00  0.00    +0.000 OA
ATOM     28  H   UNL     1      49.629   8.222  17.249  0.00  0.00    +0.000 HD
ATOM     29  H   UNL     1      48.166   8.842  16.565  0.00  0.00    +0.000 HD
ENDBRANCH  19  26
ENDBRANCH  18  22
ENDBRANCH  17  18
ENDBRANCH   1  17
TORSDOF 6
ENDMDL
MODEL 6
REMARK VINA RESULT:    -6.821      5.142      7.898
REMARK INTER + INTRA:         -10.163
REMARK INTER:                  -9.212
REMARK INTRA:                  -0.951
REMARK UNBOUND:                -1.148
REMARK  Name = 
REMARK  6 active torsions:
REMARK  status: ('A' for Active; 'I' for Inactive)
REMARK    1  A    between atoms: C_2  and  C_4
REMARK    2  A    between atoms: C_7  and  O_8
REMARK    3  A    between atoms: O_8  and  C_9
REMARK    4  A    between atoms: C_9  and  C_10
REMARK    5  A    between atoms: C_15  and  N_16
REMARK    6  A    between atoms: C_19  and  N_20
REMARK                            x       y       z     vdW  Elec       q    Type
REMARK                         _______ _______ _______ _____ _____    ______ ____
ROOT
ATOM      1  C   UNL     1      48.274   6.708  14.417  0.00  0.00    +0.000 A 
ATOM      2  C   UNL     1      49.002   7.404  13.448  0.00  0.00    +0.000 A 
ATOM      3  C   UNL     1      48.564   7.400  12.132  0.00  0.00    +0.000 A 
ATOM      4  F   UNL     1      49.287   8.027  11.194  0.00  0.00    +0.000 F 
ATOM      5  C   UNL     1      47.405   6.727  11.763  0.00  0.00    +0.000 A 
ATOM      6  C   UNL     1      46.631   6.040  12.710  0.00  0.00    +0.000 A 
ATOM      7  C   UNL     1      47.085   6.051  14.039  0.00  0.00    +0.000 A 
ENDROOT
BRANCH   6   8
ATOM      8  N   UNL     1      45.508   5.334  12.288  0.00  0.00    +0.000 N 
ATOM      9  C   UNL     1      45.374   4.899  10.897  0.00  0.00    +0.000 C 
ATOM     10  C   UNL     1      43.885   4.810  10.551  0.00  0.00    +0.000 C 
ATOM     11  C   UNL     1      43.083   3.956  11.544  0.00  0.00    +0.000 C 
ATOM     12  C   UNL     1      43.388   4.368  12.990  0.00  0.00    +0.000 C 
ATOM     13  C   UNL     1      44.887   4.432  13.271  0.00  0.00    +0.000 C 
BRANCH  11  14
ATOM     14  N   UNL     1      43.316   2.521  11.348  0.00  0.00    +0.000 NA
ATOM     15  H   UNL     1      42.616   2.122  10.727  0.00  0.00    +0.000 HD
ATOM     16  H   UNL     1      43.219   2.033  12.238  0.00  0.00    +0.000 HD
ENDBRANCH  11  14
ENDBRANCH   6   8
BRANCH   1  17
ATOM     17  C   UNL     1      48.775   6.637  15.839  0.00  0.00    +0.000 C 
BRANCH  17  18
ATOM     18  O   UNL     1      48.199   5.515  16.505  0.00  0.00    +0.000 OA
BRANCH  18  22
ATOM     19  C   UNL     1      50.949   2.497  17.401  0.00  0.00    +0.000 A 
ATOM     20  C   UNL     1      49.661   2.128  17.001  0.00  0.00    +0.000 A 
ATOM     21  C   UNL     1      48.713   3.110  16.685  0.00  0.00    +0.000 A 
ATOM     22  C   UNL     1      49.042   4.466  16.772  0.00  0.00    +0.000 A 
ATOM     23  C   UNL     1      50.329   4.830  17.172  0.00  0.00    +0.000 A 
ATOM     24  C   UNL     1      51.279   3.852  17.493  0.00  0.00    +0.000 A 
BRANCH  19  26
ATOM     25  N   UNL     1      51.533   0.245  18.134  0.00  0.00    +0.000 N 
ATOM     26  C   UNL     1      51.974   1.487  17.772  0.00  0.00    +0.000 C 
ATOM     27  O   UNL     1      53.171   1.740  17.729  0.00  0.00    +0.000 OA
ATOM     28  H   UNL     1      52.248  -0.455  18.282  0.00  0.00    +0.000 HD
ATOM     29  H   UNL     1      50.597  -0.077  17.932  0.00  0.00    +0.000 HD
ENDBRANCH  19  26
ENDBRANCH  18  22
ENDBRANCH  17  18
ENDBRANCH   1  17
TORSDOF 6
ENDMDL
MODEL 7
REMARK VINA RESULT:    -6.535      3.895      6.073
REMARK INTER + INTRA:          -9.784
REMARK INTER:                  -8.790
REMARK INTRA:                  -0.995
REMARK UNBOUND:                -1.148
REMARK  Name = 
REMARK  6 active torsions:
REMARK  status: ('A' for Active; 'I' for Inactive)
REMARK    1  A    between atoms: C_2  and  C_4
REMARK    2  A    between atoms: C_7  and  O_8
REMARK    3  A    between atoms: O_8  and  C_9
REMARK    4  A    between atoms: C_9  and  C_10
REMARK    5  A    between atoms: C_15  and  N_16
REMARK    6  A    between atoms: C_19  and  N_20
REMARK                            x       y       z     vdW  Elec       q    Type
REMARK                         _______ _______ _______ _____ _____    ______ ____
ROOT
ATOM      1  C   UNL     1      48.176   7.815  13.734  0.00  0.00    +0.000 A 
ATOM      2  C   UNL     1      48.322   9.035  14.398  0.00  0.00    +0.000 A 
ATOM      3  C   UNL     1      48.609   9.045  15.755  0.00  0.00    +0.000 A 
ATOM      4  F   UNL     1      48.702  10.215  16.402  0.00  0.00    +0.000 F 
ATOM      5  C   UNL     1      48.768   7.859  16.464  0.00  0.00    +0.000 A 
ATOM      6  C   UNL     1      48.657   6.613  15.829  0.00  0.00    +0.000 A 
ATOM      7  C   UNL     1      48.365   6.617  14.455  0.00  0.00    +0.000 A 
ENDROOT
BRANCH   6   8
ATOM      8  N   UNL     1      48.770   5.451  16.586  0.00  0.00    +0.000 N 
ATOM      9  C   UNL     1      49.850   5.293  17.562  0.00  0.00    +0.000 C 
ATOM     10  C   UNL     1      50.164   3.802  17.711  0.00  0.00    +0.000 C 
ATOM     11  C   UNL     1      48.924   2.950  18.019  0.00  0.00    +0.000 C 
ATOM     12  C   UNL     1      47.780   3.278  17.051  0.00  0.00    +0.000 C 
ATOM     13  C   UNL     1      47.514   4.777  16.953  0.00  0.00    +0.000 C 
BRANCH  11  14
ATOM     14  N   UNL     1      48.488   3.098  19.413  0.00  0.00    +0.000 NA
ATOM     15  H   UNL     1      48.925   2.396  20.006  0.00  0.00    +0.000 HD
ATOM     16  H   UNL     1      47.483   2.941  19.476  0.00  0.00    +0.000 HD
ENDBRANCH  11  14
ENDBRANCH   6   8
BRANCH   1  17
ATOM     17  C   UNL     1      47.789   7.782  12.276  0.00  0.00    +0.000 C 
BRANCH  17  18
ATOM     18  O   UNL     1      46.370   7.837  12.145  0.00  0.00    +0.000 OA
BRANCH  18  22
ATOM     19  C   UNL     1      44.514   4.186  11.310  0.00  0.00    +0.000 A 
ATOM     20  C   UNL     1      44.431   4.694  12.610  0.00  0.00    +0.000 A 
ATOM     21  C   UNL     1      45.034   5.918  12.928  0.00  0.00    +0.000 A 
ATOM     22  C   UNL     1      45.729   6.640  11.953  0.00  0.00    +0.000 A 
ATOM     23  C   UNL     1      45.809   6.128  10.656  0.00  0.00    +0.000 A 
ATOM     24  C   UNL     1      45.212   4.903  10.335  0.00  0.00    +0.000 A 
BRANCH  19  26
ATOM     25  N   UNL     1      44.496   2.183   9.919  0.00  0.00    +0.000 N 
ATOM     26  C   UNL     1      43.913   2.878  10.941  0.00  0.00    +0.000 C 
ATOM     27  O   UNL     1      42.950   2.421  11.542  0.00  0.00    +0.000 OA
ATOM     28  H   UNL     1      44.137   1.251   9.753  0.00  0.00    +0.000 HD
ATOM     29  H   UNL     1      45.425   2.392   9.583  0.00  0.00    +0.000 HD
ENDBRANCH  19  26
ENDBRANCH  18  22
ENDBRANCH  17  18
ENDBRANCH   1  17
TORSDOF 6
ENDMDL
MODEL 8
REMARK VINA RESULT:    -6.414      4.640      8.545
REMARK INTER + INTRA:          -9.625
REMARK INTER:                  -8.769
REMARK INTRA:                  -0.855
REMARK UNBOUND:                -1.148
REMARK  Name = 
REMARK  6 active torsions:
REMARK  status: ('A' for Active; 'I' for Inactive)
REMARK    1  A    between atoms: C_2  and  C_4
REMARK    2  A    between atoms: C_7  and  O_8
REMARK    3  A    between atoms: O_8  and  C_9
REMARK    4  A    between atoms: C_9  and  C_10
REMARK    5  A    between atoms: C_15  and  N_16
REMARK    6  A    between atoms: C_19  and  N_20
REMARK                            x       y       z     vdW  Elec       q    Type
REMARK                         _______ _______ _______ _____ _____    ______ ____
ROOT
ATOM      1  C   UNL     1      46.999   7.241  13.222  0.00  0.00    +0.000 A 
ATOM      2  C   UNL     1      46.247   8.407  13.064  0.00  0.00    +0.000 A 
ATOM      3  C   UNL     1      45.177   8.416  12.181  0.00  0.00    +0.000 A 
ATOM      4  F   UNL     1      44.485   9.549  11.994  0.00  0.00    +0.000 F 
ATOM      5  C   UNL     1      44.830   7.278  11.461  0.00  0.00    +0.000 A 
ATOM      6  C   UNL     1      45.542   6.079  11.612  0.00  0.00    +0.000 A 
ATOM      7  C   UNL     1      46.625   6.083  12.508  0.00  0.00    +0.000 A 
ENDROOT
BRANCH   6   8
ATOM      8  N   UNL     1      45.196   4.979  10.832  0.00  0.00    +0.000 N 
ATOM      9  C   UNL     1      45.657   4.868   9.447  0.00  0.00    +0.000 C 
ATOM     10  C   UNL     1      44.642   4.037   8.657  0.00  0.00    +0.000 C 
ATOM     11  C   UNL     1      44.326   2.685   9.313  0.00  0.00    +0.000 C 
ATOM     12  C   UNL     1      44.000   2.861  10.802  0.00  0.00    +0.000 C 
ATOM     13  C   UNL     1      45.052   3.692  11.531  0.00  0.00    +0.000 C 
BRANCH  11  14
ATOM     14  N   UNL     1      45.413   1.717   9.126  0.00  0.00    +0.000 NA
ATOM     15  H   UNL     1      45.404   1.015   9.862  0.00  0.00    +0.000 HD
ATOM     16  H   UNL     1      46.311   2.193   9.197  0.00  0.00    +0.000 HD
ENDBRANCH  11  14
ENDBRANCH   6   8
BRANCH   1  17
ATOM     17  C   UNL     1      48.213   7.233  14.119  0.00  0.00    +0.000 C 
BRANCH  17  18
ATOM     18  O   UNL     1      48.443   5.918  14.619  0.00  0.00    +0.000 OA
BRANCH  18  22
ATOM     19  C   UNL     1      48.238   5.692  18.788  0.00  0.00    +0.000 A 
ATOM     20  C   UNL     1      47.875   4.567  18.040  0.00  0.00    +0.000 A 
ATOM     21  C   UNL     1      47.937   4.601  16.641  0.00  0.00    +0.000 A 
ATOM     22  C   UNL     1      48.355   5.759  15.978  0.00  0.00    +0.000 A 
ATOM     23  C   UNL     1      48.716   6.880  16.730  0.00  0.00    +0.000 A 
ATOM     24  C   UNL     1      48.652   6.851  18.128  0.00  0.00    +0.000 A 
BRANCH  19  26
ATOM     25  N   UNL     1      48.171   4.499  20.914  0.00  0.00    +0.000 N 
ATOM     26  C   UNL     1      48.158   5.705  20.272  0.00  0.00    +0.000 C 
ATOM     27  O   UNL     1      48.112   6.753  20.903  0.00  0.00    +0.000 OA
ATOM     28  H   UNL     1      48.221   4.534  21.925  0.00  0.00    +0.000 HD
ATOM     29  H   UNL     1      48.468   3.647  20.461  0.00  0.00    +0.000 HD
ENDBRANCH  19  26
ENDBRANCH  18  22
ENDBRANCH  17  18
ENDBRANCH   1  17
TORSDOF 6
ENDMDL
MODEL 9
REMARK VINA RESULT:    -6.348      4.776      7.041
REMARK INTER + INTRA:          -9.537
REMARK INTER:                  -8.572
REMARK INTRA:                  -0.965
REMARK UNBOUND:                -1.148
REMARK  Name = 
REMARK  6 active torsions:
REMARK  status: ('A' for Active; 'I' for Inactive)
REMARK    1  A    between atoms: C_2  and  C_4
REMARK    2  A    between atoms: C_7  and  O_8
REMARK    3  A    between atoms: O_8  and  C_9
REMARK    4  A    between atoms: C_9  and  C_10
REMARK    5  A    between atoms: C_15  and  N_16
REMARK    6  A    between atoms: C_19  and  N_20
REMARK                            x       y       z     vdW  Elec       q    Type
REMARK                         _______ _______ _______ _____ _____    ______ ____
ROOT
ATOM      1  C   UNL     1      48.742   7.857  14.913  0.00  0.00    +0.000 A 
ATOM      2  C   UNL     1      48.496   9.200  15.209  0.00  0.00    +0.000 A 
ATOM      3  C   UNL     1      48.336   9.590  16.530  0.00  0.00    +0.000 A 
ATOM      4  F   UNL     1      48.052  10.869  16.812  0.00  0.00    +0.000 F 
ATOM      5  C   UNL     1      48.431   8.668  17.568  0.00  0.00    +0.000 A 
ATOM      6  C   UNL     1      48.705   7.316  17.315  0.00  0.00    +0.000 A 
ATOM      7  C   UNL     1      48.863   6.934  15.972  0.00  0.00    +0.000 A 
ENDROOT
BRANCH   6   8
ATOM      8  N   UNL     1      48.737   6.418  18.378  0.00  0.00    +0.000 N 
ATOM      9  C   UNL     1      47.538   6.158  19.177  0.00  0.00    +0.000 C 
ATOM     10  C   UNL     1      47.968   5.749  20.589  0.00  0.00    +0.000 C 
ATOM     11  C   UNL     1      48.982   4.596  20.603  0.00  0.00    +0.000 C 
ATOM     12  C   UNL     1      50.135   4.869  19.629  0.00  0.00    +0.000 C 
ATOM     13  C   UNL     1      49.640   5.264  18.241  0.00  0.00    +0.000 C 
BRANCH  11  14
ATOM     14  N   UNL     1      48.348   3.304  20.316  0.00  0.00    +0.000 NA
ATOM     15  H   UNL     1      48.733   2.572  20.909  0.00  0.00    +0.000 HD
ATOM     16  H   UNL     1      48.551   3.030  19.355  0.00  0.00    +0.000 HD
ENDBRANCH  11  14
ENDBRANCH   6   8
BRANCH   1  17
ATOM     17  C   UNL     1      48.843   7.400  13.478  0.00  0.00    +0.000 C 
BRANCH  17  18
ATOM     18  O   UNL     1      48.417   6.044  13.366  0.00  0.00    +0.000 OA
BRANCH  18  22
ATOM     19  C   UNL     1      44.516   5.299  12.060  0.00  0.00    +0.000 A 
ATOM     20  C   UNL     1      45.354   6.072  11.251  0.00  0.00    +0.000 A 
ATOM     21  C   UNL     1      46.671   6.338  11.650  0.00  0.00    +0.000 A 
ATOM     22  C   UNL     1      47.157   5.840  12.862  0.00  0.00    +0.000 A 
ATOM     23  C   UNL     1      46.316   5.068  13.667  0.00  0.00    +0.000 A 
ATOM     24  C   UNL     1      44.999   4.803  13.275  0.00  0.00    +0.000 A 
BRANCH  19  26
ATOM     25  N   UNL     1      42.216   6.053  11.761  0.00  0.00    +0.000 N 
ATOM     26  C   UNL     1      43.106   5.018  11.686  0.00  0.00    +0.000 C 
ATOM     27  O   UNL     1      42.752   3.913  11.297  0.00  0.00    +0.000 OA
ATOM     28  H   UNL     1      41.287   5.868  11.404  0.00  0.00    +0.000 HD
ATOM     29  H   UNL     1      42.511   7.017  11.820  0.00  0.00    +0.000 HD
ENDBRANCH  19  26
ENDBRANCH  18  22
ENDBRANCH  17  18
ENDBRANCH   1  17
TORSDOF 6
ENDMDL
