MODEL 1
REMARK VINA RESULT:    -7.181      0.000      0.000
REMARK INTER + INTRA:          -9.467
REMARK INTER:                  -8.860
REMARK INTRA:                  -0.607
REMARK UNBOUND:                -0.607
REMARK  Name = 
REMARK  6 active torsions:
REMARK  status: ('A' for Active; 'I' for Inactive)
REMARK    1  A    between atoms: C_1  and  C_2
REMARK    2  A    between atoms: C_2  and  C_3
REMARK    3  A    between atoms: C_2  and  C_4
REMARK    4  A    between atoms: C_2  and  C_15
REMARK    5  A    between atoms: C_5  and  C_6
REMARK    6  A    between atoms: C_9  and  C_10
REMARK                            x       y       z     vdW  Elec       q    Type
REMARK                         _______ _______ _______ _____ _____    ______ ____
ROOT
ATOM      1  C   UNL     1      45.283   5.027  12.697  0.00  0.00    +0.000 C 
ATOM      2  C   UNL     1      46.504   5.451  13.071  0.00  0.00    +0.000 C 
ENDROOT
BRANCH   2   3
ATOM      3  C   UNL     1      47.160   5.050  14.323  0.00  0.00    +0.000 A 
ATOM      4  C   UNL     1      47.875   5.945  15.127  0.00  0.00    +0.000 A 
ATOM      5  C   UNL     1      48.484   5.498  16.299  0.00  0.00    +0.000 A 
ATOM      6  C   UNL     1      48.370   4.154  16.629  0.00  0.00    +0.000 A 
ATOM      7  N   UNL     1      47.707   3.241  15.865  0.00  0.00    +0.000 NA
ATOM      8  C   UNL     1      47.130   3.717  14.734  0.00  0.00    +0.000 A 
BRANCH   6   9
ATOM      9  C   UNL     1      48.988   3.650  17.895  0.00  0.00    +0.000 C 
ATOM     10  N   UNL     1      48.107   3.263  18.869  0.00  0.00    +0.000 N 
ATOM     11  O   UNL     1      50.200   3.590  18.062  0.00  0.00    +0.000 OA
ATOM     12  H   UNL     1      47.109   3.335  18.695  0.00  0.00    +0.000 HD
ATOM     13  H   UNL     1      48.455   2.926  19.752  0.00  0.00    +0.000 HD
ENDBRANCH   6   9
ENDBRANCH   2   3
BRANCH   1  15
ATOM     14  C   UNL     1      43.024   5.382  11.762  0.00  0.00    +0.000 C 
ATOM     15  C   UNL     1      44.531   5.387  11.411  0.00  0.00    +0.000 C 
ATOM     16  C   UNL     1      44.902   6.844  11.037  0.00  0.00    +0.000 C 
BRANCH  15  17
ATOM     17  C   UNL     1      44.874   4.459  10.228  0.00  0.00    +0.000 A 
ATOM     18  C   UNL     1      44.418   3.128  10.151  0.00  0.00    +0.000 A 
ATOM     19  C   UNL     1      44.776   2.305   9.084  0.00  0.00    +0.000 A 
ATOM     20  F   UNL     1      44.328   1.042   9.057  0.00  0.00    +0.000 F 
ATOM     21  C   UNL     1      45.590   2.762   8.062  0.00  0.00    +0.000 A 
ATOM     22  C   UNL     1      46.038   4.071   8.116  0.00  0.00    +0.000 A 
ATOM     23  F   UNL     1      46.828   4.534   7.139  0.00  0.00    +0.000 F 
ATOM     24  C   UNL     1      45.692   4.914   9.175  0.00  0.00    +0.000 A 
ENDBRANCH  15  17
ENDBRANCH   1  15
TORSDOF 4
ENDMDL
MODEL 2
REMARK VINA RESULT:    -7.177      0.277      1.767
REMARK INTER + INTRA:          -9.462
REMARK INTER:                  -8.833
REMARK INTRA:                  -0.629
REMARK UNBOUND:                -0.607
REMARK  Name = 
REMARK  6 active torsions:
REMARK  status: ('A' for Active; 'I' for Inactive)
REMARK    1  A    between atoms: C_1  and  C_2
REMARK    2  A    between atoms: C_2  and  C_3
REMARK    3  A    between atoms: C_2  and  C_4
REMARK    4  A    between atoms: C_2  and  C_15
REMARK    5  A    between atoms: C_5  and  C_6
REMARK    6  A    between atoms: C_9  and  C_10
REMARK                            x       y       z     vdW  Elec       q    Type
REMARK                         _______ _______ _______ _____ _____    ______ ____
ROOT
ATOM      1  C   UNL     1      45.153   5.034  12.984  0.00  0.00    +0.000 C 
ATOM      2  C   UNL     1      46.457   5.280  13.202  0.00  0.00    +0.000 C 
ENDROOT
BRANCH   2   3
ATOM      3  C   UNL     1      47.154   4.944  14.452  0.00  0.00    +0.000 A 
ATOM      4  C   UNL     1      47.893   5.879  15.184  0.00  0.00    +0.000 A 
ATOM      5  C   UNL     1      48.540   5.493  16.358  0.00  0.00    +0.000 A 
ATOM      6  C   UNL     1      48.438   4.169  16.761  0.00  0.00    +0.000 A 
ATOM      7  N   UNL     1      47.752   3.217  16.067  0.00  0.00    +0.000 NA
ATOM      8  C   UNL     1      47.139   3.634  14.932  0.00  0.00    +0.000 A 
BRANCH   6   9
ATOM      9  C   UNL     1      49.098   3.731  18.031  0.00  0.00    +0.000 C 
ATOM     10  N   UNL     1      48.278   3.121  18.942  0.00  0.00    +0.000 N 
ATOM     11  O   UNL     1      50.290   3.907  18.253  0.00  0.00    +0.000 OA
ATOM     12  H   UNL     1      47.294   3.000  18.723  0.00  0.00    +0.000 HD
ATOM     13  H   UNL     1      48.653   2.813  19.824  0.00  0.00    +0.000 HD
ENDBRANCH   6   9
ENDBRANCH   2   3
BRANCH   1  15
ATOM     14  C   UNL     1      42.859   5.153  12.074  0.00  0.00    +0.000 C 
ATOM     15  C   UNL     1      44.352   5.342  11.714  0.00  0.00    +0.000 C 
ATOM     16  C   UNL     1      44.549   6.842  11.382  0.00  0.00    +0.000 C 
BRANCH  15  17
ATOM     17  C   UNL     1      44.786   4.494  10.502  0.00  0.00    +0.000 A 
ATOM     18  C   UNL     1      45.616   4.998   9.482  0.00  0.00    +0.000 A 
ATOM     19  C   UNL     1      45.962   4.216   8.381  0.00  0.00    +0.000 A 
ATOM     20  F   UNL     1      46.744   4.740   7.428  0.00  0.00    +0.000 F 
ATOM     21  C   UNL     1      45.504   2.916   8.249  0.00  0.00    +0.000 A 
ATOM     22  C   UNL     1      44.697   2.400   9.248  0.00  0.00    +0.000 A 
ATOM     23  F   UNL     1      44.242   1.145   9.140  0.00  0.00    +0.000 F 
ATOM     24  C   UNL     1      44.338   3.166  10.360  0.00  0.00    +0.000 A 
ENDBRANCH  15  17
ENDBRANCH   1  15
TORSDOF 4
ENDMDL
MODEL 3
REMARK VINA RESULT:    -7.139      1.730      2.052
REMARK INTER + INTRA:          -9.415
REMARK INTER:                  -8.801
REMARK INTRA:                  -0.614
REMARK UNBOUND:                -0.607
REMARK  Name = 
REMARK  6 active torsions:
REMARK  status: ('A' for Active; 'I' for Inactive)
REMARK    1  A    between atoms: C_1  and  C_2
REMARK    2  A    between atoms: C_2  and  C_3
REMARK    3  A    between atoms: C_2  and  C_4
REMARK    4  A    between atoms: C_2  and  C_15
REMARK    5  A    between atoms: C_5  and  C_6
REMARK    6  A    between atoms: C_9  and  C_10
REMARK                            x       y       z     vdW  Elec       q    Type
REMARK                         _______ _______ _______ _____ _____    ______ ____
ROOT
ATOM      1  C   UNL     1      45.379   4.606  11.689  0.00  0.00    +0.000 C 
ATOM      2  C   UNL     1      45.798   4.107  12.866  0.00  0.00    +0.000 C 
ENDROOT
BRANCH   2   3
ATOM      3  C   UNL     1      46.731   4.803  13.763  0.00  0.00    +0.000 A 
ATOM      4  C   UNL     1      47.339   6.019  13.430  0.00  0.00    +0.000 A 
ATOM      5  C   UNL     1      48.226   6.624  14.321  0.00  0.00    +0.000 A 
ATOM      6  C   UNL     1      48.490   5.982  15.524  0.00  0.00    +0.000 A 
ATOM      7  N   UNL     1      47.942   4.786  15.880  0.00  0.00    +0.000 NA
ATOM      8  C   UNL     1      47.087   4.232  14.985  0.00  0.00    +0.000 A 
BRANCH   6   9
ATOM      9  C   UNL     1      49.414   6.620  16.513  0.00  0.00    +0.000 C 
ATOM     10  N   UNL     1      48.808   7.224  17.582  0.00  0.00    +0.000 N 
ATOM     11  O   UNL     1      50.632   6.614  16.381  0.00  0.00    +0.000 OA
ATOM     12  H   UNL     1      47.795   7.214  17.652  0.00  0.00    +0.000 HD
ATOM     13  H   UNL     1      49.370   7.685  18.280  0.00  0.00    +0.000 HD
ENDBRANCH   6   9
ENDBRANCH   2   3
BRANCH   1  15
ATOM     14  C   UNL     1      43.585   2.918  11.502  0.00  0.00    +0.000 C 
ATOM     15  C   UNL     1      44.405   3.956  10.701  0.00  0.00    +0.000 C 
ATOM     16  C   UNL     1      43.412   5.047  10.228  0.00  0.00    +0.000 C 
BRANCH  15  17
ATOM     17  C   UNL     1      45.107   3.345   9.471  0.00  0.00    +0.000 A 
ATOM     18  C   UNL     1      45.285   1.957   9.311  0.00  0.00    +0.000 A 
ATOM     19  C   UNL     1      45.955   1.439   8.204  0.00  0.00    +0.000 A 
ATOM     20  F   UNL     1      46.112   0.113   8.098  0.00  0.00    +0.000 F 
ATOM     21  C   UNL     1      46.469   2.267   7.221  0.00  0.00    +0.000 A 
ATOM     22  C   UNL     1      46.293   3.634   7.356  0.00  0.00    +0.000 A 
ATOM     23  F   UNL     1      46.784   4.453   6.418  0.00  0.00    +0.000 F 
ATOM     24  C   UNL     1      45.625   4.174   8.457  0.00  0.00    +0.000 A 
ENDBRANCH  15  17
ENDBRANCH   1  15
TORSDOF 4
ENDMDL
MODEL 4
REMARK VINA RESULT:    -6.590      5.519      7.712
REMARK INTER + INTRA:          -8.738
REMARK INTER:                  -8.170
REMARK INTRA:                  -0.568
REMARK UNBOUND:                -0.607
REMARK  Name = 
REMARK  6 active torsions:
REMARK  status: ('A' for Active; 'I' for Inactive)
REMARK    1  A    between atoms: C_1  and  C_2
REMARK    2  A    between atoms: C_2  and  C_3
REMARK    3  A    between atoms: C_2  and  C_4
REMARK    4  A    between atoms: C_2  and  C_15
REMARK    5  A    between atoms: C_5  and  C_6
REMARK    6  A    between atoms: C_9  and  C_10
REMARK                            x       y       z     vdW  Elec       q    Type
REMARK                         _______ _______ _______ _____ _____    ______ ____
ROOT
ATOM      1  C   UNL     1      44.960   5.906  10.687  0.00  0.00    +0.000 C 
ATOM      2  C   UNL     1      44.562   4.698  10.252  0.00  0.00    +0.000 C 
ENDROOT
BRANCH   2   3
ATOM      3  C   UNL     1      45.301   3.901   9.263  0.00  0.00    +0.000 A 
ATOM      4  C   UNL     1      46.031   4.477   8.218  0.00  0.00    +0.000 A 
ATOM      5  C   UNL     1      46.703   3.665   7.304  0.00  0.00    +0.000 A 
ATOM      6  C   UNL     1      46.614   2.288   7.458  0.00  0.00    +0.000 A 
ATOM      7  N   UNL     1      45.894   1.682   8.444  0.00  0.00    +0.000 NA
ATOM      8  C   UNL     1      45.256   2.508   9.310  0.00  0.00    +0.000 A 
BRANCH   6   9
ATOM      9  C   UNL     1      47.346   1.390   6.511  0.00  0.00    +0.000 C 
ATOM     10  N   UNL     1      48.349   1.984   5.792  0.00  0.00    +0.000 N 
ATOM     11  O   UNL     1      47.071   0.204   6.375  0.00  0.00    +0.000 OA
ATOM     12  H   UNL     1      48.542   2.971   5.927  0.00  0.00    +0.000 HD
ATOM     13  H   UNL     1      48.874   1.441   5.126  0.00  0.00    +0.000 HD
ENDBRANCH   6   9
ENDBRANCH   2   3
BRANCH   1  15
ATOM     14  C   UNL     1      42.738   6.626  11.493  0.00  0.00    +0.000 C 
ATOM     15  C   UNL     1      44.259   6.798  11.718  0.00  0.00    +0.000 C 
ATOM     16  C   UNL     1      44.573   6.232  13.126  0.00  0.00    +0.000 C 
BRANCH  15  17
ATOM     17  C   UNL     1      44.711   8.271  11.653  0.00  0.00    +0.000 A 
ATOM     18  C   UNL     1      43.948   9.272  11.022  0.00  0.00    +0.000 A 
ATOM     19  C   UNL     1      44.402  10.588  10.950  0.00  0.00    +0.000 A 
ATOM     20  F   UNL     1      43.649  11.505  10.331  0.00  0.00    +0.000 F 
ATOM     21  C   UNL     1      45.618  10.960  11.497  0.00  0.00    +0.000 A 
ATOM     22  C   UNL     1      46.377   9.991  12.132  0.00  0.00    +0.000 A 
ATOM     23  F   UNL     1      47.557  10.330  12.666  0.00  0.00    +0.000 F 
ATOM     24  C   UNL     1      45.941   8.667  12.215  0.00  0.00    +0.000 A 
ENDBRANCH  15  17
ENDBRANCH   1  15
TORSDOF 4
ENDMDL
MODEL 5
REMARK VINA RESULT:    -6.581      4.130      4.976
REMARK INTER + INTRA:          -8.727
REMARK INTER:                  -8.152
REMARK INTRA:                  -0.575
REMARK UNBOUND:                -0.607
REMARK  Name = 
REMARK  6 active torsions:
REMARK  status: ('A' for Active; 'I' for Inactive)
REMARK    1  A    between atoms: C_1  and  C_2
REMARK    2  A    between atoms: C_2  and  C_3
REMARK    3  A    between atoms: C_2  and  C_4
REMARK    4  A    between atoms: C_2  and  C_15
REMARK    5  A    between atoms: C_5  and  C_6
REMARK    6  A    between atoms: C_9  and  C_10
REMARK                            x       y       z     vdW  Elec       q    Type
REMARK                         _______ _______ _______ _____ _____    ______ ____
ROOT
ATOM      1  C   UNL     1      45.655   5.528  10.695  0.00  0.00    +0.000 C 
ATOM      2  C   UNL     1      46.267   5.853  11.848  0.00  0.00    +0.000 C 
ENDROOT
BRANCH   2   3
ATOM      3  C   UNL     1      46.949   7.135  12.078  0.00  0.00    +0.000 A 
ATOM      4  C   UNL     1      48.246   7.397  11.625  0.00  0.00    +0.000 A 
ATOM      5  C   UNL     1      48.841   8.631  11.886  0.00  0.00    +0.000 A 
ATOM      6  C   UNL     1      48.119   9.570  12.611  0.00  0.00    +0.000 A 
ATOM      7  N   UNL     1      46.864   9.350  13.095  0.00  0.00    +0.000 NA
ATOM      8  C   UNL     1      46.323   8.137  12.819  0.00  0.00    +0.000 A 
BRANCH   6   9
ATOM      9  C   UNL     1      48.719  10.913  12.883  0.00  0.00    +0.000 C 
ATOM     10  N   UNL     1      48.314  11.516  14.044  0.00  0.00    +0.000 N 
ATOM     11  O   UNL     1      49.514  11.450  12.121  0.00  0.00    +0.000 OA
ATOM     12  H   UNL     1      47.648  11.041  14.645  0.00  0.00    +0.000 HD
ATOM     13  H   UNL     1      48.669  12.428  14.283  0.00  0.00    +0.000 HD
ENDBRANCH   6   9
ENDBRANCH   2   3
BRANCH   1  15
ATOM     14  C   UNL     1      44.932   3.374  11.664  0.00  0.00    +0.000 C 
ATOM     15  C   UNL     1      44.917   4.225  10.372  0.00  0.00    +0.000 C 
ATOM     16  C   UNL     1      43.436   4.579  10.083  0.00  0.00    +0.000 C 
BRANCH  15  17
ATOM     17  C   UNL     1      45.505   3.479   9.157  0.00  0.00    +0.000 A 
ATOM     18  C   UNL     1      45.929   4.144   7.991  0.00  0.00    +0.000 A 
ATOM     19  C   UNL     1      46.423   3.436   6.896  0.00  0.00    +0.000 A 
ATOM     20  F   UNL     1      46.806   4.109   5.803  0.00  0.00    +0.000 F 
ATOM     21  C   UNL     1      46.517   2.056   6.914  0.00  0.00    +0.000 A 
ATOM     22  C   UNL     1      46.115   1.385   8.057  0.00  0.00    +0.000 A 
ATOM     23  F   UNL     1      46.195   0.049   8.096  0.00  0.00    +0.000 F 
ATOM     24  C   UNL     1      45.617   2.074   9.165  0.00  0.00    +0.000 A 
ENDBRANCH  15  17
ENDBRANCH   1  15
TORSDOF 4
ENDMDL
MODEL 6
REMARK VINA RESULT:    -6.536      5.612      7.858
REMARK INTER + INTRA:          -8.671
REMARK INTER:                  -8.112
REMARK INTRA:                  -0.559
REMARK UNBOUND:                -0.607
REMARK  Name = 
REMARK  6 active torsions:
REMARK  status: ('A' for Active; 'I' for Inactive)
REMARK    1  A    between atoms: C_1  and  C_2
REMARK    2  A    between atoms: C_2  and  C_3
REMARK    3  A    between atoms: C_2  and  C_4
REMARK    4  A    between atoms: C_2  and  C_15
REMARK    5  A    between atoms: C_5  and  C_6
REMARK    6  A    between atoms: C_9  and  C_10
REMARK                            x       y       z     vdW  Elec       q    Type
REMARK                         _______ _______ _______ _____ _____    ______ ____
ROOT
ATOM      1  C   UNL     1      44.849   5.787  10.686  0.00  0.00    +0.000 C 
ATOM      2  C   UNL     1      44.435   4.675  10.052  0.00  0.00    +0.000 C 
ENDROOT
BRANCH   2   3
ATOM      3  C   UNL     1      45.248   3.943   9.070  0.00  0.00    +0.000 A 
ATOM      4  C   UNL     1      45.319   2.546   9.034  0.00  0.00    +0.000 A 
ATOM      5  C   UNL     1      46.119   1.912   8.083  0.00  0.00    +0.000 A 
ATOM      6  C   UNL     1      46.840   2.702   7.197  0.00  0.00    +0.000 A 
ATOM      7  N   UNL     1      46.822   4.064   7.211  0.00  0.00    +0.000 NA
ATOM      8  C   UNL     1      46.033   4.641   8.152  0.00  0.00    +0.000 A 
BRANCH   6   9
ATOM      9  C   UNL     1      47.684   2.051   6.147  0.00  0.00    +0.000 C 
ATOM     10  N   UNL     1      48.046   2.854   5.099  0.00  0.00    +0.000 N 
ATOM     11  O   UNL     1      48.028   0.877   6.207  0.00  0.00    +0.000 OA
ATOM     12  H   UNL     1      47.735   3.821   5.082  0.00  0.00    +0.000 HD
ATOM     13  H   UNL     1      48.604   2.477   4.350  0.00  0.00    +0.000 HD
ENDBRANCH   6   9
ENDBRANCH   2   3
BRANCH   1  15
ATOM     14  C   UNL     1      42.624   6.068  11.721  0.00  0.00    +0.000 C 
ATOM     15  C   UNL     1      44.075   6.604  11.725  0.00  0.00    +0.000 C 
ATOM     16  C   UNL     1      44.670   6.282  13.119  0.00  0.00    +0.000 C 
BRANCH  15  17
ATOM     17  C   UNL     1      44.153   8.125  11.482  0.00  0.00    +0.000 A 
ATOM     18  C   UNL     1      45.216   8.916  11.957  0.00  0.00    +0.000 A 
ATOM     19  C   UNL     1      45.238  10.294  11.750  0.00  0.00    +0.000 A 
ATOM     20  F   UNL     1      46.264  11.010  12.229  0.00  0.00    +0.000 F 
ATOM     21  C   UNL     1      44.218  10.937  11.070  0.00  0.00    +0.000 A 
ATOM     22  C   UNL     1      43.170  10.173  10.585  0.00  0.00    +0.000 A 
ATOM     23  F   UNL     1      42.171  10.774   9.926  0.00  0.00    +0.000 F 
ATOM     24  C   UNL     1      43.127   8.791  10.782  0.00  0.00    +0.000 A 
ENDBRANCH  15  17
ENDBRANCH   1  15
TORSDOF 4
ENDMDL
MODEL 7
REMARK VINA RESULT:    -6.399      1.506      1.957
REMARK INTER + INTRA:          -8.503
REMARK INTER:                  -7.873
REMARK INTRA:                  -0.629
REMARK UNBOUND:                -0.607
REMARK  Name = 
REMARK  6 active torsions:
REMARK  status: ('A' for Active; 'I' for Inactive)
REMARK    1  A    between atoms: C_1  and  C_2
REMARK    2  A    between atoms: C_2  and  C_3
REMARK    3  A    between atoms: C_2  and  C_4
REMARK    4  A    between atoms: C_2  and  C_15
REMARK    5  A    between atoms: C_5  and  C_6
REMARK    6  A    between atoms: C_9  and  C_10
REMARK                            x       y       z     vdW  Elec       q    Type
REMARK                         _______ _______ _______ _____ _____    ______ ____
ROOT
ATOM      1  C   UNL     1      46.407   6.217  13.496  0.00  0.00    +0.000 C 
ATOM      2  C   UNL     1      47.517   5.562  13.879  0.00  0.00    +0.000 C 
ENDROOT
BRANCH   2   3
ATOM      3  C   UNL     1      47.850   5.269  15.280  0.00  0.00    +0.000 A 
ATOM      4  C   UNL     1      48.605   6.135  16.078  0.00  0.00    +0.000 A 
ATOM      5  C   UNL     1      48.897   5.793  17.399  0.00  0.00    +0.000 A 
ATOM      6  C   UNL     1      48.430   4.578  17.882  0.00  0.00    +0.000 A 
ATOM      7  N   UNL     1      47.713   3.692  17.135  0.00  0.00    +0.000 NA
ATOM      8  C   UNL     1      47.453   4.062  15.857  0.00  0.00    +0.000 A 
BRANCH   6   9
ATOM      9  C   UNL     1      48.701   4.196  19.303  0.00  0.00    +0.000 C 
ATOM     10  N   UNL     1      48.241   2.963  19.680  0.00  0.00    +0.000 N 
ATOM     11  O   UNL     1      49.288   4.932  20.087  0.00  0.00    +0.000 OA
ATOM     12  H   UNL     1      47.753   2.385  19.003  0.00  0.00    +0.000 HD
ATOM     13  H   UNL     1      48.378   2.647  20.627  0.00  0.00    +0.000 HD
ENDBRANCH   6   9
ENDBRANCH   2   3
BRANCH   1  15
ATOM     14  C   UNL     1      45.078   7.812  12.155  0.00  0.00    +0.000 C 
ATOM     15  C   UNL     1      45.978   6.557  12.064  0.00  0.00    +0.000 C 
ATOM     16  C   UNL     1      47.246   6.968  11.275  0.00  0.00    +0.000 C 
BRANCH  15  17
ATOM     17  C   UNL     1      45.293   5.380  11.341  0.00  0.00    +0.000 A 
ATOM     18  C   UNL     1      44.486   4.442  12.013  0.00  0.00    +0.000 A 
ATOM     19  C   UNL     1      43.909   3.369  11.335  0.00  0.00    +0.000 A 
ATOM     20  F   UNL     1      43.157   2.495  12.017  0.00  0.00    +0.000 F 
ATOM     21  C   UNL     1      44.107   3.184   9.978  0.00  0.00    +0.000 A 
ATOM     22  C   UNL     1      44.889   4.103   9.298  0.00  0.00    +0.000 A 
ATOM     23  F   UNL     1      45.096   3.943   7.984  0.00  0.00    +0.000 F 
ATOM     24  C   UNL     1      45.476   5.186   9.957  0.00  0.00    +0.000 A 
ENDBRANCH  15  17
ENDBRANCH   1  15
TORSDOF 4
ENDMDL
MODEL 8
REMARK VINA RESULT:    -6.203      3.928      4.438
REMARK INTER + INTRA:          -8.261
REMARK INTER:                  -7.730
REMARK INTRA:                  -0.531
REMARK UNBOUND:                -0.607
REMARK  Name = 
REMARK  6 active torsions:
REMARK  status: ('A' for Active; 'I' for Inactive)
REMARK    1  A    between atoms: C_1  and  C_2
REMARK    2  A    between atoms: C_2  and  C_3
REMARK    3  A    between atoms: C_2  and  C_4
REMARK    4  A    between atoms: C_2  and  C_15
REMARK    5  A    between atoms: C_5  and  C_6
REMARK    6  A    between atoms: C_9  and  C_10
REMARK                            x       y       z     vdW  Elec       q    Type
REMARK                         _______ _______ _______ _____ _____    ______ ____
ROOT
ATOM      1  C   UNL     1      45.631   4.877  10.231  0.00  0.00    +0.000 C 
ATOM      2  C   UNL     1      45.188   5.773  11.131  0.00  0.00    +0.000 C 
ENDROOT
BRANCH   2   3
ATOM      3  C   UNL     1      46.035   6.812  11.734  0.00  0.00    +0.000 A 
ATOM      4  C   UNL     1      45.512   7.900  12.442  0.00  0.00    +0.000 A 
ATOM      5  C   UNL     1      46.370   8.859  12.982  0.00  0.00    +0.000 A 
ATOM      6  C   UNL     1      47.736   8.706  12.784  0.00  0.00    +0.000 A 
ATOM      7  N   UNL     1      48.288   7.679  12.080  0.00  0.00    +0.000 NA
ATOM      8  C   UNL     1      47.419   6.769  11.572  0.00  0.00    +0.000 A 
BRANCH   6   9
ATOM      9  C   UNL     1      48.683   9.703  13.375  0.00  0.00    +0.000 C 
ATOM     10  N   UNL     1      48.174  10.959  13.566  0.00  0.00    +0.000 N 
ATOM     11  O   UNL     1      49.841   9.425  13.665  0.00  0.00    +0.000 OA
ATOM     12  H   UNL     1      47.211  11.152  13.306  0.00  0.00    +0.000 HD
ATOM     13  H   UNL     1      48.761  11.683  13.948  0.00  0.00    +0.000 HD
ENDBRANCH   6   9
ENDBRANCH   2   3
BRANCH   1  15
ATOM     14  C   UNL     1      44.306   2.839  10.670  0.00  0.00    +0.000 C 
ATOM     15  C   UNL     1      44.820   3.771   9.548  0.00  0.00    +0.000 C 
ATOM     16  C   UNL     1      43.575   4.428   8.901  0.00  0.00    +0.000 C 
BRANCH  15  17
ATOM     17  C   UNL     1      45.616   3.018   8.462  0.00  0.00    +0.000 A 
ATOM     18  C   UNL     1      45.966   1.660   8.583  0.00  0.00    +0.000 A 
ATOM     19  C   UNL     1      46.717   1.018   7.599  0.00  0.00    +0.000 A 
ATOM     20  F   UNL     1      47.036  -0.273   7.760  0.00  0.00    +0.000 F 
ATOM     21  C   UNL     1      47.145   1.690   6.467  0.00  0.00    +0.000 A 
ATOM     22  C   UNL     1      46.800   3.024   6.326  0.00  0.00    +0.000 A 
ATOM     23  F   UNL     1      47.205   3.694   5.240  0.00  0.00    +0.000 F 
ATOM     24  C   UNL     1      46.049   3.686   7.300  0.00  0.00    +0.000 A 
ENDBRANCH  15  17
ENDBRANCH   1  15
TORSDOF 4
ENDMDL
MODEL 9
REMARK VINA RESULT:    -6.048      4.719      8.305
REMARK INTER + INTRA:          -8.070
REMARK INTER:                  -7.477
REMARK INTRA:                  -0.592
REMARK UNBOUND:                -0.607
REMARK  Name = 
REMARK  6 active torsions:
REMARK  status: ('A' for Active; 'I' for Inactive)
REMARK    1  A    between atoms: C_1  and  C_2
REMARK    2  A    between atoms: C_2  and  C_3
REMARK    3  A    between atoms: C_2  and  C_4
REMARK    4  A    between atoms: C_2  and  C_15
REMARK    5  A    between atoms: C_5  and  C_6
REMARK    6  A    between atoms: C_9  and  C_10
REMARK                            x       y       z     vdW  Elec       q    Type
REMARK                         _______ _______ _______ _____ _____    ______ ____
ROOT
ATOM      1  C   UNL     1      47.680   4.902  15.947  0.00  0.00    +0.000 C 
ATOM      2  C   UNL     1      47.568   5.566  14.782  0.00  0.00    +0.000 C 
ENDROOT
BRANCH   2   3
ATOM      3  C   UNL     1      46.760   5.095  13.648  0.00  0.00    +0.000 A 
ATOM      4  C   UNL     1      46.333   5.940  12.618  0.00  0.00    +0.000 A 
ATOM      5  C   UNL     1      45.559   5.433  11.574  0.00  0.00    +0.000 A 
ATOM      6  C   UNL     1      45.222   4.087  11.598  0.00  0.00    +0.000 A 
ATOM      7  N   UNL     1      45.593   3.232  12.593  0.00  0.00    +0.000 NA
ATOM      8  C   UNL     1      46.343   3.765  13.589  0.00  0.00    +0.000 A 
BRANCH   6   9
ATOM      9  C   UNL     1      44.417   3.507  10.479  0.00  0.00    +0.000 C 
ATOM     10  N   UNL     1      44.070   2.190  10.621  0.00  0.00    +0.000 N 
ATOM     11  O   UNL     1      44.090   4.156   9.492  0.00  0.00    +0.000 OA
ATOM     12  H   UNL     1      44.366   1.684  11.450  0.00  0.00    +0.000 HD
ATOM     13  H   UNL     1      43.539   1.732   9.898  0.00  0.00    +0.000 HD
ENDBRANCH   6   9
ENDBRANCH   2   3
BRANCH   1  15
ATOM     14  C   UNL     1      48.782   6.833  17.025  0.00  0.00    +0.000 C 
ATOM     15  C   UNL     1      48.488   5.322  17.179  0.00  0.00    +0.000 C 
ATOM     16  C   UNL     1      47.574   5.165  18.421  0.00  0.00    +0.000 C 
BRANCH  15  17
ATOM     17  C   UNL     1      49.765   4.481  17.382  0.00  0.00    +0.000 A 
ATOM     18  C   UNL     1      51.029   5.062  17.602  0.00  0.00    +0.000 A 
ATOM     19  C   UNL     1      52.169   4.273  17.746  0.00  0.00    +0.000 A 
ATOM     20  F   UNL     1      53.353   4.869  17.943  0.00  0.00    +0.000 F 
ATOM     21  C   UNL     1      52.103   2.892  17.681  0.00  0.00    +0.000 A 
ATOM     22  C   UNL     1      50.866   2.303  17.477  0.00  0.00    +0.000 A 
ATOM     23  F   UNL     1      50.780   0.969  17.408  0.00  0.00    +0.000 F 
ATOM     24  C   UNL     1      49.711   3.074  17.329  0.00  0.00    +0.000 A 
ENDBRANCH  15  17
ENDBRANCH   1  15
TORSDOF 4
ENDMDL
