MODEL 1
REMARK VINA RESULT:    -8.855      0.000      0.000
REMARK INTER + INTRA:         -13.584
REMARK INTER:                 -12.478
REMARK INTRA:                  -1.106
REMARK UNBOUND:                -1.106
REMARK  Name = 
REMARK  7 active torsions:
REMARK  status: ('A' for Active; 'I' for Inactive)
REMARK    1  A    between atoms: C_2  and  C_4
REMARK    2  A    between atoms: C_7  and  N_8
REMARK    3  A    between atoms: N_8  and  C_9
REMARK    4  A    between atoms: C_9  and  C_10
REMARK    5  A    between atoms: C_10  and  C_13
REMARK    6  A    between atoms: C_17  and  O_18
REMARK    7  A    between atoms: O_18  and  C_19
REMARK                            x       y       z     vdW  Elec       q    Type
REMARK                         _______ _______ _______ _____ _____    ______ ____
ROOT
ATOM      1  C   UNL     1      43.894   4.808  12.507  0.00  0.00    +0.000 C 
ATOM      2  F   UNL     1      43.025   5.516  13.292  0.00  0.00    +0.000 F 
ATOM      3  F   UNL     1      43.741   3.505  12.900  0.00  0.00    +0.000 F 
ENDROOT
BRANCH   1   4
ATOM      4  C   UNL     1      45.321   5.291  12.685  0.00  0.00    +0.000 A 
ATOM      5  C   UNL     1      45.894   6.190  11.773  0.00  0.00    +0.000 A 
ATOM      6  C   UNL     1      47.180   6.688  11.987  0.00  0.00    +0.000 A 
ATOM      7  C   UNL     1      47.920   6.284  13.104  0.00  0.00    +0.000 A 
ATOM      8  C   UNL     1      47.374   5.366  13.997  0.00  0.00    +0.000 A 
ATOM      9  C   UNL     1      46.085   4.872  13.784  0.00  0.00    +0.000 A 
BRANCH   8  10
ATOM     10  O   UNL     1      47.980   4.920  15.142  0.00  0.00    +0.000 OA
BRANCH  10  11
ATOM     11  C   UNL     1      47.238   4.074  16.056  0.00  0.00    +0.000 C 
ATOM     12  C   UNL     1      47.139   4.525  17.526  0.00  0.00    +0.000 C 
ATOM     13  N   UNL     1      47.661   3.227  17.978  0.00  0.00    +0.000 NA
ATOM     14  C   UNL     1      48.029   2.867  16.602  0.00  0.00    +0.000 C 
ATOM     15  H   UNL     1      46.961   2.614  18.395  0.00  0.00    +0.000 HD
ENDBRANCH  10  11
ENDBRANCH   8  10
ENDBRANCH   1   4
BRANCH   1  16
ATOM     16  C   UNL     1      43.436   4.916  11.033  0.00  0.00    +0.000 C 
BRANCH  16  17
ATOM     17  N   UNL     1      43.520   3.633  10.308  0.00  0.00    +0.000 N 
ATOM     18  H   UNL     1      43.177   2.826  10.829  0.00  0.00    +0.000 HD
BRANCH  17  22
ATOM     19  C   UNL     1      46.582   2.667   7.578  0.00  0.00    +0.000 A 
ATOM     20  C   UNL     1      46.187   3.997   7.726  0.00  0.00    +0.000 A 
ATOM     21  C   UNL     1      45.188   4.330   8.648  0.00  0.00    +0.000 A 
ATOM     22  C   UNL     1      44.583   3.359   9.455  0.00  0.00    +0.000 A 
ATOM     23  C   UNL     1      44.980   2.025   9.279  0.00  0.00    +0.000 A 
ATOM     24  C   UNL     1      45.965   1.677   8.346  0.00  0.00    +0.000 A 
BRANCH  19  26
ATOM     25  N   UNL     1      47.752   3.076   5.484  0.00  0.00    +0.000 N 
ATOM     26  C   UNL     1      47.613   2.274   6.584  0.00  0.00    +0.000 C 
ATOM     27  O   UNL     1      48.331   1.297   6.749  0.00  0.00    +0.000 OA
ATOM     28  H   UNL     1      48.521   2.860   4.866  0.00  0.00    +0.000 HD
ATOM     29  H   UNL     1      47.360   4.007   5.442  0.00  0.00    +0.000 HD
ENDBRANCH  19  26
ENDBRANCH  17  22
ENDBRANCH  16  17
ENDBRANCH   1  16
TORSDOF 7
ENDMDL
MODEL 2
REMARK VINA RESULT:    -7.974      1.536      1.804
REMARK INTER + INTRA:         -12.342
REMARK INTER:                 -11.902
REMARK INTRA:                  -0.441
REMARK UNBOUND:                -1.106
REMARK  Name = 
REMARK  7 active torsions:
REMARK  status: ('A' for Active; 'I' for Inactive)
REMARK    1  A    between atoms: C_2  and  C_4
REMARK    2  A    between atoms: C_7  and  N_8
REMARK    3  A    between atoms: N_8  and  C_9
REMARK    4  A    between atoms: C_9  and  C_10
REMARK    5  A    between atoms: C_10  and  C_13
REMARK    6  A    between atoms: C_17  and  O_18
REMARK    7  A    between atoms: O_18  and  C_19
REMARK                            x       y       z     vdW  Elec       q    Type
REMARK                         _______ _______ _______ _____ _____    ______ ____
ROOT
ATOM      1  C   UNL     1      44.063   4.107  12.524  0.00  0.00    +0.000 C 
ATOM      2  F   UNL     1      43.250   3.998  13.618  0.00  0.00    +0.000 F 
ATOM      3  F   UNL     1      44.798   2.951  12.514  0.00  0.00    +0.000 F 
ENDROOT
BRANCH   1   4
ATOM      4  C   UNL     1      44.944   5.339  12.608  0.00  0.00    +0.000 A 
ATOM      5  C   UNL     1      44.450   6.601  12.243  0.00  0.00    +0.000 A 
ATOM      6  C   UNL     1      45.243   7.740  12.397  0.00  0.00    +0.000 A 
ATOM      7  C   UNL     1      46.544   7.635  12.901  0.00  0.00    +0.000 A 
ATOM      8  C   UNL     1      47.056   6.384  13.234  0.00  0.00    +0.000 A 
ATOM      9  C   UNL     1      46.260   5.245  13.084  0.00  0.00    +0.000 A 
BRANCH   8  10
ATOM     10  O   UNL     1      48.296   6.153  13.767  0.00  0.00    +0.000 OA
BRANCH  10  11
ATOM     11  C   UNL     1      48.599   6.636  15.100  0.00  0.00    +0.000 C 
ATOM     12  C   UNL     1      50.079   6.875  15.455  0.00  0.00    +0.000 C 
ATOM     13  N   UNL     1      49.953   6.014  16.640  0.00  0.00    +0.000 NA
ATOM     14  C   UNL     1      48.636   5.544  16.189  0.00  0.00    +0.000 C 
ATOM     15  H   UNL     1      49.934   6.518  17.526  0.00  0.00    +0.000 HD
ENDBRANCH  10  11
ENDBRANCH   8  10
ENDBRANCH   1   4
BRANCH   1  16
ATOM     16  C   UNL     1      43.186   4.121  11.249  0.00  0.00    +0.000 C 
BRANCH  16  17
ATOM     17  N   UNL     1      43.873   4.707  10.082  0.00  0.00    +0.000 N 
ATOM     18  H   UNL     1      43.299   5.339   9.524  0.00  0.00    +0.000 HD
BRANCH  17  22
ATOM     19  C   UNL     1      46.486   2.381   7.732  0.00  0.00    +0.000 A 
ATOM     20  C   UNL     1      46.539   3.773   7.648  0.00  0.00    +0.000 A 
ATOM     21  C   UNL     1      45.692   4.554   8.442  0.00  0.00    +0.000 A 
ATOM     22  C   UNL     1      44.799   3.972   9.350  0.00  0.00    +0.000 A 
ATOM     23  C   UNL     1      44.747   2.572   9.409  0.00  0.00    +0.000 A 
ATOM     24  C   UNL     1      45.577   1.779   8.604  0.00  0.00    +0.000 A 
BRANCH  19  26
ATOM     25  N   UNL     1      48.473   2.096   6.357  0.00  0.00    +0.000 N 
ATOM     26  C   UNL     1      47.345   1.522   6.877  0.00  0.00    +0.000 C 
ATOM     27  O   UNL     1      47.081   0.346   6.670  0.00  0.00    +0.000 OA
ATOM     28  H   UNL     1      49.102   1.480   5.861  0.00  0.00    +0.000 HD
ATOM     29  H   UNL     1      48.844   2.969   6.705  0.00  0.00    +0.000 HD
ENDBRANCH  19  26
ENDBRANCH  17  22
ENDBRANCH  16  17
ENDBRANCH   1  16
TORSDOF 7
ENDMDL
MODEL 3
REMARK VINA RESULT:    -7.862      3.060      4.701
REMARK INTER + INTRA:         -12.185
REMARK INTER:                 -11.253
REMARK INTRA:                  -0.933
REMARK UNBOUND:                -1.106
REMARK  Name = 
REMARK  7 active torsions:
REMARK  status: ('A' for Active; 'I' for Inactive)
REMARK    1  A    between atoms: C_2  and  C_4
REMARK    2  A    between atoms: C_7  and  N_8
REMARK    3  A    between atoms: N_8  and  C_9
REMARK    4  A    between atoms: C_9  and  C_10
REMARK    5  A    between atoms: C_10  and  C_13
REMARK    6  A    between atoms: C_17  and  O_18
REMARK    7  A    between atoms: O_18  and  C_19
REMARK                            x       y       z     vdW  Elec       q    Type
REMARK                         _______ _______ _______ _____ _____    ______ ____
ROOT
ATOM      1  C   UNL     1      43.871   4.873  12.460  0.00  0.00    +0.000 C 
ATOM      2  F   UNL     1      42.974   5.150  13.454  0.00  0.00    +0.000 F 
ATOM      3  F   UNL     1      44.432   3.675  12.815  0.00  0.00    +0.000 F 
ENDROOT
BRANCH   1   4
ATOM      4  C   UNL     1      44.911   5.970  12.330  0.00  0.00    +0.000 A 
ATOM      5  C   UNL     1      46.281   5.666  12.343  0.00  0.00    +0.000 A 
ATOM      6  C   UNL     1      47.228   6.671  12.145  0.00  0.00    +0.000 A 
ATOM      7  C   UNL     1      46.825   7.996  11.946  0.00  0.00    +0.000 A 
ATOM      8  C   UNL     1      45.469   8.314  11.965  0.00  0.00    +0.000 A 
ATOM      9  C   UNL     1      44.522   7.307  12.160  0.00  0.00    +0.000 A 
BRANCH   8  10
ATOM     10  O   UNL     1      44.947   9.562  11.750  0.00  0.00    +0.000 OA
BRANCH  10  11
ATOM     11  C   UNL     1      43.765   9.705  10.923  0.00  0.00    +0.000 C 
ATOM     12  C   UNL     1      43.885  10.561   9.647  0.00  0.00    +0.000 C 
ATOM     13  N   UNL     1      42.739  11.381  10.066  0.00  0.00    +0.000 NA
ATOM     14  C   UNL     1      42.766  10.777  11.406  0.00  0.00    +0.000 C 
ATOM     15  H   UNL     1      41.881  11.201   9.546  0.00  0.00    +0.000 HD
ENDBRANCH  10  11
ENDBRANCH   8  10
ENDBRANCH   1   4
BRANCH   1  16
ATOM     16  C   UNL     1      43.099   4.661  11.136  0.00  0.00    +0.000 C 
BRANCH  16  17
ATOM     17  N   UNL     1      43.893   5.010   9.943  0.00  0.00    +0.000 N 
ATOM     18  H   UNL     1      43.424   5.634   9.286  0.00  0.00    +0.000 HD
BRANCH  17  22
ATOM     19  C   UNL     1      46.266   2.106   8.018  0.00  0.00    +0.000 A 
ATOM     20  C   UNL     1      46.479   3.459   7.748  0.00  0.00    +0.000 A 
ATOM     21  C   UNL     1      45.713   4.431   8.401  0.00  0.00    +0.000 A 
ATOM     22  C   UNL     1      44.743   4.083   9.349  0.00  0.00    +0.000 A 
ATOM     23  C   UNL     1      44.530   2.719   9.594  0.00  0.00    +0.000 A 
ATOM     24  C   UNL     1      45.278   1.736   8.933  0.00  0.00    +0.000 A 
BRANCH  19  26
ATOM     25  N   UNL     1      46.752  -0.248   7.649  0.00  0.00    +0.000 N 
ATOM     26  C   UNL     1      47.037   1.048   7.317  0.00  0.00    +0.000 C 
ATOM     27  O   UNL     1      47.867   1.314   6.459  0.00  0.00    +0.000 OA
ATOM     28  H   UNL     1      47.208  -0.963   7.098  0.00  0.00    +0.000 HD
ATOM     29  H   UNL     1      45.917  -0.505   8.156  0.00  0.00    +0.000 HD
ENDBRANCH  19  26
ENDBRANCH  17  22
ENDBRANCH  16  17
ENDBRANCH   1  16
TORSDOF 7
ENDMDL
MODEL 4
REMARK VINA RESULT:    -7.593      1.544      2.008
REMARK INTER + INTRA:         -11.806
REMARK INTER:                 -11.004
REMARK INTRA:                  -0.802
REMARK UNBOUND:                -1.106
REMARK  Name = 
REMARK  7 active torsions:
REMARK  status: ('A' for Active; 'I' for Inactive)
REMARK    1  A    between atoms: C_2  and  C_4
REMARK    2  A    between atoms: C_7  and  N_8
REMARK    3  A    between atoms: N_8  and  C_9
REMARK    4  A    between atoms: C_9  and  C_10
REMARK    5  A    between atoms: C_10  and  C_13
REMARK    6  A    between atoms: C_17  and  O_18
REMARK    7  A    between atoms: O_18  and  C_19
REMARK                            x       y       z     vdW  Elec       q    Type
REMARK                         _______ _______ _______ _____ _____    ______ ____
ROOT
ATOM      1  C   UNL     1      44.612   5.985  11.816  0.00  0.00    +0.000 C 
ATOM      2  F   UNL     1      45.311   6.631  10.834  0.00  0.00    +0.000 F 
ATOM      3  F   UNL     1      43.995   6.982  12.524  0.00  0.00    +0.000 F 
ENDROOT
BRANCH   1   4
ATOM      4  C   UNL     1      45.528   5.150  12.692  0.00  0.00    +0.000 A 
ATOM      5  C   UNL     1      45.523   3.750  12.606  0.00  0.00    +0.000 A 
ATOM      6  C   UNL     1      46.423   2.994  13.359  0.00  0.00    +0.000 A 
ATOM      7  C   UNL     1      47.330   3.623  14.220  0.00  0.00    +0.000 A 
ATOM      8  C   UNL     1      47.321   5.010  14.337  0.00  0.00    +0.000 A 
ATOM      9  C   UNL     1      46.422   5.766  13.580  0.00  0.00    +0.000 A 
BRANCH   8  10
ATOM     10  O   UNL     1      48.177   5.744  15.115  0.00  0.00    +0.000 OA
BRANCH  10  11
ATOM     11  C   UNL     1      48.423   5.334  16.484  0.00  0.00    +0.000 C 
ATOM     12  C   UNL     1      47.239   4.749  17.278  0.00  0.00    +0.000 C 
ATOM     13  N   UNL     1      47.453   5.727  18.354  0.00  0.00    +0.000 NA
ATOM     14  C   UNL     1      48.394   6.482  17.515  0.00  0.00    +0.000 C 
ATOM     15  H   UNL     1      47.870   5.339  19.200  0.00  0.00    +0.000 HD
ENDBRANCH  10  11
ENDBRANCH   8  10
ENDBRANCH   1   4
BRANCH   1  16
ATOM     16  C   UNL     1      43.510   5.120  11.158  0.00  0.00    +0.000 C 
BRANCH  16  17
ATOM     17  N   UNL     1      43.684   4.976   9.700  0.00  0.00    +0.000 N 
ATOM     18  H   UNL     1      42.826   5.079   9.157  0.00  0.00    +0.000 HD
BRANCH  17  22
ATOM     19  C   UNL     1      46.252   2.113   7.975  0.00  0.00    +0.000 A 
ATOM     20  C   UNL     1      46.396   3.459   7.637  0.00  0.00    +0.000 A 
ATOM     21  C   UNL     1      45.564   4.420   8.224  0.00  0.00    +0.000 A 
ATOM     22  C   UNL     1      44.595   4.068   9.171  0.00  0.00    +0.000 A 
ATOM     23  C   UNL     1      44.452   2.709   9.485  0.00  0.00    +0.000 A 
ATOM     24  C   UNL     1      45.267   1.736   8.891  0.00  0.00    +0.000 A 
BRANCH  19  26
ATOM     25  N   UNL     1      48.078   1.488   6.495  0.00  0.00    +0.000 N 
ATOM     26  C   UNL     1      47.094   1.064   7.345  0.00  0.00    +0.000 C 
ATOM     27  O   UNL     1      46.941  -0.124   7.595  0.00  0.00    +0.000 OA
ATOM     28  H   UNL     1      48.709   0.777   6.151  0.00  0.00    +0.000 HD
ATOM     29  H   UNL     1      48.387   2.449   6.464  0.00  0.00    +0.000 HD
ENDBRANCH  19  26
ENDBRANCH  17  22
ENDBRANCH  16  17
ENDBRANCH   1  16
TORSDOF 7
ENDMDL
MODEL 5
REMARK VINA RESULT:    -7.394      2.251      8.036
REMARK INTER + INTRA:         -11.525
REMARK INTER:                 -10.843
REMARK INTRA:                  -0.683
REMARK UNBOUND:                -1.106
REMARK  Name = 
REMARK  7 active torsions:
REMARK  status: ('A' for Active; 'I' for Inactive)
REMARK    1  A    between atoms: C_2  and  C_4
REMARK    2  A    between atoms: C_7  and  N_8
REMARK    3  A    between atoms: N_8  and  C_9
REMARK    4  A    between atoms: C_9  and  C_10
REMARK    5  A    between atoms: C_10  and  C_13
REMARK    6  A    between atoms: C_17  and  O_18
REMARK    7  A    between atoms: O_18  and  C_19
REMARK                            x       y       z     vdW  Elec       q    Type
REMARK                         _______ _______ _______ _____ _____    ______ ____
ROOT
ATOM      1  C   UNL     1      45.864   6.307  11.325  0.00  0.00    +0.000 C 
ATOM      2  F   UNL     1      45.127   7.408  10.988  0.00  0.00    +0.000 F 
ATOM      3  F   UNL     1      47.167   6.677  11.116  0.00  0.00    +0.000 F 
ENDROOT
BRANCH   1   4
ATOM      4  C   UNL     1      45.476   5.102  10.489  0.00  0.00    +0.000 A 
ATOM      5  C   UNL     1      44.613   4.121  11.001  0.00  0.00    +0.000 A 
ATOM      6  C   UNL     1      44.200   3.057  10.197  0.00  0.00    +0.000 A 
ATOM      7  C   UNL     1      44.655   2.946   8.879  0.00  0.00    +0.000 A 
ATOM      8  C   UNL     1      45.539   3.895   8.372  0.00  0.00    +0.000 A 
ATOM      9  C   UNL     1      45.949   4.962   9.176  0.00  0.00    +0.000 A 
BRANCH   8  10
ATOM     10  O   UNL     1      46.028   3.917   7.093  0.00  0.00    +0.000 OA
BRANCH  10  11
ATOM     11  C   UNL     1      46.455   2.678   6.473  0.00  0.00    +0.000 C 
ATOM     12  C   UNL     1      47.659   1.944   7.095  0.00  0.00    +0.000 C 
ATOM     13  N   UNL     1      48.341   1.923   5.793  0.00  0.00    +0.000 NA
ATOM     14  C   UNL     1      47.353   2.854   5.232  0.00  0.00    +0.000 C 
ATOM     15  H   UNL     1      48.356   1.010   5.340  0.00  0.00    +0.000 HD
ENDBRANCH  10  11
ENDBRANCH   8  10
ENDBRANCH   1   4
BRANCH   1  16
ATOM     16  C   UNL     1      45.687   6.031  12.837  0.00  0.00    +0.000 C 
BRANCH  16  17
ATOM     17  N   UNL     1      46.844   6.470  13.643  0.00  0.00    +0.000 N 
ATOM     18  H   UNL     1      47.513   7.056  13.144  0.00  0.00    +0.000 HD
BRANCH  17  22
ATOM     19  C   UNL     1      48.459   4.082  16.718  0.00  0.00    +0.000 A 
ATOM     20  C   UNL     1      47.509   3.539  15.853  0.00  0.00    +0.000 A 
ATOM     21  C   UNL     1      46.985   4.317  14.814  0.00  0.00    +0.000 A 
ATOM     22  C   UNL     1      47.411   5.633  14.598  0.00  0.00    +0.000 A 
ATOM     23  C   UNL     1      48.354   6.168  15.488  0.00  0.00    +0.000 A 
ATOM     24  C   UNL     1      48.871   5.405  16.544  0.00  0.00    +0.000 A 
BRANCH  19  26
ATOM     25  N   UNL     1      48.383   3.431  19.061  0.00  0.00    +0.000 N 
ATOM     26  C   UNL     1      49.009   3.297  17.852  0.00  0.00    +0.000 C 
ATOM     27  O   UNL     1      49.959   2.538  17.713  0.00  0.00    +0.000 OA
ATOM     28  H   UNL     1      48.699   2.819  19.800  0.00  0.00    +0.000 HD
ATOM     29  H   UNL     1      47.465   3.844  19.150  0.00  0.00    +0.000 HD
ENDBRANCH  19  26
ENDBRANCH  17  22
ENDBRANCH  16  17
ENDBRANCH   1  16
TORSDOF 7
ENDMDL
MODEL 6
REMARK VINA RESULT:    -7.304      2.835      3.502
REMARK INTER + INTRA:         -11.399
REMARK INTER:                 -10.833
REMARK INTRA:                  -0.566
REMARK UNBOUND:                -1.106
REMARK  Name = 
REMARK  7 active torsions:
REMARK  status: ('A' for Active; 'I' for Inactive)
REMARK    1  A    between atoms: C_2  and  C_4
REMARK    2  A    between atoms: C_7  and  N_8
REMARK    3  A    between atoms: N_8  and  C_9
REMARK    4  A    between atoms: C_9  and  C_10
REMARK    5  A    between atoms: C_10  and  C_13
REMARK    6  A    between atoms: C_17  and  O_18
REMARK    7  A    between atoms: O_18  and  C_19
REMARK                            x       y       z     vdW  Elec       q    Type
REMARK                         _______ _______ _______ _____ _____    ______ ____
ROOT
ATOM      1  C   UNL     1      44.531   4.470  12.385  0.00  0.00    +0.000 C 
ATOM      2  F   UNL     1      44.009   4.291  13.636  0.00  0.00    +0.000 F 
ATOM      3  F   UNL     1      45.412   3.435  12.218  0.00  0.00    +0.000 F 
ENDROOT
BRANCH   1   4
ATOM      4  C   UNL     1      45.210   5.820  12.254  0.00  0.00    +0.000 A 
ATOM      5  C   UNL     1      44.460   7.006  12.267  0.00  0.00    +0.000 A 
ATOM      6  C   UNL     1      45.100   8.246  12.225  0.00  0.00    +0.000 A 
ATOM      7  C   UNL     1      46.495   8.322  12.154  0.00  0.00    +0.000 A 
ATOM      8  C   UNL     1      47.247   7.151  12.106  0.00  0.00    +0.000 A 
ATOM      9  C   UNL     1      46.606   5.911  12.152  0.00  0.00    +0.000 A 
BRANCH   8  10
ATOM     10  O   UNL     1      48.615   7.091  12.070  0.00  0.00    +0.000 OA
BRANCH  10  11
ATOM     11  C   UNL     1      49.388   8.270  12.407  0.00  0.00    +0.000 C 
ATOM     12  C   UNL     1      49.462   9.399  11.361  0.00  0.00    +0.000 C 
ATOM     13  N   UNL     1      50.931   9.376  11.412  0.00  0.00    +0.000 NA
ATOM     14  C   UNL     1      50.909   8.128  12.188  0.00  0.00    +0.000 C 
ATOM     15  H   UNL     1      51.347  10.165  11.905  0.00  0.00    +0.000 HD
ENDBRANCH  10  11
ENDBRANCH   8  10
ENDBRANCH   1   4
BRANCH   1  16
ATOM     16  C   UNL     1      43.399   4.300  11.343  0.00  0.00    +0.000 C 
BRANCH  16  17
ATOM     17  N   UNL     1      43.794   4.728   9.987  0.00  0.00    +0.000 N 
ATOM     18  H   UNL     1      43.032   5.097   9.418  0.00  0.00    +0.000 HD
BRANCH  17  22
ATOM     19  C   UNL     1      46.550   2.533   7.673  0.00  0.00    +0.000 A 
ATOM     20  C   UNL     1      46.570   3.927   7.628  0.00  0.00    +0.000 A 
ATOM     21  C   UNL     1      45.675   4.665   8.411  0.00  0.00    +0.000 A 
ATOM     22  C   UNL     1      44.765   4.036   9.270  0.00  0.00    +0.000 A 
ATOM     23  C   UNL     1      44.747   2.635   9.289  0.00  0.00    +0.000 A 
ATOM     24  C   UNL     1      45.625   1.885   8.495  0.00  0.00    +0.000 A 
BRANCH  19  26
ATOM     25  N   UNL     1      48.595   2.333   6.371  0.00  0.00    +0.000 N 
ATOM     26  C   UNL     1      47.461   1.719   6.828  0.00  0.00    +0.000 C 
ATOM     27  O   UNL     1      47.231   0.545   6.575  0.00  0.00    +0.000 OA
ATOM     28  H   UNL     1      49.257   1.746   5.883  0.00  0.00    +0.000 HD
ATOM     29  H   UNL     1      48.932   3.203   6.760  0.00  0.00    +0.000 HD
ENDBRANCH  19  26
ENDBRANCH  17  22
ENDBRANCH  16  17
ENDBRANCH   1  16
TORSDOF 7
ENDMDL
MODEL 7
REMARK VINA RESULT:    -7.303      2.629      3.632
REMARK INTER + INTRA:         -11.398
REMARK INTER:                 -10.612
REMARK INTRA:                  -0.785
REMARK UNBOUND:                -1.106
REMARK  Name = 
REMARK  7 active torsions:
REMARK  status: ('A' for Active; 'I' for Inactive)
REMARK    1  A    between atoms: C_2  and  C_4
REMARK    2  A    between atoms: C_7  and  N_8
REMARK    3  A    between atoms: N_8  and  C_9
REMARK    4  A    between atoms: C_9  and  C_10
REMARK    5  A    between atoms: C_10  and  C_13
REMARK    6  A    between atoms: C_17  and  O_18
REMARK    7  A    between atoms: O_18  and  C_19
REMARK                            x       y       z     vdW  Elec       q    Type
REMARK                         _______ _______ _______ _____ _____    ______ ____
ROOT
ATOM      1  C   UNL     1      44.970   6.388  11.600  0.00  0.00    +0.000 C 
ATOM      2  F   UNL     1      45.661   6.722  10.469  0.00  0.00    +0.000 F 
ATOM      3  F   UNL     1      44.199   7.485  11.880  0.00  0.00    +0.000 F 
ENDROOT
BRANCH   1   4
ATOM      4  C   UNL     1      45.908   6.048  12.743  0.00  0.00    +0.000 A 
ATOM      5  C   UNL     1      45.791   4.829  13.430  0.00  0.00    +0.000 A 
ATOM      6  C   UNL     1      46.707   4.492  14.428  0.00  0.00    +0.000 A 
ATOM      7  C   UNL     1      47.742   5.370  14.767  0.00  0.00    +0.000 A 
ATOM      8  C   UNL     1      47.847   6.596  14.115  0.00  0.00    +0.000 A 
ATOM      9  C   UNL     1      46.933   6.931  13.114  0.00  0.00    +0.000 A 
BRANCH   8  10
ATOM     10  O   UNL     1      48.831   7.524  14.330  0.00  0.00    +0.000 OA
BRANCH  10  11
ATOM     11  C   UNL     1      49.735   7.866  13.249  0.00  0.00    +0.000 C 
ATOM     12  C   UNL     1      51.157   8.325  13.625  0.00  0.00    +0.000 C 
ATOM     13  N   UNL     1      50.991   9.551  12.833  0.00  0.00    +0.000 NA
ATOM     14  C   UNL     1      49.553   9.289  12.682  0.00  0.00    +0.000 C 
ATOM     15  H   UNL     1      51.507   9.558  11.954  0.00  0.00    +0.000 HD
ENDBRANCH  10  11
ENDBRANCH   8  10
ENDBRANCH   1   4
BRANCH   1  16
ATOM     16  C   UNL     1      44.020   5.211  11.275  0.00  0.00    +0.000 C 
BRANCH  16  17
ATOM     17  N   UNL     1      43.860   4.981   9.826  0.00  0.00    +0.000 N 
ATOM     18  H   UNL     1      42.916   5.130   9.472  0.00  0.00    +0.000 HD
BRANCH  17  22
ATOM     19  C   UNL     1      46.212   2.017   7.968  0.00  0.00    +0.000 A 
ATOM     20  C   UNL     1      45.249   1.644   8.906  0.00  0.00    +0.000 A 
ATOM     21  C   UNL     1      44.447   2.619   9.510  0.00  0.00    +0.000 A 
ATOM     22  C   UNL     1      44.566   3.974   9.177  0.00  0.00    +0.000 A 
ATOM     23  C   UNL     1      45.551   4.332   8.246  0.00  0.00    +0.000 A 
ATOM     24  C   UNL     1      46.373   3.367   7.648  0.00  0.00    +0.000 A 
BRANCH  19  26
ATOM     25  N   UNL     1      46.883  -0.300   7.652  0.00  0.00    +0.000 N 
ATOM     26  C   UNL     1      47.103   1.012   7.334  0.00  0.00    +0.000 C 
ATOM     27  O   UNL     1      47.976   1.333   6.539  0.00  0.00    +0.000 OA
ATOM     28  H   UNL     1      47.426  -0.982   7.142  0.00  0.00    +0.000 HD
ATOM     29  H   UNL     1      46.031  -0.611   8.097  0.00  0.00    +0.000 HD
ENDBRANCH  19  26
ENDBRANCH  17  22
ENDBRANCH  16  17
ENDBRANCH   1  16
TORSDOF 7
ENDMDL
MODEL 8
REMARK VINA RESULT:    -6.515      2.900      7.295
REMARK INTER + INTRA:         -10.288
REMARK INTER:                  -9.313
REMARK INTRA:                  -0.975
REMARK UNBOUND:                -1.106
REMARK  Name = 
REMARK  7 active torsions:
REMARK  status: ('A' for Active; 'I' for Inactive)
REMARK    1  A    between atoms: C_2  and  C_4
REMARK    2  A    between atoms: C_7  and  N_8
REMARK    3  A    between atoms: N_8  and  C_9
REMARK    4  A    between atoms: C_9  and  C_10
REMARK    5  A    between atoms: C_10  and  C_13
REMARK    6  A    between atoms: C_17  and  O_18
REMARK    7  A    between atoms: O_18  and  C_19
REMARK                            x       y       z     vdW  Elec       q    Type
REMARK                         _______ _______ _______ _____ _____    ______ ____
ROOT
ATOM      1  C   UNL     1      44.756   3.244  12.452  0.00  0.00    +0.000 C 
ATOM      2  F   UNL     1      45.895   2.555  12.765  0.00  0.00    +0.000 F 
ATOM      3  F   UNL     1      43.730   2.450  12.894  0.00  0.00    +0.000 F 
ENDROOT
BRANCH   1   4
ATOM      4  C   UNL     1      44.662   3.514  10.962  0.00  0.00    +0.000 A 
ATOM      5  C   UNL     1      43.914   4.596  10.475  0.00  0.00    +0.000 A 
ATOM      6  C   UNL     1      43.897   4.883   9.109  0.00  0.00    +0.000 A 
ATOM      7  C   UNL     1      44.613   4.086   8.208  0.00  0.00    +0.000 A 
ATOM      8  C   UNL     1      45.331   2.990   8.678  0.00  0.00    +0.000 A 
ATOM      9  C   UNL     1      45.351   2.706  10.045  0.00  0.00    +0.000 A 
BRANCH   8  10
ATOM     10  O   UNL     1      46.097   2.157   7.906  0.00  0.00    +0.000 OA
BRANCH  10  11
ATOM     11  C   UNL     1      47.166   2.715   7.101  0.00  0.00    +0.000 C 
ATOM     12  C   UNL     1      46.978   2.728   5.572  0.00  0.00    +0.000 C 
ATOM     13  N   UNL     1      48.258   2.029   5.390  0.00  0.00    +0.000 NA
ATOM     14  C   UNL     1      48.340   1.751   6.831  0.00  0.00    +0.000 C 
ATOM     15  H   UNL     1      49.012   2.617   5.036  0.00  0.00    +0.000 HD
ENDBRANCH  10  11
ENDBRANCH   8  10
ENDBRANCH   1   4
BRANCH   1  16
ATOM     16  C   UNL     1      44.725   4.556  13.272  0.00  0.00    +0.000 C 
BRANCH  16  17
ATOM     17  N   UNL     1      46.048   5.200  13.379  0.00  0.00    +0.000 N 
ATOM     18  H   UNL     1      46.567   4.968  14.226  0.00  0.00    +0.000 HD
BRANCH  17  22
ATOM     19  C   UNL     1      46.584   9.205  12.178  0.00  0.00    +0.000 A 
ATOM     20  C   UNL     1      47.700   8.393  12.384  0.00  0.00    +0.000 A 
ATOM     21  C   UNL     1      47.531   7.055  12.759  0.00  0.00    +0.000 A 
ATOM     22  C   UNL     1      46.258   6.493  12.911  0.00  0.00    +0.000 A 
ATOM     23  C   UNL     1      45.148   7.328  12.717  0.00  0.00    +0.000 A 
ATOM     24  C   UNL     1      45.305   8.674  12.360  0.00  0.00    +0.000 A 
BRANCH  19  26
ATOM     25  N   UNL     1      45.729  11.482  12.217  0.00  0.00    +0.000 N 
ATOM     26  C   UNL     1      46.728  10.637  11.814  0.00  0.00    +0.000 C 
ATOM     27  O   UNL     1      47.706  11.056  11.211  0.00  0.00    +0.000 OA
ATOM     28  H   UNL     1      45.883  12.468  12.054  0.00  0.00    +0.000 HD
ATOM     29  H   UNL     1      45.050  11.220  12.917  0.00  0.00    +0.000 HD
ENDBRANCH  19  26
ENDBRANCH  17  22
ENDBRANCH  16  17
ENDBRANCH   1  16
TORSDOF 7
ENDMDL
MODEL 9
REMARK VINA RESULT:    -6.431      2.217      7.840
REMARK INTER + INTRA:         -10.169
REMARK INTER:                  -9.214
REMARK INTRA:                  -0.956
REMARK UNBOUND:                -1.106
REMARK  Name = 
REMARK  7 active torsions:
REMARK  status: ('A' for Active; 'I' for Inactive)
REMARK    1  A    between atoms: C_2  and  C_4
REMARK    2  A    between atoms: C_7  and  N_8
REMARK    3  A    between atoms: N_8  and  C_9
REMARK    4  A    between atoms: C_9  and  C_10
REMARK    5  A    between atoms: C_10  and  C_13
REMARK    6  A    between atoms: C_17  and  O_18
REMARK    7  A    between atoms: O_18  and  C_19
REMARK                            x       y       z     vdW  Elec       q    Type
REMARK                         _______ _______ _______ _____ _____    ______ ____
ROOT
ATOM      1  C   UNL     1      45.401   6.669  12.036  0.00  0.00    +0.000 C 
ATOM      2  F   UNL     1      44.830   7.225  13.147  0.00  0.00    +0.000 F 
ATOM      3  F   UNL     1      45.153   7.561  11.027  0.00  0.00    +0.000 F 
ENDROOT
BRANCH   1   4
ATOM      4  C   UNL     1      44.819   5.300  11.739  0.00  0.00    +0.000 A 
ATOM      5  C   UNL     1      44.070   4.613  12.706  0.00  0.00    +0.000 A 
ATOM      6  C   UNL     1      43.473   3.389  12.398  0.00  0.00    +0.000 A 
ATOM      7  C   UNL     1      43.627   2.825  11.126  0.00  0.00    +0.000 A 
ATOM      8  C   UNL     1      44.397   3.483  10.170  0.00  0.00    +0.000 A 
ATOM      9  C   UNL     1      44.991   4.709  10.478  0.00  0.00    +0.000 A 
BRANCH   8  10
ATOM     10  O   UNL     1      44.596   3.054   8.885  0.00  0.00    +0.000 OA
BRANCH  10  11
ATOM     11  C   UNL     1      45.945   2.979   8.360  0.00  0.00    +0.000 C 
ATOM     12  C   UNL     1      46.152   3.309   6.869  0.00  0.00    +0.000 C 
ATOM     13  N   UNL     1      46.833   2.024   6.660  0.00  0.00    +0.000 NA
ATOM     14  C   UNL     1      46.415   1.557   7.989  0.00  0.00    +0.000 C 
ATOM     15  H   UNL     1      47.843   2.096   6.543  0.00  0.00    +0.000 HD
ENDBRANCH  10  11
ENDBRANCH   8  10
ENDBRANCH   1   4
BRANCH   1  16
ATOM     16  C   UNL     1      46.934   6.602  12.243  0.00  0.00    +0.000 C 
BRANCH  16  17
ATOM     17  N   UNL     1      47.365   5.396  12.975  0.00  0.00    +0.000 N 
ATOM     18  H   UNL     1      46.976   4.522  12.623  0.00  0.00    +0.000 HD
BRANCH  17  22
ATOM     19  C   UNL     1      48.106   5.269  17.123  0.00  0.00    +0.000 A 
ATOM     20  C   UNL     1      48.622   6.319  16.364  0.00  0.00    +0.000 A 
ATOM     21  C   UNL     1      48.361   6.383  14.990  0.00  0.00    +0.000 A 
ATOM     22  C   UNL     1      47.565   5.425  14.351  0.00  0.00    +0.000 A 
ATOM     23  C   UNL     1      47.069   4.367  15.127  0.00  0.00    +0.000 A 
ATOM     24  C   UNL     1      47.339   4.282  16.499  0.00  0.00    +0.000 A 
BRANCH  19  26
ATOM     25  N   UNL     1      47.316   5.085  19.417  0.00  0.00    +0.000 N 
ATOM     26  C   UNL     1      48.393   5.152  18.575  0.00  0.00    +0.000 C 
ATOM     27  O   UNL     1      49.537   5.085  19.004  0.00  0.00    +0.000 OA
ATOM     28  H   UNL     1      47.519   4.905  20.390  0.00  0.00    +0.000 HD
ATOM     29  H   UNL     1      46.383   4.888  19.084  0.00  0.00    +0.000 HD
ENDBRANCH  19  26
ENDBRANCH  17  22
ENDBRANCH  16  17
ENDBRANCH   1  16
TORSDOF 7
ENDMDL
