MODEL 1
REMARK VINA RESULT:    -7.426      0.000      0.000
REMARK INTER + INTRA:          -9.058
REMARK INTER:                  -8.728
REMARK INTRA:                  -0.330
REMARK UNBOUND:                -0.330
REMARK  Name = 
REMARK  3 active torsions:
REMARK  status: ('A' for Active; 'I' for Inactive)
REMARK    1  A    between atoms: C_2  and  C_4
REMARK    2  A    between atoms: N_8  and  C_9
REMARK    3  A    between atoms: C_9  and  C_10
REMARK                            x       y       z     vdW  Elec       q    Type
REMARK                         _______ _______ _______ _____ _____    ______ ____
ROOT
ATOM      1  C   UNL     1      46.555   2.590   7.377  0.00  0.00    +0.000 A 
ATOM      2  C   UNL     1      46.013   1.546   8.123  0.00  0.00    +0.000 A 
ATOM      3  C   UNL     1      45.104   1.847   9.141  0.00  0.00    +0.000 A 
ATOM      4  C   UNL     1      44.747   3.176   9.390  0.00  0.00    +0.000 A 
ATOM      5  N   UNL     1      43.886   3.446  10.465  0.00  0.00    +0.000 N 
ATOM      6  N   UNL     1      45.285   4.187   8.682  0.00  0.00    +0.000 NA
ATOM      7  C   UNL     1      46.172   3.881   7.700  0.00  0.00    +0.000 A 
ATOM      8  H   UNL     1      43.114   2.790  10.470  0.00  0.00    +0.000 HD
ENDROOT
BRANCH   1  10
ATOM      9  N   UNL     1      47.418   3.195   5.187  0.00  0.00    +0.000 N 
ATOM     10  C   UNL     1      47.515   2.371   6.274  0.00  0.00    +0.000 C 
ATOM     11  O   UNL     1      48.390   1.519   6.353  0.00  0.00    +0.000 OA
ATOM     12  H   UNL     1      48.147   3.104   4.491  0.00  0.00    +0.000 HD
ATOM     13  H   UNL     1      46.886   4.054   5.195  0.00  0.00    +0.000 HD
ENDBRANCH   1  10
BRANCH   5  14
ATOM     14  C   UNL     1      43.489   4.849  10.609  0.00  0.00    +0.000 C 
BRANCH  14  15
ATOM     15  C   UNL     1      44.187   5.496  11.821  0.00  0.00    +0.000 C 
ATOM     16  C   UNL     1      45.119   6.650  11.415  0.00  0.00    +0.000 C 
ATOM     17  C   UNL     1      45.921   7.154  12.609  0.00  0.00    +0.000 C 
ATOM     18  O   UNL     1      46.660   6.091  13.204  0.00  0.00    +0.000 OA
ATOM     19  C   UNL     1      45.806   5.069  13.717  0.00  0.00    +0.000 C 
ATOM     20  C   UNL     1      44.992   4.438  12.593  0.00  0.00    +0.000 C 
ENDBRANCH  14  15
ENDBRANCH   5  14
TORSDOF 3
ENDMDL
MODEL 2
REMARK VINA RESULT:    -7.277      2.180      6.372
REMARK INTER + INTRA:          -8.883
REMARK INTER:                  -8.505
REMARK INTRA:                  -0.379
REMARK UNBOUND:                -0.330
REMARK  Name = 
REMARK  3 active torsions:
REMARK  status: ('A' for Active; 'I' for Inactive)
REMARK    1  A    between atoms: C_2  and  C_4
REMARK    2  A    between atoms: N_8  and  C_9
REMARK    3  A    between atoms: C_9  and  C_10
REMARK                            x       y       z     vdW  Elec       q    Type
REMARK                         _______ _______ _______ _____ _____    ______ ____
ROOT
ATOM      1  C   UNL     1      46.550   4.935  13.582  0.00  0.00    +0.000 A 
ATOM      2  C   UNL     1      46.731   6.116  12.866  0.00  0.00    +0.000 A 
ATOM      3  C   UNL     1      46.202   6.208  11.576  0.00  0.00    +0.000 A 
ATOM      4  C   UNL     1      45.499   5.130  11.029  0.00  0.00    +0.000 A 
ATOM      5  N   UNL     1      45.043   5.233   9.705  0.00  0.00    +0.000 N 
ATOM      6  N   UNL     1      45.341   3.981  11.714  0.00  0.00    +0.000 NA
ATOM      7  C   UNL     1      45.865   3.902  12.963  0.00  0.00    +0.000 A 
ATOM      8  H   UNL     1      44.619   6.140   9.549  0.00  0.00    +0.000 HD
ENDROOT
BRANCH   1  10
ATOM      9  N   UNL     1      47.873   5.727  15.461  0.00  0.00    +0.000 N 
ATOM     10  C   UNL     1      47.064   4.747  14.956  0.00  0.00    +0.000 C 
ATOM     11  O   UNL     1      46.739   3.778  15.629  0.00  0.00    +0.000 OA
ATOM     12  H   UNL     1      48.127   5.637  16.436  0.00  0.00    +0.000 HD
ATOM     13  H   UNL     1      47.954   6.642  15.040  0.00  0.00    +0.000 HD
ENDBRANCH   1  10
BRANCH   5  14
ATOM     14  C   UNL     1      44.241   4.101   9.233  0.00  0.00    +0.000 C 
BRANCH  14  15
ATOM     15  C   UNL     1      45.025   3.263   8.204  0.00  0.00    +0.000 C 
ATOM     16  C   UNL     1      45.540   1.940   8.795  0.00  0.00    +0.000 C 
ATOM     17  C   UNL     1      46.452   1.217   7.811  0.00  0.00    +0.000 C 
ATOM     18  O   UNL     1      47.537   2.055   7.422  0.00  0.00    +0.000 OA
ATOM     19  C   UNL     1      47.089   3.228   6.743  0.00  0.00    +0.000 C 
ATOM     20  C   UNL     1      46.212   4.074   7.658  0.00  0.00    +0.000 C 
ENDBRANCH  14  15
ENDBRANCH   5  14
TORSDOF 3
ENDMDL
MODEL 3
REMARK VINA RESULT:    -6.795      2.151      6.363
REMARK INTER + INTRA:          -8.316
REMARK INTER:                  -8.088
REMARK INTRA:                  -0.228
REMARK UNBOUND:                -0.330
REMARK  Name = 
REMARK  3 active torsions:
REMARK  status: ('A' for Active; 'I' for Inactive)
REMARK    1  A    between atoms: C_2  and  C_4
REMARK    2  A    between atoms: N_8  and  C_9
REMARK    3  A    between atoms: C_9  and  C_10
REMARK                            x       y       z     vdW  Elec       q    Type
REMARK                         _______ _______ _______ _____ _____    ______ ____
ROOT
ATOM      1  C   UNL     1      45.445   6.873  12.422  0.00  0.00    +0.000 A 
ATOM      2  C   UNL     1      45.794   5.828  13.275  0.00  0.00    +0.000 A 
ATOM      3  C   UNL     1      45.639   4.513  12.828  0.00  0.00    +0.000 A 
ATOM      4  C   UNL     1      45.149   4.264  11.543  0.00  0.00    +0.000 A 
ATOM      5  N   UNL     1      44.941   2.931  11.154  0.00  0.00    +0.000 N 
ATOM      6  N   UNL     1      44.793   5.273  10.724  0.00  0.00    +0.000 NA
ATOM      7  C   UNL     1      44.943   6.546  11.173  0.00  0.00    +0.000 A 
ATOM      8  H   UNL     1      45.730   2.358  11.427  0.00  0.00    +0.000 HD
ENDROOT
BRANCH   1  10
ATOM      9  N   UNL     1      46.476   8.594  13.792  0.00  0.00    +0.000 N 
ATOM     10  C   UNL     1      45.583   8.295  12.800  0.00  0.00    +0.000 C 
ATOM     11  O   UNL     1      44.960   9.172  12.217  0.00  0.00    +0.000 OA
ATOM     12  H   UNL     1      46.638   9.578  13.965  0.00  0.00    +0.000 HD
ATOM     13  H   UNL     1      47.178   7.942  14.114  0.00  0.00    +0.000 HD
ENDBRANCH   1  10
BRANCH   5  14
ATOM     14  C   UNL     1      44.510   2.747   9.766  0.00  0.00    +0.000 C 
BRANCH  14  15
ATOM     15  C   UNL     1      45.723   2.689   8.817  0.00  0.00    +0.000 C 
ATOM     16  C   UNL     1      45.562   3.617   7.601  0.00  0.00    +0.000 C 
ATOM     17  C   UNL     1      46.691   3.411   6.599  0.00  0.00    +0.000 C 
ATOM     18  O   UNL     1      46.758   2.048   6.191  0.00  0.00    +0.000 OA
ATOM     19  C   UNL     1      47.048   1.177   7.283  0.00  0.00    +0.000 C 
ATOM     20  C   UNL     1      45.944   1.247   8.331  0.00  0.00    +0.000 C 
ENDBRANCH  14  15
ENDBRANCH   5  14
TORSDOF 3
ENDMDL
MODEL 4
REMARK VINA RESULT:    -6.044      4.093      5.926
REMARK INTER + INTRA:          -7.434
REMARK INTER:                  -7.230
REMARK INTRA:                  -0.205
REMARK UNBOUND:                -0.330
REMARK  Name = 
REMARK  3 active torsions:
REMARK  status: ('A' for Active; 'I' for Inactive)
REMARK    1  A    between atoms: C_2  and  C_4
REMARK    2  A    between atoms: N_8  and  C_9
REMARK    3  A    between atoms: C_9  and  C_10
REMARK                            x       y       z     vdW  Elec       q    Type
REMARK                         _______ _______ _______ _____ _____    ______ ____
ROOT
ATOM      1  C   UNL     1      44.974   4.159  11.343  0.00  0.00    +0.000 A 
ATOM      2  C   UNL     1      45.378   5.485  11.476  0.00  0.00    +0.000 A 
ATOM      3  C   UNL     1      46.071   5.865  12.629  0.00  0.00    +0.000 A 
ATOM      4  C   UNL     1      46.354   4.920  13.619  0.00  0.00    +0.000 A 
ATOM      5  N   UNL     1      46.989   5.352  14.794  0.00  0.00    +0.000 N 
ATOM      6  N   UNL     1      45.946   3.641  13.500  0.00  0.00    +0.000 NA
ATOM      7  C   UNL     1      45.268   3.287  12.378  0.00  0.00    +0.000 A 
ATOM      8  H   UNL     1      47.756   5.975  14.570  0.00  0.00    +0.000 HD
ENDROOT
BRANCH   1  10
ATOM      9  N   UNL     1      44.027   4.547   9.139  0.00  0.00    +0.000 N 
ATOM     10  C   UNL     1      44.246   3.660  10.157  0.00  0.00    +0.000 C 
ATOM     11  O   UNL     1      43.896   2.491  10.070  0.00  0.00    +0.000 OA
ATOM     12  H   UNL     1      43.625   4.165   8.292  0.00  0.00    +0.000 HD
ATOM     13  H   UNL     1      44.513   5.431   9.067  0.00  0.00    +0.000 HD
ENDBRANCH   1  10
BRANCH   5  14
ATOM     14  C   UNL     1      47.330   4.291  15.745  0.00  0.00    +0.000 C 
BRANCH  14  15
ATOM     15  C   UNL     1      48.113   4.859  16.945  0.00  0.00    +0.000 C 
ATOM     16  C   UNL     1      49.276   3.947  17.372  0.00  0.00    +0.000 C 
ATOM     17  C   UNL     1      49.919   4.445  18.660  0.00  0.00    +0.000 C 
ATOM     18  O   UNL     1      48.950   4.551  19.699  0.00  0.00    +0.000 OA
ATOM     19  C   UNL     1      47.932   5.500  19.385  0.00  0.00    +0.000 C 
ATOM     20  C   UNL     1      47.167   5.071  18.139  0.00  0.00    +0.000 C 
ENDBRANCH  14  15
ENDBRANCH   5  14
TORSDOF 3
ENDMDL
MODEL 5
REMARK VINA RESULT:    -5.860      2.337      6.303
REMARK INTER + INTRA:          -7.218
REMARK INTER:                  -6.815
REMARK INTRA:                  -0.403
REMARK UNBOUND:                -0.330
REMARK  Name = 
REMARK  3 active torsions:
REMARK  status: ('A' for Active; 'I' for Inactive)
REMARK    1  A    between atoms: C_2  and  C_4
REMARK    2  A    between atoms: N_8  and  C_9
REMARK    3  A    between atoms: C_9  and  C_10
REMARK                            x       y       z     vdW  Elec       q    Type
REMARK                         _______ _______ _______ _____ _____    ______ ____
ROOT
ATOM      1  C   UNL     1      46.985   7.314  12.841  0.00  0.00    +0.000 A 
ATOM      2  C   UNL     1      47.064   6.068  13.459  0.00  0.00    +0.000 A 
ATOM      3  C   UNL     1      46.321   5.008  12.934  0.00  0.00    +0.000 A 
ATOM      4  C   UNL     1      45.523   5.205  11.803  0.00  0.00    +0.000 A 
ATOM      5  N   UNL     1      44.736   4.135  11.346  0.00  0.00    +0.000 N 
ATOM      6  N   UNL     1      45.431   6.414  11.216  0.00  0.00    +0.000 NA
ATOM      7  C   UNL     1      46.153   7.437  11.741  0.00  0.00    +0.000 A 
ATOM      8  H   UNL     1      45.277   3.279  11.341  0.00  0.00    +0.000 HD
ENDROOT
BRANCH   1  10
ATOM      9  N   UNL     1      48.544   9.127  12.410  0.00  0.00    +0.000 N 
ATOM     10  C   UNL     1      47.741   8.492  13.316  0.00  0.00    +0.000 C 
ATOM     11  O   UNL     1      47.616   8.910  14.460  0.00  0.00    +0.000 OA
ATOM     12  H   UNL     1      48.970   9.992  12.719  0.00  0.00    +0.000 HD
ATOM     13  H   UNL     1      48.479   8.970  11.413  0.00  0.00    +0.000 HD
ENDBRANCH   1  10
BRANCH   5  14
ATOM     14  C   UNL     1      43.996   4.391  10.108  0.00  0.00    +0.000 C 
BRANCH  14  15
ATOM     15  C   UNL     1      44.565   3.557   8.944  0.00  0.00    +0.000 C 
ATOM     16  C   UNL     1      45.117   2.198   9.410  0.00  0.00    +0.000 C 
ATOM     17  C   UNL     1      45.826   1.474   8.272  0.00  0.00    +0.000 C 
ATOM     18  O   UNL     1      46.864   2.284   7.729  0.00  0.00    +0.000 OA
ATOM     19  C   UNL     1      46.358   3.492   7.162  0.00  0.00    +0.000 C 
ATOM     20  C   UNL     1      45.679   4.341   8.229  0.00  0.00    +0.000 C 
ENDBRANCH  14  15
ENDBRANCH   5  14
TORSDOF 3
ENDMDL
MODEL 6
REMARK VINA RESULT:    -5.589      5.036      8.378
REMARK INTER + INTRA:          -6.899
REMARK INTER:                  -6.655
REMARK INTRA:                  -0.244
REMARK UNBOUND:                -0.330
REMARK  Name = 
REMARK  3 active torsions:
REMARK  status: ('A' for Active; 'I' for Inactive)
REMARK    1  A    between atoms: C_2  and  C_4
REMARK    2  A    between atoms: N_8  and  C_9
REMARK    3  A    between atoms: C_9  and  C_10
REMARK                            x       y       z     vdW  Elec       q    Type
REMARK                         _______ _______ _______ _____ _____    ______ ____
ROOT
ATOM      1  C   UNL     1      48.981   4.674  18.009  0.00  0.00    +0.000 A 
ATOM      2  C   UNL     1      48.004   3.681  18.046  0.00  0.00    +0.000 A 
ATOM      3  C   UNL     1      47.160   3.526  16.943  0.00  0.00    +0.000 A 
ATOM      4  C   UNL     1      47.309   4.354  15.826  0.00  0.00    +0.000 A 
ATOM      5  N   UNL     1      46.399   4.216  14.766  0.00  0.00    +0.000 N 
ATOM      6  N   UNL     1      48.241   5.327  15.798  0.00  0.00    +0.000 NA
ATOM      7  C   UNL     1      49.050   5.471  16.879  0.00  0.00    +0.000 A 
ATOM      8  H   UNL     1      46.253   3.237  14.553  0.00  0.00    +0.000 HD
ENDROOT
BRANCH   1  10
ATOM      9  N   UNL     1      50.984   4.048  19.234  0.00  0.00    +0.000 N 
ATOM     10  C   UNL     1      49.926   4.907  19.122  0.00  0.00    +0.000 C 
ATOM     11  O   UNL     1      49.793   5.857  19.881  0.00  0.00    +0.000 OA
ATOM     12  H   UNL     1      51.678   4.283  19.932  0.00  0.00    +0.000 HD
ATOM     13  H   UNL     1      51.262   3.420  18.492  0.00  0.00    +0.000 HD
ENDBRANCH   1  10
BRANCH   5  14
ATOM     14  C   UNL     1      46.672   5.056  13.597  0.00  0.00    +0.000 C 
BRANCH  14  15
ATOM     15  C   UNL     1      45.590   4.863  12.516  0.00  0.00    +0.000 C 
ATOM     16  C   UNL     1      44.252   5.518  12.900  0.00  0.00    +0.000 C 
ATOM     17  C   UNL     1      43.160   5.165  11.898  0.00  0.00    +0.000 C 
ATOM     18  O   UNL     1      43.018   3.752  11.786  0.00  0.00    +0.000 OA
ATOM     19  C   UNL     1      44.207   3.134  11.294  0.00  0.00    +0.000 C 
ATOM     20  C   UNL     1      45.366   3.364  12.256  0.00  0.00    +0.000 C 
ENDBRANCH  14  15
ENDBRANCH   5  14
TORSDOF 3
ENDMDL
MODEL 7
REMARK VINA RESULT:    -5.446      2.754      4.046
REMARK INTER + INTRA:          -6.731
REMARK INTER:                  -6.327
REMARK INTRA:                  -0.404
REMARK UNBOUND:                -0.330
REMARK  Name = 
REMARK  3 active torsions:
REMARK  status: ('A' for Active; 'I' for Inactive)
REMARK    1  A    between atoms: C_2  and  C_4
REMARK    2  A    between atoms: N_8  and  C_9
REMARK    3  A    between atoms: C_9  and  C_10
REMARK                            x       y       z     vdW  Elec       q    Type
REMARK                         _______ _______ _______ _____ _____    ______ ____
ROOT
ATOM      1  C   UNL     1      44.872   3.751  10.230  0.00  0.00    +0.000 A 
ATOM      2  C   UNL     1      44.881   3.276  11.540  0.00  0.00    +0.000 A 
ATOM      3  C   UNL     1      45.170   4.167  12.577  0.00  0.00    +0.000 A 
ATOM      4  C   UNL     1      45.435   5.510  12.292  0.00  0.00    +0.000 A 
ATOM      5  N   UNL     1      45.791   6.360  13.352  0.00  0.00    +0.000 N 
ATOM      6  N   UNL     1      45.446   5.966  11.025  0.00  0.00    +0.000 NA
ATOM      7  C   UNL     1      45.170   5.088  10.026  0.00  0.00    +0.000 A 
ATOM      8  H   UNL     1      45.180   6.206  14.145  0.00  0.00    +0.000 HD
ENDROOT
BRANCH   1  10
ATOM      9  N   UNL     1      44.310   3.510   7.879  0.00  0.00    +0.000 N 
ATOM     10  C   UNL     1      44.567   2.888   9.069  0.00  0.00    +0.000 C 
ATOM     11  O   UNL     1      44.592   1.668   9.159  0.00  0.00    +0.000 OA
ATOM     12  H   UNL     1      44.211   2.906   7.072  0.00  0.00    +0.000 HD
ATOM     13  H   UNL     1      44.526   4.482   7.709  0.00  0.00    +0.000 HD
ENDBRANCH   1  10
BRANCH   5  14
ATOM     14  C   UNL     1      45.968   7.768  12.989  0.00  0.00    +0.000 C 
BRANCH  14  15
ATOM     15  C   UNL     1      47.431   8.209  13.192  0.00  0.00    +0.000 C 
ATOM     16  C   UNL     1      48.185   8.378  11.862  0.00  0.00    +0.000 C 
ATOM     17  C   UNL     1      49.666   8.644  12.099  0.00  0.00    +0.000 C 
ATOM     18  O   UNL     1      50.245   7.603  12.881  0.00  0.00    +0.000 OA
ATOM     19  C   UNL     1      49.655   7.518  14.178  0.00  0.00    +0.000 C 
ATOM     20  C   UNL     1      48.172   7.187  14.071  0.00  0.00    +0.000 C 
ENDBRANCH  14  15
ENDBRANCH   5  14
TORSDOF 3
ENDMDL
MODEL 8
REMARK VINA RESULT:    -5.298      4.830      8.120
REMARK INTER + INTRA:          -6.557
REMARK INTER:                  -6.314
REMARK INTRA:                  -0.244
REMARK UNBOUND:                -0.330
REMARK  Name = 
REMARK  3 active torsions:
REMARK  status: ('A' for Active; 'I' for Inactive)
REMARK    1  A    between atoms: C_2  and  C_4
REMARK    2  A    between atoms: N_8  and  C_9
REMARK    3  A    between atoms: C_9  and  C_10
REMARK                            x       y       z     vdW  Elec       q    Type
REMARK                         _______ _______ _______ _____ _____    ______ ____
ROOT
ATOM      1  C   UNL     1      49.106   4.893  17.425  0.00  0.00    +0.000 A 
ATOM      2  C   UNL     1      48.455   3.661  17.444  0.00  0.00    +0.000 A 
ATOM      3  C   UNL     1      47.560   3.357  16.415  0.00  0.00    +0.000 A 
ATOM      4  C   UNL     1      47.337   4.277  15.387  0.00  0.00    +0.000 A 
ATOM      5  N   UNL     1      46.378   3.967  14.409  0.00  0.00    +0.000 N 
ATOM      6  N   UNL     1      47.950   5.477  15.379  0.00  0.00    +0.000 NA
ATOM      7  C   UNL     1      48.812   5.762  16.388  0.00  0.00    +0.000 A 
ATOM      8  H   UNL     1      46.486   3.007  14.104  0.00  0.00    +0.000 HD
ENDROOT
BRANCH   1  10
ATOM      9  N   UNL     1      49.795   6.435  19.172  0.00  0.00    +0.000 N 
ATOM     10  C   UNL     1      50.077   5.300  18.463  0.00  0.00    +0.000 C 
ATOM     11  O   UNL     1      51.066   4.623  18.709  0.00  0.00    +0.000 OA
ATOM     12  H   UNL     1      50.411   6.640  19.949  0.00  0.00    +0.000 HD
ATOM     13  H   UNL     1      48.883   6.870  19.173  0.00  0.00    +0.000 HD
ENDBRANCH   1  10
BRANCH   5  14
ATOM     14  C   UNL     1      46.263   4.939  13.319  0.00  0.00    +0.000 C 
BRANCH  14  15
ATOM     15  C   UNL     1      44.981   4.696  12.499  0.00  0.00    +0.000 C 
ATOM     16  C   UNL     1      44.482   3.245  12.605  0.00  0.00    +0.000 C 
ATOM     17  C   UNL     1      43.320   2.993  11.653  0.00  0.00    +0.000 C 
ATOM     18  O   UNL     1      43.691   3.304  10.313  0.00  0.00    +0.000 OA
ATOM     19  C   UNL     1      44.024   4.682  10.158  0.00  0.00    +0.000 C 
ATOM     20  C   UNL     1      45.227   5.043  11.020  0.00  0.00    +0.000 C 
ENDBRANCH  14  15
ENDBRANCH   5  14
TORSDOF 3
ENDMDL
MODEL 9
REMARK VINA RESULT:    -5.059      3.827      5.430
REMARK INTER + INTRA:          -6.276
REMARK INTER:                  -6.018
REMARK INTRA:                  -0.257
REMARK UNBOUND:                -0.330
REMARK  Name = 
REMARK  3 active torsions:
REMARK  status: ('A' for Active; 'I' for Inactive)
REMARK    1  A    between atoms: C_2  and  C_4
REMARK    2  A    between atoms: N_8  and  C_9
REMARK    3  A    between atoms: C_9  and  C_10
REMARK                            x       y       z     vdW  Elec       q    Type
REMARK                         _______ _______ _______ _____ _____    ______ ____
ROOT
ATOM      1  C   UNL     1      45.031   4.291  11.055  0.00  0.00    +0.000 A 
ATOM      2  C   UNL     1      45.184   3.675  12.296  0.00  0.00    +0.000 A 
ATOM      3  C   UNL     1      45.913   4.334  13.289  0.00  0.00    +0.000 A 
ATOM      4  C   UNL     1      46.466   5.592  13.032  0.00  0.00    +0.000 A 
ATOM      5  N   UNL     1      47.251   6.193  14.030  0.00  0.00    +0.000 N 
ATOM      6  N   UNL     1      46.336   6.180  11.827  0.00  0.00    +0.000 NA
ATOM      7  C   UNL     1      45.631   5.525  10.869  0.00  0.00    +0.000 A 
ATOM      8  H   UNL     1      46.800   6.103  14.933  0.00  0.00    +0.000 HD
ENDROOT
BRANCH   1  10
ATOM      9  N   UNL     1      44.093   4.429   8.818  0.00  0.00    +0.000 N 
ATOM     10  C   UNL     1      44.270   3.677   9.946  0.00  0.00    +0.000 C 
ATOM     11  O   UNL     1      43.857   2.528  10.018  0.00  0.00    +0.000 OA
ATOM     12  H   UNL     1      43.665   3.959   8.030  0.00  0.00    +0.000 HD
ATOM     13  H   UNL     1      44.625   5.267   8.628  0.00  0.00    +0.000 HD
ENDBRANCH   1  10
BRANCH   5  14
ATOM     14  C   UNL     1      47.723   7.545  13.722  0.00  0.00    +0.000 C 
BRANCH  14  15
ATOM     15  C   UNL     1      49.261   7.620  13.791  0.00  0.00    +0.000 C 
ATOM     16  C   UNL     1      49.804   7.273  15.187  0.00  0.00    +0.000 C 
ATOM     17  C   UNL     1      51.305   7.522  15.270  0.00  0.00    +0.000 C 
ATOM     18  O   UNL     1      51.611   8.871  14.928  0.00  0.00    +0.000 OA
ATOM     19  C   UNL     1      51.243   9.176  13.583  0.00  0.00    +0.000 C 
ATOM     20  C   UNL     1      49.739   9.026  13.393  0.00  0.00    +0.000 C 
ENDBRANCH  14  15
ENDBRANCH   5  14
TORSDOF 3
ENDMDL
