MODEL 1
REMARK VINA RESULT:    -8.479      0.000      0.000
REMARK INTER + INTRA:         -11.510
REMARK INTER:                 -11.205
REMARK INTRA:                  -0.305
REMARK UNBOUND:                -0.305
REMARK  Name = 
REMARK  6 active torsions:
REMARK  status: ('A' for Active; 'I' for Inactive)
REMARK    1  A    between atoms: N_1  and  C_2
REMARK    2  A    between atoms: C_2  and  C_3
REMARK    3  A    between atoms: C_3  and  C_4
REMARK    4  A    between atoms: C_7  and  C_8
REMARK    5  A    between atoms: C_8  and  C_9
REMARK    6  A    between atoms: C_16  and  C_17
REMARK                            x       y       z     vdW  Elec       q    Type
REMARK                         _______ _______ _______ _____ _____    ______ ____
ROOT
ATOM      1  C   UNL     1      43.929   5.439  11.850  0.00  0.00    +0.000 A 
ATOM      2  N   UNL     1      43.534   6.587  11.290  0.00  0.00    +0.000 NA
ATOM      3  S   UNL     1      44.675   7.739  11.599  0.00  0.00    +0.000 S 
ATOM      4  C   UNL     1      45.674   6.752  12.587  0.00  0.00    +0.000 A 
ATOM      5  C   UNL     1      46.942   7.020  13.119  0.00  0.00    +0.000 A 
ATOM      6  C   UNL     1      47.511   6.071  13.965  0.00  0.00    +0.000 A 
ATOM      7  F   UNL     1      48.748   6.320  14.426  0.00  0.00    +0.000 F 
ATOM      8  C   UNL     1      46.832   4.911  14.327  0.00  0.00    +0.000 A 
ATOM      9  C   UNL     1      45.590   4.627  13.725  0.00  0.00    +0.000 A 
ATOM     10  C   UNL     1      45.019   5.539  12.800  0.00  0.00    +0.000 A 
ENDROOT
BRANCH   8  11
ATOM     11  C   UNL     1      47.370   3.952  15.329  0.00  0.00    +0.000 C 
ATOM     12  N   UNL     1      47.337   4.310  16.647  0.00  0.00    +0.000 N 
ATOM     13  O   UNL     1      47.816   2.863  14.985  0.00  0.00    +0.000 OA
ATOM     14  H   UNL     1      46.951   5.190  16.982  0.00  0.00    +0.000 HD
ATOM     15  H   UNL     1      47.665   3.641  17.333  0.00  0.00    +0.000 HD
ENDBRANCH   8  11
BRANCH   1  16
ATOM     16  C   UNL     1      43.338   4.161  11.324  0.00  0.00    +0.000 C 
BRANCH  16  20
ATOM     17  C   UNL     1      45.755   3.098   7.866  0.00  0.00    +0.000 A 
ATOM     18  C   UNL     1      45.622   4.437   8.258  0.00  0.00    +0.000 A 
ATOM     19  C   UNL     1      44.888   4.778   9.400  0.00  0.00    +0.000 A 
ATOM     20  C   UNL     1      44.271   3.788  10.178  0.00  0.00    +0.000 A 
ATOM     21  C   UNL     1      44.444   2.444   9.803  0.00  0.00    +0.000 A 
ATOM     22  C   UNL     1      45.177   2.104   8.662  0.00  0.00    +0.000 A 
BRANCH  17  23
ATOM     23  C   UNL     1      46.491   2.736   6.596  0.00  0.00    +0.000 C 
BRANCH  23  24
ATOM     24  C   UNL     1      47.703   1.836   6.850  0.00  0.00    +0.000 C 
BRANCH  24  25
ATOM     25  N   UNL     1      48.605   1.831   5.697  0.00  0.00    +0.000 NA
ATOM     26  H   UNL     1      48.102   2.162   4.874  0.00  0.00    +0.000 HD
ATOM     27  H   UNL     1      48.891   0.876   5.490  0.00  0.00    +0.000 HD
ENDBRANCH  24  25
ENDBRANCH  23  24
ENDBRANCH  17  23
ENDBRANCH  16  20
ENDBRANCH   1  16
TORSDOF 6
ENDMDL
MODEL 2
REMARK VINA RESULT:    -7.983      2.531      3.409
REMARK INTER + INTRA:         -10.855
REMARK INTER:                 -10.153
REMARK INTRA:                  -0.703
REMARK UNBOUND:                -0.305
REMARK  Name = 
REMARK  6 active torsions:
REMARK  status: ('A' for Active; 'I' for Inactive)
REMARK    1  A    between atoms: N_1  and  C_2
REMARK    2  A    between atoms: C_2  and  C_3
REMARK    3  A    between atoms: C_3  and  C_4
REMARK    4  A    between atoms: C_7  and  C_8
REMARK    5  A    between atoms: C_8  and  C_9
REMARK    6  A    between atoms: C_16  and  C_17
REMARK                            x       y       z     vdW  Elec       q    Type
REMARK                         _______ _______ _______ _____ _____    ______ ____
ROOT
ATOM      1  C   UNL     1      45.701   4.460  12.515  0.00  0.00    +0.000 A 
ATOM      2  N   UNL     1      46.032   3.320  13.131  0.00  0.00    +0.000 NA
ATOM      3  S   UNL     1      47.126   3.664  14.318  0.00  0.00    +0.000 S 
ATOM      4  C   UNL     1      47.266   5.338  13.961  0.00  0.00    +0.000 A 
ATOM      5  C   UNL     1      47.937   6.345  14.668  0.00  0.00    +0.000 A 
ATOM      6  C   UNL     1      47.965   7.624  14.117  0.00  0.00    +0.000 A 
ATOM      7  F   UNL     1      48.570   8.588  14.830  0.00  0.00    +0.000 F 
ATOM      8  C   UNL     1      47.395   7.901  12.877  0.00  0.00    +0.000 A 
ATOM      9  C   UNL     1      46.664   6.893  12.219  0.00  0.00    +0.000 A 
ATOM     10  C   UNL     1      46.553   5.600  12.791  0.00  0.00    +0.000 A 
ENDROOT
BRANCH   8  11
ATOM     11  C   UNL     1      47.528   9.227  12.216  0.00  0.00    +0.000 C 
ATOM     12  N   UNL     1      46.547  10.154  12.429  0.00  0.00    +0.000 N 
ATOM     13  O   UNL     1      48.497   9.488  11.514  0.00  0.00    +0.000 OA
ATOM     14  H   UNL     1      45.739   9.992  13.026  0.00  0.00    +0.000 HD
ATOM     15  H   UNL     1      46.658  11.071  12.013  0.00  0.00    +0.000 HD
ENDBRANCH   8  11
BRANCH   1  16
ATOM     16  C   UNL     1      44.406   4.497  11.753  0.00  0.00    +0.000 C 
BRANCH  16  20
ATOM     17  C   UNL     1      45.841   3.163   7.868  0.00  0.00    +0.000 A 
ATOM     18  C   UNL     1      45.193   2.272   8.733  0.00  0.00    +0.000 A 
ATOM     19  C   UNL     1      44.684   2.708   9.961  0.00  0.00    +0.000 A 
ATOM     20  C   UNL     1      44.810   4.049  10.353  0.00  0.00    +0.000 A 
ATOM     21  C   UNL     1      45.423   4.947   9.462  0.00  0.00    +0.000 A 
ATOM     22  C   UNL     1      45.932   4.510   8.235  0.00  0.00    +0.000 A 
BRANCH  17  23
ATOM     23  C   UNL     1      46.449   2.677   6.572  0.00  0.00    +0.000 C 
BRANCH  23  24
ATOM     24  C   UNL     1      47.667   1.776   6.791  0.00  0.00    +0.000 C 
BRANCH  24  25
ATOM     25  N   UNL     1      48.589   1.854   5.658  0.00  0.00    +0.000 NA
ATOM     26  H   UNL     1      48.466   1.034   5.065  0.00  0.00    +0.000 HD
ATOM     27  H   UNL     1      49.550   1.819   5.995  0.00  0.00    +0.000 HD
ENDBRANCH  24  25
ENDBRANCH  23  24
ENDBRANCH  17  23
ENDBRANCH  16  20
ENDBRANCH   1  16
TORSDOF 6
ENDMDL
MODEL 3
REMARK VINA RESULT:    -7.529      1.892      2.289
REMARK INTER + INTRA:         -10.255
REMARK INTER:                 -10.218
REMARK INTRA:                  -0.038
REMARK UNBOUND:                -0.305
REMARK  Name = 
REMARK  6 active torsions:
REMARK  status: ('A' for Active; 'I' for Inactive)
REMARK    1  A    between atoms: N_1  and  C_2
REMARK    2  A    between atoms: C_2  and  C_3
REMARK    3  A    between atoms: C_3  and  C_4
REMARK    4  A    between atoms: C_7  and  C_8
REMARK    5  A    between atoms: C_8  and  C_9
REMARK    6  A    between atoms: C_16  and  C_17
REMARK                            x       y       z     vdW  Elec       q    Type
REMARK                         _______ _______ _______ _____ _____    ______ ____
ROOT
ATOM      1  C   UNL     1      43.877   4.714  11.976  0.00  0.00    +0.000 A 
ATOM      2  N   UNL     1      42.666   5.207  11.697  0.00  0.00    +0.000 NA
ATOM      3  S   UNL     1      42.801   6.838  11.484  0.00  0.00    +0.000 S 
ATOM      4  C   UNL     1      44.471   6.938  11.871  0.00  0.00    +0.000 A 
ATOM      5  C   UNL     1      45.344   8.029  11.769  0.00  0.00    +0.000 A 
ATOM      6  C   UNL     1      46.648   7.869  12.228  0.00  0.00    +0.000 A 
ATOM      7  F   UNL     1      47.486   8.908  12.078  0.00  0.00    +0.000 F 
ATOM      8  C   UNL     1      47.076   6.685  12.824  0.00  0.00    +0.000 A 
ATOM      9  C   UNL     1      46.205   5.579  12.851  0.00  0.00    +0.000 A 
ATOM     10  C   UNL     1      44.894   5.687  12.322  0.00  0.00    +0.000 A 
ENDROOT
BRANCH   8  11
ATOM     11  C   UNL     1      48.424   6.542  13.436  0.00  0.00    +0.000 C 
ATOM     12  N   UNL     1      49.515   6.840  12.670  0.00  0.00    +0.000 N 
ATOM     13  O   UNL     1      48.554   6.182  14.600  0.00  0.00    +0.000 OA
ATOM     14  H   UNL     1      49.455   7.169  11.709  0.00  0.00    +0.000 HD
ATOM     15  H   UNL     1      50.431   6.783  13.098  0.00  0.00    +0.000 HD
ENDBRANCH   8  11
BRANCH   1  16
ATOM     16  C   UNL     1      44.111   3.248  11.739  0.00  0.00    +0.000 C 
BRANCH  16  20
ATOM     17  C   UNL     1      45.879   3.099   7.766  0.00  0.00    +0.000 A 
ATOM     18  C   UNL     1      45.421   1.929   8.387  0.00  0.00    +0.000 A 
ATOM     19  C   UNL     1      44.805   1.979   9.643  0.00  0.00    +0.000 A 
ATOM     20  C   UNL     1      44.630   3.202  10.306  0.00  0.00    +0.000 A 
ATOM     21  C   UNL     1      45.053   4.376   9.660  0.00  0.00    +0.000 A 
ATOM     22  C   UNL     1      45.670   4.325   8.405  0.00  0.00    +0.000 A 
BRANCH  17  23
ATOM     23  C   UNL     1      46.604   3.035   6.441  0.00  0.00    +0.000 C 
BRANCH  23  24
ATOM     24  C   UNL     1      48.067   2.607   6.586  0.00  0.00    +0.000 C 
BRANCH  24  25
ATOM     25  N   UNL     1      48.493   1.798   5.444  0.00  0.00    +0.000 NA
ATOM     26  H   UNL     1      48.752   0.866   5.768  0.00  0.00    +0.000 HD
ATOM     27  H   UNL     1      49.335   2.200   5.035  0.00  0.00    +0.000 HD
ENDBRANCH  24  25
ENDBRANCH  23  24
ENDBRANCH  17  23
ENDBRANCH  16  20
ENDBRANCH   1  16
TORSDOF 6
ENDMDL
MODEL 4
REMARK VINA RESULT:    -6.939      3.792      7.631
REMARK INTER + INTRA:          -9.476
REMARK INTER:                  -9.198
REMARK INTRA:                  -0.278
REMARK UNBOUND:                -0.305
REMARK  Name = 
REMARK  6 active torsions:
REMARK  status: ('A' for Active; 'I' for Inactive)
REMARK    1  A    between atoms: N_1  and  C_2
REMARK    2  A    between atoms: C_2  and  C_3
REMARK    3  A    between atoms: C_3  and  C_4
REMARK    4  A    between atoms: C_7  and  C_8
REMARK    5  A    between atoms: C_8  and  C_9
REMARK    6  A    between atoms: C_16  and  C_17
REMARK                            x       y       z     vdW  Elec       q    Type
REMARK                         _______ _______ _______ _____ _____    ______ ____
ROOT
ATOM      1  C   UNL     1      47.724   5.059  15.350  0.00  0.00    +0.000 A 
ATOM      2  N   UNL     1      48.629   6.036  15.466  0.00  0.00    +0.000 NA
ATOM      3  S   UNL     1      48.483   7.041  14.165  0.00  0.00    +0.000 S 
ATOM      4  C   UNL     1      47.274   6.126  13.358  0.00  0.00    +0.000 A 
ATOM      5  C   UNL     1      46.533   6.446  12.213  0.00  0.00    +0.000 A 
ATOM      6  C   UNL     1      45.659   5.485  11.710  0.00  0.00    +0.000 A 
ATOM      7  F   UNL     1      44.920   5.825  10.641  0.00  0.00    +0.000 F 
ATOM      8  C   UNL     1      45.553   4.220  12.281  0.00  0.00    +0.000 A 
ATOM      9  C   UNL     1      46.251   3.945  13.473  0.00  0.00    +0.000 A 
ATOM     10  C   UNL     1      47.091   4.930  14.053  0.00  0.00    +0.000 A 
ENDROOT
BRANCH   8  11
ATOM     11  C   UNL     1      44.723   3.141  11.681  0.00  0.00    +0.000 C 
ATOM     12  N   UNL     1      43.802   2.519  12.474  0.00  0.00    +0.000 N 
ATOM     13  O   UNL     1      44.850   2.829  10.502  0.00  0.00    +0.000 OA
ATOM     14  H   UNL     1      43.641   2.763  13.449  0.00  0.00    +0.000 HD
ATOM     15  H   UNL     1      43.208   1.813  12.055  0.00  0.00    +0.000 HD
ENDBRANCH   8  11
BRANCH   1  16
ATOM     16  C   UNL     1      47.329   4.316  16.596  0.00  0.00    +0.000 C 
BRANCH  16  20
ATOM     17  C   UNL     1      51.205   2.673  17.694  0.00  0.00    +0.000 A 
ATOM     18  C   UNL     1      50.790   3.916  18.192  0.00  0.00    +0.000 A 
ATOM     19  C   UNL     1      49.524   4.424  17.882  0.00  0.00    +0.000 A 
ATOM     20  C   UNL     1      48.640   3.700  17.070  0.00  0.00    +0.000 A 
ATOM     21  C   UNL     1      49.045   2.436  16.609  0.00  0.00    +0.000 A 
ATOM     22  C   UNL     1      50.311   1.928  16.917  0.00  0.00    +0.000 A 
BRANCH  17  23
ATOM     23  C   UNL     1      52.597   2.156  17.973  0.00  0.00    +0.000 C 
BRANCH  23  24
ATOM     24  C   UNL     1      52.832   0.752  17.410  0.00  0.00    +0.000 C 
BRANCH  24  25
ATOM     25  N   UNL     1      52.689  -0.263  18.454  0.00  0.00    +0.000 NA
ATOM     26  H   UNL     1      51.698  -0.431  18.628  0.00  0.00    +0.000 HD
ATOM     27  H   UNL     1      53.076   0.087  19.328  0.00  0.00    +0.000 HD
ENDBRANCH  24  25
ENDBRANCH  23  24
ENDBRANCH  17  23
ENDBRANCH  16  20
ENDBRANCH   1  16
TORSDOF 6
ENDMDL
MODEL 5
REMARK VINA RESULT:    -6.515      3.253      6.971
REMARK INTER + INTRA:          -8.915
REMARK INTER:                  -8.284
REMARK INTRA:                  -0.632
REMARK UNBOUND:                -0.305
REMARK  Name = 
REMARK  6 active torsions:
REMARK  status: ('A' for Active; 'I' for Inactive)
REMARK    1  A    between atoms: N_1  and  C_2
REMARK    2  A    between atoms: C_2  and  C_3
REMARK    3  A    between atoms: C_3  and  C_4
REMARK    4  A    between atoms: C_7  and  C_8
REMARK    5  A    between atoms: C_8  and  C_9
REMARK    6  A    between atoms: C_16  and  C_17
REMARK                            x       y       z     vdW  Elec       q    Type
REMARK                         _______ _______ _______ _____ _____    ______ ____
ROOT
ATOM      1  C   UNL     1      47.020   7.493  11.985  0.00  0.00    +0.000 A 
ATOM      2  N   UNL     1      46.747   8.752  12.344  0.00  0.00    +0.000 NA
ATOM      3  S   UNL     1      45.108   8.948  12.356  0.00  0.00    +0.000 S 
ATOM      4  C   UNL     1      44.729   7.379  11.772  0.00  0.00    +0.000 A 
ATOM      5  C   UNL     1      43.481   6.752  11.651  0.00  0.00    +0.000 A 
ATOM      6  C   UNL     1      43.438   5.489  11.066  0.00  0.00    +0.000 A 
ATOM      7  F   UNL     1      42.241   4.881  11.003  0.00  0.00    +0.000 F 
ATOM      8  C   UNL     1      44.581   4.874  10.562  0.00  0.00    +0.000 A 
ATOM      9  C   UNL     1      45.833   5.489  10.758  0.00  0.00    +0.000 A 
ATOM     10  C   UNL     1      45.919   6.741  11.419  0.00  0.00    +0.000 A 
ENDROOT
BRANCH   8  11
ATOM     11  C   UNL     1      44.532   3.585   9.820  0.00  0.00    +0.000 C 
ATOM     12  N   UNL     1      44.391   2.433  10.538  0.00  0.00    +0.000 N 
ATOM     13  O   UNL     1      44.601   3.558   8.597  0.00  0.00    +0.000 OA
ATOM     14  H   UNL     1      44.302   2.408  11.552  0.00  0.00    +0.000 HD
ATOM     15  H   UNL     1      44.316   1.559  10.032  0.00  0.00    +0.000 HD
ENDBRANCH   8  11
BRANCH   1  16
ATOM     16  C   UNL     1      48.365   6.933  12.357  0.00  0.00    +0.000 C 
BRANCH  16  20
ATOM     17  C   UNL     1      47.885   4.919  16.183  0.00  0.00    +0.000 A 
ATOM     18  C   UNL     1      48.675   6.071  16.078  0.00  0.00    +0.000 A 
ATOM     19  C   UNL     1      48.791   6.751  14.861  0.00  0.00    +0.000 A 
ATOM     20  C   UNL     1      48.116   6.296  13.719  0.00  0.00    +0.000 A 
ATOM     21  C   UNL     1      47.291   5.164  13.841  0.00  0.00    +0.000 A 
ATOM     22  C   UNL     1      47.177   4.484  15.058  0.00  0.00    +0.000 A 
BRANCH  17  23
ATOM     23  C   UNL     1      47.815   4.147  17.481  0.00  0.00    +0.000 C 
BRANCH  23  24
ATOM     24  C   UNL     1      47.720   5.057  18.708  0.00  0.00    +0.000 C 
BRANCH  24  25
ATOM     25  N   UNL     1      46.358   5.559  18.887  0.00  0.00    +0.000 NA
ATOM     26  H   UNL     1      46.387   6.443  19.394  0.00  0.00    +0.000 HD
ATOM     27  H   UNL     1      45.829   4.914  19.471  0.00  0.00    +0.000 HD
ENDBRANCH  24  25
ENDBRANCH  23  24
ENDBRANCH  17  23
ENDBRANCH  16  20
ENDBRANCH   1  16
TORSDOF 6
ENDMDL
MODEL 6
REMARK VINA RESULT:    -6.213      3.908      5.507
REMARK INTER + INTRA:          -8.516
REMARK INTER:                  -7.790
REMARK INTRA:                  -0.726
REMARK UNBOUND:                -0.305
REMARK  Name = 
REMARK  6 active torsions:
REMARK  status: ('A' for Active; 'I' for Inactive)
REMARK    1  A    between atoms: N_1  and  C_2
REMARK    2  A    between atoms: C_2  and  C_3
REMARK    3  A    between atoms: C_3  and  C_4
REMARK    4  A    between atoms: C_7  and  C_8
REMARK    5  A    between atoms: C_8  and  C_9
REMARK    6  A    between atoms: C_16  and  C_17
REMARK                            x       y       z     vdW  Elec       q    Type
REMARK                         _______ _______ _______ _____ _____    ______ ____
ROOT
ATOM      1  C   UNL     1      48.493   7.420  14.908  0.00  0.00    +0.000 A 
ATOM      2  N   UNL     1      48.317   8.744  14.980  0.00  0.00    +0.000 NA
ATOM      3  S   UNL     1      48.704   9.241  16.505  0.00  0.00    +0.000 S 
ATOM      4  C   UNL     1      49.011   7.675  17.139  0.00  0.00    +0.000 A 
ATOM      5  C   UNL     1      49.540   7.306  18.383  0.00  0.00    +0.000 A 
ATOM      6  C   UNL     1      49.616   5.949  18.685  0.00  0.00    +0.000 A 
ATOM      7  F   UNL     1      50.171   5.611  19.861  0.00  0.00    +0.000 F 
ATOM      8  C   UNL     1      49.136   4.975  17.814  0.00  0.00    +0.000 A 
ATOM      9  C   UNL     1      48.676   5.362  16.540  0.00  0.00    +0.000 A 
ATOM     10  C   UNL     1      48.657   6.732  16.172  0.00  0.00    +0.000 A 
ENDROOT
BRANCH   8  11
ATOM     11  C   UNL     1      49.091   3.533  18.176  0.00  0.00    +0.000 C 
ATOM     12  N   UNL     1      48.324   3.159  19.243  0.00  0.00    +0.000 N 
ATOM     13  O   UNL     1      49.711   2.699  17.527  0.00  0.00    +0.000 OA
ATOM     14  H   UNL     1      47.770   3.811  19.794  0.00  0.00    +0.000 HD
ATOM     15  H   UNL     1      48.260   2.173  19.464  0.00  0.00    +0.000 HD
ENDBRANCH   8  11
BRANCH   1  16
ATOM     16  C   UNL     1      48.676   6.809  13.547  0.00  0.00    +0.000 C 
BRANCH  16  20
ATOM     17  C   UNL     1      44.694   5.157  12.968  0.00  0.00    +0.000 A 
ATOM     18  C   UNL     1      44.947   6.511  12.717  0.00  0.00    +0.000 A 
ATOM     19  C   UNL     1      46.237   7.036  12.852  0.00  0.00    +0.000 A 
ATOM     20  C   UNL     1      47.306   6.216  13.240  0.00  0.00    +0.000 A 
ATOM     21  C   UNL     1      47.054   4.849  13.450  0.00  0.00    +0.000 A 
ATOM     22  C   UNL     1      45.764   4.326  13.316  0.00  0.00    +0.000 A 
BRANCH  17  23
ATOM     23  C   UNL     1      43.288   4.607  12.888  0.00  0.00    +0.000 C 
BRANCH  23  24
ATOM     24  C   UNL     1      43.016   3.863  11.577  0.00  0.00    +0.000 C 
BRANCH  24  25
ATOM     25  N   UNL     1      43.105   2.415  11.765  0.00  0.00    +0.000 NA
ATOM     26  H   UNL     1      43.416   1.980  10.897  0.00  0.00    +0.000 HD
ATOM     27  H   UNL     1      42.179   2.037  11.957  0.00  0.00    +0.000 HD
ENDBRANCH  24  25
ENDBRANCH  23  24
ENDBRANCH  17  23
ENDBRANCH  16  20
ENDBRANCH   1  16
TORSDOF 6
ENDMDL
MODEL 7
REMARK VINA RESULT:    -5.939      4.168      7.599
REMARK INTER + INTRA:          -8.153
REMARK INTER:                  -7.366
REMARK INTRA:                  -0.787
REMARK UNBOUND:                -0.305
REMARK  Name = 
REMARK  6 active torsions:
REMARK  status: ('A' for Active; 'I' for Inactive)
REMARK    1  A    between atoms: N_1  and  C_2
REMARK    2  A    between atoms: C_2  and  C_3
REMARK    3  A    between atoms: C_3  and  C_4
REMARK    4  A    between atoms: C_7  and  C_8
REMARK    5  A    between atoms: C_8  and  C_9
REMARK    6  A    between atoms: C_16  and  C_17
REMARK                            x       y       z     vdW  Elec       q    Type
REMARK                         _______ _______ _______ _____ _____    ______ ____
ROOT
ATOM      1  C   UNL     1      48.518   8.389  12.979  0.00  0.00    +0.000 A 
ATOM      2  N   UNL     1      48.236   9.595  12.476  0.00  0.00    +0.000 NA
ATOM      3  S   UNL     1      46.621   9.658  12.141  0.00  0.00    +0.000 S 
ATOM      4  C   UNL     1      46.281   8.028  12.560  0.00  0.00    +0.000 A 
ATOM      5  C   UNL     1      45.046   7.376  12.665  0.00  0.00    +0.000 A 
ATOM      6  C   UNL     1      45.048   6.012  12.948  0.00  0.00    +0.000 A 
ATOM      7  F   UNL     1      43.855   5.412  13.094  0.00  0.00    +0.000 F 
ATOM      8  C   UNL     1      46.232   5.291  13.073  0.00  0.00    +0.000 A 
ATOM      9  C   UNL     1      47.461   5.979  13.036  0.00  0.00    +0.000 A 
ATOM     10  C   UNL     1      47.489   7.381  12.825  0.00  0.00    +0.000 A 
ENDROOT
BRANCH   8  11
ATOM     11  C   UNL     1      46.252   3.813  13.246  0.00  0.00    +0.000 C 
ATOM     12  N   UNL     1      47.124   3.282  14.153  0.00  0.00    +0.000 N 
ATOM     13  O   UNL     1      45.495   3.092  12.605  0.00  0.00    +0.000 OA
ATOM     14  H   UNL     1      47.750   3.842  14.727  0.00  0.00    +0.000 HD
ATOM     15  H   UNL     1      47.108   2.280  14.301  0.00  0.00    +0.000 HD
ENDBRANCH   8  11
BRANCH   1  16
ATOM     16  C   UNL     1      49.774   8.244  13.793  0.00  0.00    +0.000 C 
BRANCH  16  20
ATOM     17  C   UNL     1      48.562   7.371  17.879  0.00  0.00    +0.000 A 
ATOM     18  C   UNL     1      48.254   8.606  17.292  0.00  0.00    +0.000 A 
ATOM     19  C   UNL     1      48.596   8.871  15.962  0.00  0.00    +0.000 A 
ATOM     20  C   UNL     1      49.254   7.906  15.185  0.00  0.00    +0.000 A 
ATOM     21  C   UNL     1      49.522   6.655  15.766  0.00  0.00    +0.000 A 
ATOM     22  C   UNL     1      49.180   6.390  17.096  0.00  0.00    +0.000 A 
BRANCH  17  23
ATOM     23  C   UNL     1      48.252   7.110  19.335  0.00  0.00    +0.000 C 
BRANCH  23  24
ATOM     24  C   UNL     1      47.668   5.716  19.577  0.00  0.00    +0.000 C 
BRANCH  24  25
ATOM     25  N   UNL     1      46.386   5.556  18.889  0.00  0.00    +0.000 NA
ATOM     26  H   UNL     1      46.211   6.375  18.307  0.00  0.00    +0.000 HD
ATOM     27  H   UNL     1      45.632   5.528  19.573  0.00  0.00    +0.000 HD
ENDBRANCH  24  25
ENDBRANCH  23  24
ENDBRANCH  17  23
ENDBRANCH  16  20
ENDBRANCH   1  16
TORSDOF 6
ENDMDL
MODEL 8
REMARK VINA RESULT:    -5.803      3.829      5.911
REMARK INTER + INTRA:          -7.974
REMARK INTER:                  -7.355
REMARK INTRA:                  -0.618
REMARK UNBOUND:                -0.305
REMARK  Name = 
REMARK  6 active torsions:
REMARK  status: ('A' for Active; 'I' for Inactive)
REMARK    1  A    between atoms: N_1  and  C_2
REMARK    2  A    between atoms: C_2  and  C_3
REMARK    3  A    between atoms: C_3  and  C_4
REMARK    4  A    between atoms: C_7  and  C_8
REMARK    5  A    between atoms: C_8  and  C_9
REMARK    6  A    between atoms: C_16  and  C_17
REMARK                            x       y       z     vdW  Elec       q    Type
REMARK                         _______ _______ _______ _____ _____    ______ ____
ROOT
ATOM      1  C   UNL     1      46.102   8.447  12.481  0.00  0.00    +0.000 A 
ATOM      2  N   UNL     1      45.636   9.584  11.953  0.00  0.00    +0.000 NA
ATOM      3  S   UNL     1      44.213   9.259  11.183  0.00  0.00    +0.000 S 
ATOM      4  C   UNL     1      44.243   7.562  11.444  0.00  0.00    +0.000 A 
ATOM      5  C   UNL     1      43.255   6.604  11.182  0.00  0.00    +0.000 A 
ATOM      6  C   UNL     1      43.563   5.266  11.415  0.00  0.00    +0.000 A 
ATOM      7  F   UNL     1      42.589   4.365  11.205  0.00  0.00    +0.000 F 
ATOM      8  C   UNL     1      44.826   4.868  11.845  0.00  0.00    +0.000 A 
ATOM      9  C   UNL     1      45.780   5.852  12.172  0.00  0.00    +0.000 A 
ATOM     10  C   UNL     1      45.471   7.228  12.017  0.00  0.00    +0.000 A 
ENDROOT
BRANCH   8  11
ATOM     11  C   UNL     1      45.210   3.437  11.975  0.00  0.00    +0.000 C 
ATOM     12  N   UNL     1      45.017   2.617  10.900  0.00  0.00    +0.000 N 
ATOM     13  O   UNL     1      45.701   3.007  13.012  0.00  0.00    +0.000 OA
ATOM     14  H   UNL     1      44.639   2.935  10.010  0.00  0.00    +0.000 HD
ATOM     15  H   UNL     1      45.317   1.652  10.973  0.00  0.00    +0.000 HD
ENDBRANCH   8  11
BRANCH   1  16
ATOM     16  C   UNL     1      47.091   8.549  13.608  0.00  0.00    +0.000 C 
BRANCH  16  20
ATOM     17  C   UNL     1      50.781   8.577  11.304  0.00  0.00    +0.000 A 
ATOM     18  C   UNL     1      50.235   9.773  11.791  0.00  0.00    +0.000 A 
ATOM     19  C   UNL     1      49.077   9.763  12.576  0.00  0.00    +0.000 A 
ATOM     20  C   UNL     1      48.438   8.557  12.895  0.00  0.00    +0.000 A 
ATOM     21  C   UNL     1      49.014   7.358  12.440  0.00  0.00    +0.000 A 
ATOM     22  C   UNL     1      50.172   7.368  11.655  0.00  0.00    +0.000 A 
BRANCH  17  23
ATOM     23  C   UNL     1      51.993   8.594  10.401  0.00  0.00    +0.000 C 
BRANCH  23  24
ATOM     24  C   UNL     1      52.387   7.198   9.911  0.00  0.00    +0.000 C 
BRANCH  24  25
ATOM     25  N   UNL     1      53.497   6.659  10.697  0.00  0.00    +0.000 NA
ATOM     26  H   UNL     1      54.350   6.682  10.138  0.00  0.00    +0.000 HD
ATOM     27  H   UNL     1      53.323   5.678  10.908  0.00  0.00    +0.000 HD
ENDBRANCH  24  25
ENDBRANCH  23  24
ENDBRANCH  17  23
ENDBRANCH  16  20
ENDBRANCH   1  16
TORSDOF 6
ENDMDL
MODEL 9
REMARK VINA RESULT:    -5.635      4.288      6.358
REMARK INTER + INTRA:          -7.752
REMARK INTER:                  -7.231
REMARK INTRA:                  -0.522
REMARK UNBOUND:                -0.305
REMARK  Name = 
REMARK  6 active torsions:
REMARK  status: ('A' for Active; 'I' for Inactive)
REMARK    1  A    between atoms: N_1  and  C_2
REMARK    2  A    between atoms: C_2  and  C_3
REMARK    3  A    between atoms: C_3  and  C_4
REMARK    4  A    between atoms: C_7  and  C_8
REMARK    5  A    between atoms: C_8  and  C_9
REMARK    6  A    between atoms: C_16  and  C_17
REMARK                            x       y       z     vdW  Elec       q    Type
REMARK                         _______ _______ _______ _____ _____    ______ ____
ROOT
ATOM      1  C   UNL     1      47.357   7.952  13.110  0.00  0.00    +0.000 A 
ATOM      2  N   UNL     1      48.160   7.903  14.178  0.00  0.00    +0.000 NA
ATOM      3  S   UNL     1      48.152   6.362  14.768  0.00  0.00    +0.000 S 
ATOM      4  C   UNL     1      46.983   5.749  13.671  0.00  0.00    +0.000 A 
ATOM      5  C   UNL     1      46.555   4.429  13.471  0.00  0.00    +0.000 A 
ATOM      6  C   UNL     1      45.524   4.206  12.562  0.00  0.00    +0.000 A 
ATOM      7  F   UNL     1      45.159   2.931  12.347  0.00  0.00    +0.000 F 
ATOM      8  C   UNL     1      44.888   5.254  11.903  0.00  0.00    +0.000 A 
ATOM      9  C   UNL     1      45.381   6.564  12.062  0.00  0.00    +0.000 A 
ATOM     10  C   UNL     1      46.480   6.815  12.923  0.00  0.00    +0.000 A 
ENDROOT
BRANCH   8  11
ATOM     11  C   UNL     1      43.702   5.044  11.029  0.00  0.00    +0.000 C 
ATOM     12  N   UNL     1      43.913   4.803   9.701  0.00  0.00    +0.000 N 
ATOM     13  O   UNL     1      42.566   5.070  11.489  0.00  0.00    +0.000 OA
ATOM     14  H   UNL     1      44.838   4.745   9.280  0.00  0.00    +0.000 HD
ATOM     15  H   UNL     1      43.109   4.619   9.114  0.00  0.00    +0.000 HD
ENDBRANCH   8  11
BRANCH   1  16
ATOM     16  C   UNL     1      47.560   9.074  12.130  0.00  0.00    +0.000 C 
BRANCH  16  20
ATOM     17  C   UNL     1      51.693   8.788  10.803  0.00  0.00    +0.000 A 
ATOM     18  C   UNL     1      51.158  10.017  11.208  0.00  0.00    +0.000 A 
ATOM     19  C   UNL     1      49.845  10.105  11.684  0.00  0.00    +0.000 A 
ATOM     20  C   UNL     1      49.037   8.963  11.768  0.00  0.00    +0.000 A 
ATOM     21  C   UNL     1      49.593   7.725  11.401  0.00  0.00    +0.000 A 
ATOM     22  C   UNL     1      50.905   7.638  10.924  0.00  0.00    +0.000 A 
BRANCH  17  23
ATOM     23  C   UNL     1      53.088   8.706  10.225  0.00  0.00    +0.000 C 
BRANCH  23  24
ATOM     24  C   UNL     1      53.258   7.539   9.248  0.00  0.00    +0.000 C 
BRANCH  24  25
ATOM     25  N   UNL     1      52.940   7.948   7.880  0.00  0.00    +0.000 NA
ATOM     26  H   UNL     1      51.989   8.315   7.849  0.00  0.00    +0.000 HD
ATOM     27  H   UNL     1      52.951   7.134   7.268  0.00  0.00    +0.000 HD
ENDBRANCH  24  25
ENDBRANCH  23  24
ENDBRANCH  17  23
ENDBRANCH  16  20
ENDBRANCH   1  16
TORSDOF 6
ENDMDL
