MODEL 1
REMARK VINA RESULT:    -8.697      0.000      0.000
REMARK INTER + INTRA:         -12.605
REMARK INTER:                 -11.748
REMARK INTRA:                  -0.857
REMARK UNBOUND:                -0.857
REMARK  Name = 
REMARK  6 active torsions:
REMARK  status: ('A' for Active; 'I' for Inactive)
REMARK    1  A    between atoms: C_2  and  C_3
REMARK    2  A    between atoms: C_6  and  N_7
REMARK    3  A    between atoms: N_7  and  C_8
REMARK    4  A    between atoms: C_8  and  C_9
REMARK    5  A    between atoms: C_13  and  C_14
REMARK    6  A    between atoms: C_18  and  C_19
REMARK                            x       y       z     vdW  Elec       q    Type
REMARK                         _______ _______ _______ _____ _____    ______ ____
ROOT
ATOM      1  C   UNL     1      44.906   5.990  11.721  0.00  0.00    +0.000 A 
ATOM      2  C   UNL     1      45.034   7.296  11.223  0.00  0.00    +0.000 A 
ATOM      3  C   UNL     1      45.865   8.222  11.848  0.00  0.00    +0.000 A 
ATOM      4  C   UNL     1      46.633   7.840  12.948  0.00  0.00    +0.000 A 
ATOM      5  C   UNL     1      46.623   6.515  13.410  0.00  0.00    +0.000 A 
ATOM      6  C   UNL     1      45.742   5.618  12.783  0.00  0.00    +0.000 A 
ENDROOT
BRANCH   5   7
ATOM      7  C   UNL     1      47.472   6.052  14.524  0.00  0.00    +0.000 A 
ATOM      8  C   UNL     1      48.608   6.783  14.908  0.00  0.00    +0.000 A 
ATOM      9  C   UNL     1      49.420   6.319  15.932  0.00  0.00    +0.000 A 
ATOM     10  N   UNL     1      49.184   5.183  16.605  0.00  0.00    +0.000 NA
ATOM     11  C   UNL     1      48.075   4.486  16.232  0.00  0.00    +0.000 A 
ATOM     12  C   UNL     1      47.205   4.871  15.221  0.00  0.00    +0.000 A 
BRANCH  11  13
ATOM     13  C   UNL     1      47.827   3.204  16.971  0.00  0.00    +0.000 C 
ATOM     14  N   UNL     1      48.932   2.411  17.118  0.00  0.00    +0.000 N 
ATOM     15  O   UNL     1      46.726   2.885  17.396  0.00  0.00    +0.000 OA
ATOM     16  H   UNL     1      49.811   2.704  16.718  0.00  0.00    +0.000 HD
ATOM     17  H   UNL     1      48.838   1.510  17.564  0.00  0.00    +0.000 HD
ENDBRANCH  11  13
ENDBRANCH   5   7
BRANCH   1  18
ATOM     18  C   UNL     1      43.812   5.060  11.226  0.00  0.00    +0.000 C 
ATOM     19  C   UNL     1      43.095   4.172  12.226  0.00  0.00    +0.000 C 
ATOM     20  C   UNL     1      42.424   5.418  11.757  0.00  0.00    +0.000 C 
BRANCH  18  21
ATOM     21  N   UNL     1      43.876   4.735   9.810  0.00  0.00    +0.000 N 
ATOM     22  H   UNL     1      43.371   5.313   9.145  0.00  0.00    +0.000 HD
BRANCH  21  26
ATOM     23  C   UNL     1      46.656   2.717   7.566  0.00  0.00    +0.000 A 
ATOM     24  C   UNL     1      46.516   4.094   7.544  0.00  0.00    +0.000 A 
ATOM     25  N   UNL     1      45.614   4.746   8.316  0.00  0.00    +0.000 NA
ATOM     26  C   UNL     1      44.821   3.999   9.118  0.00  0.00    +0.000 A 
ATOM     27  C   UNL     1      44.972   2.610   9.133  0.00  0.00    +0.000 A 
ATOM     28  N   UNL     1      45.887   1.941   8.372  0.00  0.00    +0.000 NA
BRANCH  23  30
ATOM     29  N   UNL     1      48.363   1.554   5.988  0.00  0.00    +0.000 NA
ATOM     30  C   UNL     1      47.626   2.077   6.724  0.00  0.00    +0.000 C 
ENDBRANCH  23  30
ENDBRANCH  21  26
ENDBRANCH  18  21
ENDBRANCH   1  18
TORSDOF 6
ENDMDL
MODEL 2
REMARK VINA RESULT:    -8.191      3.285      4.282
REMARK INTER + INTRA:         -11.920
REMARK INTER:                 -10.983
REMARK INTRA:                  -0.938
REMARK UNBOUND:                -0.857
REMARK  Name = 
REMARK  6 active torsions:
REMARK  status: ('A' for Active; 'I' for Inactive)
REMARK    1  A    between atoms: C_2  and  C_3
REMARK    2  A    between atoms: C_6  and  N_7
REMARK    3  A    between atoms: N_7  and  C_8
REMARK    4  A    between atoms: C_8  and  C_9
REMARK    5  A    between atoms: C_13  and  C_14
REMARK    6  A    between atoms: C_18  and  C_19
REMARK                            x       y       z     vdW  Elec       q    Type
REMARK                         _______ _______ _______ _____ _____    ______ ____
ROOT
ATOM      1  C   UNL     1      45.094   5.343  12.083  0.00  0.00    +0.000 A 
ATOM      2  C   UNL     1      45.522   4.456  13.083  0.00  0.00    +0.000 A 
ATOM      3  C   UNL     1      46.768   4.602  13.686  0.00  0.00    +0.000 A 
ATOM      4  C   UNL     1      47.587   5.679  13.342  0.00  0.00    +0.000 A 
ATOM      5  C   UNL     1      47.153   6.653  12.430  0.00  0.00    +0.000 A 
ATOM      6  C   UNL     1      45.908   6.451  11.811  0.00  0.00    +0.000 A 
ENDROOT
BRANCH   5   7
ATOM      7  C   UNL     1      47.955   7.844  12.092  0.00  0.00    +0.000 A 
ATOM      8  C   UNL     1      47.363   9.118  12.059  0.00  0.00    +0.000 A 
ATOM      9  C   UNL     1      48.118  10.225  11.704  0.00  0.00    +0.000 A 
ATOM     10  N   UNL     1      49.419  10.162  11.384  0.00  0.00    +0.000 NA
ATOM     11  C   UNL     1      49.986   8.925  11.429  0.00  0.00    +0.000 A 
ATOM     12  C   UNL     1      49.312   7.760  11.771  0.00  0.00    +0.000 A 
BRANCH  11  13
ATOM     13  C   UNL     1      51.435   8.853  11.047  0.00  0.00    +0.000 C 
ATOM     14  N   UNL     1      52.088   7.740  11.504  0.00  0.00    +0.000 N 
ATOM     15  O   UNL     1      51.994   9.720  10.392  0.00  0.00    +0.000 OA
ATOM     16  H   UNL     1      51.590   7.069  12.070  0.00  0.00    +0.000 HD
ATOM     17  H   UNL     1      53.077   7.639  11.328  0.00  0.00    +0.000 HD
ENDBRANCH  11  13
ENDBRANCH   5   7
BRANCH   1  18
ATOM     18  C   UNL     1      43.873   5.043  11.231  0.00  0.00    +0.000 C 
ATOM     19  C   UNL     1      42.684   4.350  11.869  0.00  0.00    +0.000 C 
ATOM     20  C   UNL     1      42.629   5.824  11.657  0.00  0.00    +0.000 C 
BRANCH  18  21
ATOM     21  N   UNL     1      44.120   4.992   9.799  0.00  0.00    +0.000 N 
ATOM     22  H   UNL     1      43.872   5.792   9.224  0.00  0.00    +0.000 HD
BRANCH  21  26
ATOM     23  C   UNL     1      46.718   2.806   7.495  0.00  0.00    +0.000 A 
ATOM     24  C   UNL     1      46.668   4.189   7.480  0.00  0.00    +0.000 A 
ATOM     25  N   UNL     1      45.825   4.896   8.271  0.00  0.00    +0.000 NA
ATOM     26  C   UNL     1      45.001   4.199   9.086  0.00  0.00    +0.000 A 
ATOM     27  C   UNL     1      45.061   2.803   9.094  0.00  0.00    +0.000 A 
ATOM     28  N   UNL     1      45.915   2.079   8.313  0.00  0.00    +0.000 NA
BRANCH  23  30
ATOM     29  N   UNL     1      48.412   1.539   5.985  0.00  0.00    +0.000 NA
ATOM     30  C   UNL     1      47.627   2.108   6.632  0.00  0.00    +0.000 C 
ENDBRANCH  23  30
ENDBRANCH  21  26
ENDBRANCH  18  21
ENDBRANCH   1  18
TORSDOF 6
ENDMDL
MODEL 3
REMARK VINA RESULT:    -7.776      1.789      2.164
REMARK INTER + INTRA:         -11.360
REMARK INTER:                 -10.645
REMARK INTRA:                  -0.715
REMARK UNBOUND:                -0.857
REMARK  Name = 
REMARK  6 active torsions:
REMARK  status: ('A' for Active; 'I' for Inactive)
REMARK    1  A    between atoms: C_2  and  C_3
REMARK    2  A    between atoms: C_6  and  N_7
REMARK    3  A    between atoms: N_7  and  C_8
REMARK    4  A    between atoms: C_8  and  C_9
REMARK    5  A    between atoms: C_13  and  C_14
REMARK    6  A    between atoms: C_18  and  C_19
REMARK                            x       y       z     vdW  Elec       q    Type
REMARK                         _______ _______ _______ _____ _____    ______ ____
ROOT
ATOM      1  C   UNL     1      44.691   6.555  11.407  0.00  0.00    +0.000 A 
ATOM      2  C   UNL     1      44.103   7.784  11.071  0.00  0.00    +0.000 A 
ATOM      3  C   UNL     1      44.679   8.987  11.469  0.00  0.00    +0.000 A 
ATOM      4  C   UNL     1      45.892   8.985  12.159  0.00  0.00    +0.000 A 
ATOM      5  C   UNL     1      46.574   7.786  12.417  0.00  0.00    +0.000 A 
ATOM      6  C   UNL     1      45.942   6.588  12.038  0.00  0.00    +0.000 A 
ENDROOT
BRANCH   5   7
ATOM      7  C   UNL     1      47.891   7.742  13.079  0.00  0.00    +0.000 A 
ATOM      8  C   UNL     1      49.037   8.220  12.421  0.00  0.00    +0.000 A 
ATOM      9  C   UNL     1      50.276   8.141  13.038  0.00  0.00    +0.000 A 
ATOM     10  N   UNL     1      50.460   7.625  14.263  0.00  0.00    +0.000 NA
ATOM     11  C   UNL     1      49.343   7.173  14.896  0.00  0.00    +0.000 A 
ATOM     12  C   UNL     1      48.063   7.211  14.359  0.00  0.00    +0.000 A 
BRANCH  11  13
ATOM     13  C   UNL     1      49.556   6.575  16.255  0.00  0.00    +0.000 C 
ATOM     14  N   UNL     1      48.947   7.254  17.275  0.00  0.00    +0.000 N 
ATOM     15  O   UNL     1      50.227   5.571  16.441  0.00  0.00    +0.000 OA
ATOM     16  H   UNL     1      48.432   8.098  17.073  0.00  0.00    +0.000 HD
ATOM     17  H   UNL     1      49.080   6.941  18.226  0.00  0.00    +0.000 HD
ENDBRANCH  11  13
ENDBRANCH   5   7
BRANCH   1  18
ATOM     18  C   UNL     1      43.944   5.245  11.223  0.00  0.00    +0.000 C 
ATOM     19  C   UNL     1      43.775   4.323  12.416  0.00  0.00    +0.000 C 
ATOM     20  C   UNL     1      42.629   5.182  12.001  0.00  0.00    +0.000 C 
BRANCH  18  21
ATOM     21  N   UNL     1      43.886   4.758   9.854  0.00  0.00    +0.000 N 
ATOM     22  H   UNL     1      43.274   5.221   9.189  0.00  0.00    +0.000 HD
BRANCH  21  26
ATOM     23  C   UNL     1      46.592   2.686   7.570  0.00  0.00    +0.000 A 
ATOM     24  C   UNL     1      46.467   4.063   7.537  0.00  0.00    +0.000 A 
ATOM     25  N   UNL     1      45.590   4.734   8.322  0.00  0.00    +0.000 NA
ATOM     26  C   UNL     1      44.807   4.004   9.149  0.00  0.00    +0.000 A 
ATOM     27  C   UNL     1      44.942   2.615   9.175  0.00  0.00    +0.000 A 
ATOM     28  N   UNL     1      45.833   1.927   8.401  0.00  0.00    +0.000 NA
BRANCH  23  30
ATOM     29  N   UNL     1      48.351   1.501   6.067  0.00  0.00    +0.000 NA
ATOM     30  C   UNL     1      47.535   2.026   6.713  0.00  0.00    +0.000 C 
ENDBRANCH  23  30
ENDBRANCH  21  26
ENDBRANCH  18  21
ENDBRANCH   1  18
TORSDOF 6
ENDMDL
MODEL 4
REMARK VINA RESULT:    -7.582      1.578      2.192
REMARK INTER + INTRA:         -11.099
REMARK INTER:                 -10.898
REMARK INTRA:                  -0.201
REMARK UNBOUND:                -0.857
REMARK  Name = 
REMARK  6 active torsions:
REMARK  status: ('A' for Active; 'I' for Inactive)
REMARK    1  A    between atoms: C_2  and  C_3
REMARK    2  A    between atoms: C_6  and  N_7
REMARK    3  A    between atoms: N_7  and  C_8
REMARK    4  A    between atoms: C_8  and  C_9
REMARK    5  A    between atoms: C_13  and  C_14
REMARK    6  A    between atoms: C_18  and  C_19
REMARK                            x       y       z     vdW  Elec       q    Type
REMARK                         _______ _______ _______ _____ _____    ______ ____
ROOT
ATOM      1  C   UNL     1      45.314   5.243  11.910  0.00  0.00    +0.000 A 
ATOM      2  C   UNL     1      46.034   6.182  11.156  0.00  0.00    +0.000 A 
ATOM      3  C   UNL     1      47.173   6.794  11.673  0.00  0.00    +0.000 A 
ATOM      4  C   UNL     1      47.649   6.430  12.933  0.00  0.00    +0.000 A 
ATOM      5  C   UNL     1      47.027   5.415  13.675  0.00  0.00    +0.000 A 
ATOM      6  C   UNL     1      45.856   4.849  13.141  0.00  0.00    +0.000 A 
ENDROOT
BRANCH   5   7
ATOM      7  C   UNL     1      47.538   4.950  14.978  0.00  0.00    +0.000 A 
ATOM      8  C   UNL     1      47.249   3.654  15.437  0.00  0.00    +0.000 A 
ATOM      9  C   UNL     1      47.703   3.240  16.680  0.00  0.00    +0.000 A 
ATOM     10  N   UNL     1      48.428   4.017  17.498  0.00  0.00    +0.000 NA
ATOM     11  C   UNL     1      48.711   5.268  17.041  0.00  0.00    +0.000 A 
ATOM     12  C   UNL     1      48.300   5.770  15.813  0.00  0.00    +0.000 A 
BRANCH  11  13
ATOM     13  C   UNL     1      49.501   6.143  17.968  0.00  0.00    +0.000 C 
ATOM     14  N   UNL     1      49.797   5.569  19.175  0.00  0.00    +0.000 N 
ATOM     15  O   UNL     1      49.843   7.280  17.679  0.00  0.00    +0.000 OA
ATOM     16  H   UNL     1      49.462   4.640  19.379  0.00  0.00    +0.000 HD
ATOM     17  H   UNL     1      50.288   6.110  19.873  0.00  0.00    +0.000 HD
ENDBRANCH  11  13
ENDBRANCH   5   7
BRANCH   1  18
ATOM     18  C   UNL     1      43.934   4.775  11.480  0.00  0.00    +0.000 C 
ATOM     19  C   UNL     1      42.736   5.134  12.339  0.00  0.00    +0.000 C 
ATOM     20  C   UNL     1      42.996   5.921  11.100  0.00  0.00    +0.000 C 
BRANCH  18  21
ATOM     21  N   UNL     1      43.925   3.633  10.579  0.00  0.00    +0.000 N 
ATOM     22  H   UNL     1      43.075   3.086  10.481  0.00  0.00    +0.000 HD
BRANCH  21  26
ATOM     23  C   UNL     1      46.491   2.626   7.540  0.00  0.00    +0.000 A 
ATOM     24  C   UNL     1      45.994   1.710   8.450  0.00  0.00    +0.000 A 
ATOM     25  N   UNL     1      45.122   2.054   9.429  0.00  0.00    +0.000 NA
ATOM     26  C   UNL     1      44.752   3.353   9.506  0.00  0.00    +0.000 A 
ATOM     27  C   UNL     1      45.258   4.269   8.582  0.00  0.00    +0.000 A 
ATOM     28  N   UNL     1      46.125   3.933   7.581  0.00  0.00    +0.000 NA
BRANCH  23  30
ATOM     29  N   UNL     1      48.203   1.831   5.753  0.00  0.00    +0.000 NA
ATOM     30  C   UNL     1      47.416   2.207   6.526  0.00  0.00    +0.000 C 
ENDBRANCH  23  30
ENDBRANCH  21  26
ENDBRANCH  18  21
ENDBRANCH   1  18
TORSDOF 6
ENDMDL
MODEL 5
REMARK VINA RESULT:    -7.553      3.009      3.583
REMARK INTER + INTRA:         -11.059
REMARK INTER:                 -10.362
REMARK INTRA:                  -0.697
REMARK UNBOUND:                -0.857
REMARK  Name = 
REMARK  6 active torsions:
REMARK  status: ('A' for Active; 'I' for Inactive)
REMARK    1  A    between atoms: C_2  and  C_3
REMARK    2  A    between atoms: C_6  and  N_7
REMARK    3  A    between atoms: N_7  and  C_8
REMARK    4  A    between atoms: C_8  and  C_9
REMARK    5  A    between atoms: C_13  and  C_14
REMARK    6  A    between atoms: C_18  and  C_19
REMARK                            x       y       z     vdW  Elec       q    Type
REMARK                         _______ _______ _______ _____ _____    ______ ____
ROOT
ATOM      1  C   UNL     1      44.719   6.612  11.395  0.00  0.00    +0.000 A 
ATOM      2  C   UNL     1      44.041   7.814  11.135  0.00  0.00    +0.000 A 
ATOM      3  C   UNL     1      44.601   9.041  11.480  0.00  0.00    +0.000 A 
ATOM      4  C   UNL     1      45.879   9.093  12.037  0.00  0.00    +0.000 A 
ATOM      5  C   UNL     1      46.639   7.926  12.211  0.00  0.00    +0.000 A 
ATOM      6  C   UNL     1      46.027   6.702  11.890  0.00  0.00    +0.000 A 
ENDROOT
BRANCH   5   7
ATOM      7  C   UNL     1      48.020   7.943  12.728  0.00  0.00    +0.000 A 
ATOM      8  C   UNL     1      48.264   7.923  14.112  0.00  0.00    +0.000 A 
ATOM      9  C   UNL     1      49.565   7.976  14.588  0.00  0.00    +0.000 A 
ATOM     10  N   UNL     1      50.642   8.042  13.791  0.00  0.00    +0.000 NA
ATOM     11  C   UNL     1      50.396   8.050  12.452  0.00  0.00    +0.000 A 
ATOM     12  C   UNL     1      49.130   8.001  11.883  0.00  0.00    +0.000 A 
BRANCH  11  13
ATOM     13  C   UNL     1      51.601   8.148  11.564  0.00  0.00    +0.000 C 
ATOM     14  N   UNL     1      51.647   7.213  10.566  0.00  0.00    +0.000 N 
ATOM     15  O   UNL     1      52.477   8.986  11.722  0.00  0.00    +0.000 OA
ATOM     16  H   UNL     1      50.916   6.521  10.499  0.00  0.00    +0.000 HD
ATOM     17  H   UNL     1      52.450   7.184   9.953  0.00  0.00    +0.000 HD
ENDBRANCH  11  13
ENDBRANCH   5   7
BRANCH   1  18
ATOM     18  C   UNL     1      44.018   5.269  11.281  0.00  0.00    +0.000 C 
ATOM     19  C   UNL     1      43.945   4.372  12.502  0.00  0.00    +0.000 C 
ATOM     20  C   UNL     1      42.746   5.174  12.124  0.00  0.00    +0.000 C 
BRANCH  18  21
ATOM     21  N   UNL     1      43.914   4.745   9.928  0.00  0.00    +0.000 N 
ATOM     22  H   UNL     1      43.259   5.172   9.280  0.00  0.00    +0.000 HD
BRANCH  21  26
ATOM     23  C   UNL     1      46.585   2.698   7.581  0.00  0.00    +0.000 A 
ATOM     24  C   UNL     1      46.453   4.075   7.559  0.00  0.00    +0.000 A 
ATOM     25  N   UNL     1      45.588   4.738   8.364  0.00  0.00    +0.000 NA
ATOM     26  C   UNL     1      44.824   3.999   9.201  0.00  0.00    +0.000 A 
ATOM     27  C   UNL     1      44.966   2.610   9.217  0.00  0.00    +0.000 A 
ATOM     28  N   UNL     1      45.845   1.930   8.422  0.00  0.00    +0.000 NA
BRANCH  23  30
ATOM     29  N   UNL     1      48.310   1.503   6.047  0.00  0.00    +0.000 NA
ATOM     30  C   UNL     1      47.515   2.047   6.703  0.00  0.00    +0.000 C 
ENDBRANCH  23  30
ENDBRANCH  21  26
ENDBRANCH  18  21
ENDBRANCH   1  18
TORSDOF 6
ENDMDL
MODEL 6
REMARK VINA RESULT:    -6.935      2.811      7.715
REMARK INTER + INTRA:         -10.225
REMARK INTER:                 -10.118
REMARK INTRA:                  -0.107
REMARK UNBOUND:                -0.857
REMARK  Name = 
REMARK  6 active torsions:
REMARK  status: ('A' for Active; 'I' for Inactive)
REMARK    1  A    between atoms: C_2  and  C_3
REMARK    2  A    between atoms: C_6  and  N_7
REMARK    3  A    between atoms: N_7  and  C_8
REMARK    4  A    between atoms: C_8  and  C_9
REMARK    5  A    between atoms: C_13  and  C_14
REMARK    6  A    between atoms: C_18  and  C_19
REMARK                            x       y       z     vdW  Elec       q    Type
REMARK                         _______ _______ _______ _____ _____    ______ ____
ROOT
ATOM      1  C   UNL     1      45.435   6.456  11.773  0.00  0.00    +0.000 A 
ATOM      2  C   UNL     1      44.074   6.736  11.971  0.00  0.00    +0.000 A 
ATOM      3  C   UNL     1      43.092   6.078  11.236  0.00  0.00    +0.000 A 
ATOM      4  C   UNL     1      43.451   5.080  10.330  0.00  0.00    +0.000 A 
ATOM      5  C   UNL     1      44.790   4.687  10.182  0.00  0.00    +0.000 A 
ATOM      6  C   UNL     1      45.758   5.401  10.909  0.00  0.00    +0.000 A 
ENDROOT
BRANCH   5   7
ATOM      7  C   UNL     1      45.206   3.588   9.290  0.00  0.00    +0.000 A 
ATOM      8  C   UNL     1      44.815   2.265   9.557  0.00  0.00    +0.000 A 
ATOM      9  C   UNL     1      45.242   1.235   8.733  0.00  0.00    +0.000 A 
ATOM     10  N   UNL     1      46.025   1.423   7.660  0.00  0.00    +0.000 NA
ATOM     11  C   UNL     1      46.390   2.709   7.404  0.00  0.00    +0.000 A 
ATOM     12  C   UNL     1      46.013   3.804   8.171  0.00  0.00    +0.000 A 
BRANCH  11  13
ATOM     13  C   UNL     1      47.285   2.913   6.218  0.00  0.00    +0.000 C 
ATOM     14  N   UNL     1      48.603   2.622   6.444  0.00  0.00    +0.000 N 
ATOM     15  O   UNL     1      46.877   3.318   5.139  0.00  0.00    +0.000 OA
ATOM     16  H   UNL     1      48.895   2.324   7.363  0.00  0.00    +0.000 HD
ATOM     17  H   UNL     1      49.278   2.777   5.709  0.00  0.00    +0.000 HD
ENDBRANCH  11  13
ENDBRANCH   5   7
BRANCH   1  18
ATOM     18  C   UNL     1      46.518   7.345  12.358  0.00  0.00    +0.000 C 
ATOM     19  C   UNL     1      46.642   8.775  11.864  0.00  0.00    +0.000 C 
ATOM     20  C   UNL     1      45.968   8.519  13.170  0.00  0.00    +0.000 C 
BRANCH  18  21
ATOM     21  N   UNL     1      47.636   6.636  12.961  0.00  0.00    +0.000 N 
ATOM     22  H   UNL     1      48.584   6.929  12.745  0.00  0.00    +0.000 HD
BRANCH  21  26
ATOM     23  C   UNL     1      47.972   4.413  16.393  0.00  0.00    +0.000 A 
ATOM     24  C   UNL     1      48.543   5.664  16.239  0.00  0.00    +0.000 A 
ATOM     25  N   UNL     1      48.395   6.399  15.110  0.00  0.00    +0.000 NA
ATOM     26  C   UNL     1      47.670   5.858  14.104  0.00  0.00    +0.000 A 
ATOM     27  C   UNL     1      47.097   4.595  14.271  0.00  0.00    +0.000 A 
ATOM     28  N   UNL     1      47.226   3.851  15.409  0.00  0.00    +0.000 NA
BRANCH  23  30
ATOM     29  N   UNL     1      48.379   3.047  18.567  0.00  0.00    +0.000 NA
ATOM     30  C   UNL     1      48.166   3.677  17.609  0.00  0.00    +0.000 C 
ENDBRANCH  23  30
ENDBRANCH  21  26
ENDBRANCH  18  21
ENDBRANCH   1  18
TORSDOF 6
ENDMDL
MODEL 7
REMARK VINA RESULT:    -6.925      2.977      4.122
REMARK INTER + INTRA:         -10.211
REMARK INTER:                  -9.917
REMARK INTRA:                  -0.294
REMARK UNBOUND:                -0.857
REMARK  Name = 
REMARK  6 active torsions:
REMARK  status: ('A' for Active; 'I' for Inactive)
REMARK    1  A    between atoms: C_2  and  C_3
REMARK    2  A    between atoms: C_6  and  N_7
REMARK    3  A    between atoms: N_7  and  C_8
REMARK    4  A    between atoms: C_8  and  C_9
REMARK    5  A    between atoms: C_13  and  C_14
REMARK    6  A    between atoms: C_18  and  C_19
REMARK                            x       y       z     vdW  Elec       q    Type
REMARK                         _______ _______ _______ _____ _____    ______ ____
ROOT
ATOM      1  C   UNL     1      44.776   4.708  12.230  0.00  0.00    +0.000 A 
ATOM      2  C   UNL     1      45.193   3.463  12.724  0.00  0.00    +0.000 A 
ATOM      3  C   UNL     1      46.443   3.308  13.316  0.00  0.00    +0.000 A 
ATOM      4  C   UNL     1      47.277   4.414  13.483  0.00  0.00    +0.000 A 
ATOM      5  C   UNL     1      46.856   5.699  13.108  0.00  0.00    +0.000 A 
ATOM      6  C   UNL     1      45.606   5.811  12.475  0.00  0.00    +0.000 A 
ENDROOT
BRANCH   5   7
ATOM      7  C   UNL     1      47.676   6.905  13.331  0.00  0.00    +0.000 A 
ATOM      8  C   UNL     1      48.361   7.087  14.544  0.00  0.00    +0.000 A 
ATOM      9  C   UNL     1      49.099   8.242  14.758  0.00  0.00    +0.000 A 
ATOM     10  N   UNL     1      49.210   9.226  13.853  0.00  0.00    +0.000 NA
ATOM     11  C   UNL     1      48.551   9.035  12.678  0.00  0.00    +0.000 A 
ATOM     12  C   UNL     1      47.788   7.915  12.374  0.00  0.00    +0.000 A 
BRANCH  11  13
ATOM     13  C   UNL     1      48.657  10.149  11.678  0.00  0.00    +0.000 C 
ATOM     14  N   UNL     1      47.612  11.033  11.700  0.00  0.00    +0.000 N 
ATOM     15  O   UNL     1      49.591  10.253  10.897  0.00  0.00    +0.000 OA
ATOM     16  H   UNL     1      46.847  10.883  12.341  0.00  0.00    +0.000 HD
ATOM     17  H   UNL     1      47.587  11.785  11.027  0.00  0.00    +0.000 HD
ENDBRANCH  11  13
ENDBRANCH   5   7
BRANCH   1  18
ATOM     18  C   UNL     1      43.548   4.838  11.346  0.00  0.00    +0.000 C 
ATOM     19  C   UNL     1      42.311   5.517  11.902  0.00  0.00    +0.000 C 
ATOM     20  C   UNL     1      43.206   6.285  10.990  0.00  0.00    +0.000 C 
BRANCH  18  21
ATOM     21  N   UNL     1      43.481   3.889  10.246  0.00  0.00    +0.000 N 
ATOM     22  H   UNL     1      42.575   3.649   9.853  0.00  0.00    +0.000 HD
BRANCH  21  26
ATOM     23  C   UNL     1      46.457   2.609   7.728  0.00  0.00    +0.000 A 
ATOM     24  C   UNL     1      45.727   1.757   8.538  0.00  0.00    +0.000 A 
ATOM     25  N   UNL     1      44.726   2.193   9.340  0.00  0.00    +0.000 NA
ATOM     26  C   UNL     1      44.461   3.519   9.342  0.00  0.00    +0.000 A 
ATOM     27  C   UNL     1      45.202   4.370   8.520  0.00  0.00    +0.000 A 
ATOM     28  N   UNL     1      46.204   3.943   7.696  0.00  0.00    +0.000 NA
BRANCH  23  30
ATOM     29  N   UNL     1      48.324   1.620   6.214  0.00  0.00    +0.000 NA
ATOM     30  C   UNL     1      47.511   2.094   6.902  0.00  0.00    +0.000 C 
ENDBRANCH  23  30
ENDBRANCH  21  26
ENDBRANCH  18  21
ENDBRANCH   1  18
TORSDOF 6
ENDMDL
MODEL 8
REMARK VINA RESULT:    -6.844      2.683      7.929
REMARK INTER + INTRA:         -10.101
REMARK INTER:                  -9.412
REMARK INTRA:                  -0.690
REMARK UNBOUND:                -0.857
REMARK  Name = 
REMARK  6 active torsions:
REMARK  status: ('A' for Active; 'I' for Inactive)
REMARK    1  A    between atoms: C_2  and  C_3
REMARK    2  A    between atoms: C_6  and  N_7
REMARK    3  A    between atoms: N_7  and  C_8
REMARK    4  A    between atoms: C_8  and  C_9
REMARK    5  A    between atoms: C_13  and  C_14
REMARK    6  A    between atoms: C_18  and  C_19
REMARK                            x       y       z     vdW  Elec       q    Type
REMARK                         _______ _______ _______ _____ _____    ______ ____
ROOT
ATOM      1  C   UNL     1      47.833   7.640  12.759  0.00  0.00    +0.000 A 
ATOM      2  C   UNL     1      47.127   8.806  13.092  0.00  0.00    +0.000 A 
ATOM      3  C   UNL     1      45.744   8.873  12.946  0.00  0.00    +0.000 A 
ATOM      4  C   UNL     1      45.033   7.750  12.522  0.00  0.00    +0.000 A 
ATOM      5  C   UNL     1      45.683   6.530  12.286  0.00  0.00    +0.000 A 
ATOM      6  C   UNL     1      47.084   6.510  12.403  0.00  0.00    +0.000 A 
ENDROOT
BRANCH   5   7
ATOM      7  C   UNL     1      44.962   5.300  11.906  0.00  0.00    +0.000 A 
ATOM      8  C   UNL     1      44.072   4.688  12.804  0.00  0.00    +0.000 A 
ATOM      9  C   UNL     1      43.427   3.513  12.451  0.00  0.00    +0.000 A 
ATOM     10  N   UNL     1      43.598   2.903  11.268  0.00  0.00    +0.000 NA
ATOM     11  C   UNL     1      44.454   3.509  10.400  0.00  0.00    +0.000 A 
ATOM     12  C   UNL     1      45.144   4.685  10.665  0.00  0.00    +0.000 A 
BRANCH  11  13
ATOM     13  C   UNL     1      44.661   2.813   9.088  0.00  0.00    +0.000 C 
ATOM     14  N   UNL     1      44.347   3.567   7.989  0.00  0.00    +0.000 N 
ATOM     15  O   UNL     1      45.066   1.663   9.003  0.00  0.00    +0.000 OA
ATOM     16  H   UNL     1      43.983   4.500   8.115  0.00  0.00    +0.000 HD
ATOM     17  H   UNL     1      44.416   3.154   7.070  0.00  0.00    +0.000 HD
ENDBRANCH  11  13
ENDBRANCH   5   7
BRANCH   1  18
ATOM     18  C   UNL     1      49.348   7.637  12.651  0.00  0.00    +0.000 C 
ATOM     19  C   UNL     1      49.987   7.415  11.292  0.00  0.00    +0.000 C 
ATOM     20  C   UNL     1      49.900   8.803  11.830  0.00  0.00    +0.000 C 
BRANCH  18  21
ATOM     21  N   UNL     1      50.052   7.356  13.892  0.00  0.00    +0.000 N 
ATOM     22  H   UNL     1      51.042   7.574  13.960  0.00  0.00    +0.000 HD
BRANCH  21  26
ATOM     23  C   UNL     1      48.408   6.703  17.593  0.00  0.00    +0.000 A 
ATOM     24  C   UNL     1      48.587   5.703  16.654  0.00  0.00    +0.000 A 
ATOM     25  N   UNL     1      49.161   5.930  15.448  0.00  0.00    +0.000 NA
ATOM     26  C   UNL     1      49.551   7.196  15.171  0.00  0.00    +0.000 A 
ATOM     27  C   UNL     1      49.367   8.197  16.126  0.00  0.00    +0.000 A 
ATOM     28  N   UNL     1      48.803   7.979  17.351  0.00  0.00    +0.000 NA
BRANCH  23  30
ATOM     29  N   UNL     1      47.275   6.100  19.854  0.00  0.00    +0.000 NA
ATOM     30  C   UNL     1      47.789   6.407  18.853  0.00  0.00    +0.000 C 
ENDBRANCH  23  30
ENDBRANCH  21  26
ENDBRANCH  18  21
ENDBRANCH   1  18
TORSDOF 6
ENDMDL
MODEL 9
REMARK VINA RESULT:    -6.820      2.581      7.634
REMARK INTER + INTRA:         -10.070
REMARK INTER:                  -9.273
REMARK INTRA:                  -0.796
REMARK UNBOUND:                -0.857
REMARK  Name = 
REMARK  6 active torsions:
REMARK  status: ('A' for Active; 'I' for Inactive)
REMARK    1  A    between atoms: C_2  and  C_3
REMARK    2  A    between atoms: C_6  and  N_7
REMARK    3  A    between atoms: N_7  and  C_8
REMARK    4  A    between atoms: C_8  and  C_9
REMARK    5  A    between atoms: C_13  and  C_14
REMARK    6  A    between atoms: C_18  and  C_19
REMARK                            x       y       z     vdW  Elec       q    Type
REMARK                         _______ _______ _______ _____ _____    ______ ____
ROOT
ATOM      1  C   UNL     1      48.371   7.776  14.119  0.00  0.00    +0.000 A 
ATOM      2  C   UNL     1      49.224   8.196  13.087  0.00  0.00    +0.000 A 
ATOM      3  C   UNL     1      49.008   7.797  11.771  0.00  0.00    +0.000 A 
ATOM      4  C   UNL     1      47.895   7.018  11.453  0.00  0.00    +0.000 A 
ATOM      5  C   UNL     1      46.953   6.669  12.433  0.00  0.00    +0.000 A 
ATOM      6  C   UNL     1      47.226   7.054  13.757  0.00  0.00    +0.000 A 
ENDROOT
BRANCH   5   7
ATOM      7  C   UNL     1      45.727   5.909  12.128  0.00  0.00    +0.000 A 
ATOM      8  C   UNL     1      44.630   5.942  13.005  0.00  0.00    +0.000 A 
ATOM      9  C   UNL     1      43.495   5.194  12.727  0.00  0.00    +0.000 A 
ATOM     10  N   UNL     1      43.369   4.420  11.639  0.00  0.00    +0.000 NA
ATOM     11  C   UNL     1      44.433   4.402  10.790  0.00  0.00    +0.000 A 
ATOM     12  C   UNL     1      45.609   5.115  10.984  0.00  0.00    +0.000 A 
BRANCH  11  13
ATOM     13  C   UNL     1      44.299   3.517   9.587  0.00  0.00    +0.000 C 
ATOM     14  N   UNL     1      44.151   4.187   8.403  0.00  0.00    +0.000 N 
ATOM     15  O   UNL     1      44.307   2.296   9.656  0.00  0.00    +0.000 OA
ATOM     16  H   UNL     1      44.115   5.195   8.403  0.00  0.00    +0.000 HD
ATOM     17  H   UNL     1      44.009   3.662   7.552  0.00  0.00    +0.000 HD
ENDBRANCH  11  13
ENDBRANCH   5   7
BRANCH   1  18
ATOM     18  C   UNL     1      48.742   7.970  15.579  0.00  0.00    +0.000 C 
ATOM     19  C   UNL     1      49.927   8.853  15.925  0.00  0.00    +0.000 C 
ATOM     20  C   UNL     1      48.550   9.407  16.068  0.00  0.00    +0.000 C 
BRANCH  18  21
ATOM     21  N   UNL     1      48.262   6.933  16.479  0.00  0.00    +0.000 N 
ATOM     22  H   UNL     1      47.292   6.948  16.779  0.00  0.00    +0.000 HD
BRANCH  21  26
ATOM     23  C   UNL     1      50.014   3.282  17.136  0.00  0.00    +0.000 A 
ATOM     24  C   UNL     1      50.639   4.486  17.412  0.00  0.00    +0.000 A 
ATOM     25  N   UNL     1      50.033   5.683  17.218  0.00  0.00    +0.000 NA
ATOM     26  C   UNL     1      48.775   5.672  16.721  0.00  0.00    +0.000 A 
ATOM     27  C   UNL     1      48.154   4.452  16.448  0.00  0.00    +0.000 A 
ATOM     28  N   UNL     1      48.747   3.238  16.652  0.00  0.00    +0.000 NA
BRANCH  23  30
ATOM     29  N   UNL     1      51.254   1.022  17.465  0.00  0.00    +0.000 NA
ATOM     30  C   UNL     1      50.705   2.044  17.356  0.00  0.00    +0.000 C 
ENDBRANCH  23  30
ENDBRANCH  21  26
ENDBRANCH  18  21
ENDBRANCH   1  18
TORSDOF 6
ENDMDL
