MODEL 1
REMARK VINA RESULT:    -7.055      0.000      0.000
REMARK INTER + INTRA:         -10.886
REMARK INTER:                  -9.530
REMARK INTRA:                  -1.357
REMARK UNBOUND:                -1.357
REMARK  Name = 
REMARK  7 active torsions:
REMARK  status: ('A' for Active; 'I' for Inactive)
REMARK    1  A    between atoms: C_1  and  N_2
REMARK    2  A    between atoms: N_2  and  C_3
REMARK    3  A    between atoms: C_3  and  C_4
REMARK    4  A    between atoms: C_7  and  C_8
REMARK    5  A    between atoms: C_8  and  N_9
REMARK    6  A    between atoms: N_9  and  C_10
REMARK    7  A    between atoms: C_17  and  C_19
REMARK                            x       y       z     vdW  Elec       q    Type
REMARK                         _______ _______ _______ _____ _____    ______ ____
ROOT
ATOM      1  C   UNL     1      47.013   6.207  12.284  0.00  0.00    +0.000 C 
ENDROOT
BRANCH   1   2
ATOM      2  C   UNL     1      47.342   5.773  13.687  0.00  0.00    +0.000 A 
ATOM      3  C   UNL     1      46.771   4.614  14.234  0.00  0.00    +0.000 A 
ATOM      4  C   UNL     1      47.094   4.211  15.532  0.00  0.00    +0.000 A 
ATOM      5  C   UNL     1      48.002   4.959  16.298  0.00  0.00    +0.000 A 
ATOM      6  C   UNL     1      48.568   6.114  15.750  0.00  0.00    +0.000 A 
ATOM      7  C   UNL     1      48.238   6.522  14.457  0.00  0.00    +0.000 A 
BRANCH   5   8
ATOM      8  C   UNL     1      48.319   4.564  17.720  0.00  0.00    +0.000 C 
BRANCH   8   9
ATOM      9  N   UNL     1      47.307   5.046  18.660  0.00  0.00    +0.000 NA
ATOM     10  H   UNL     1      46.816   4.238  19.046  0.00  0.00    +0.000 HD
BRANCH   9  11
ATOM     11  C   UNL     1      47.911   5.827  19.751  0.00  0.00    +0.000 C 
ATOM     12  C   UNL     1      47.435   7.277  19.710  0.00  0.00    +0.000 C 
ATOM     13  C   UNL     1      48.519   7.980  18.919  0.00  0.00    +0.000 C 
ATOM     14  N   UNL     1      49.758   7.393  19.445  0.00  0.00    +0.000 NA
ATOM     15  C   UNL     1      49.448   5.965  19.632  0.00  0.00    +0.000 C 
ATOM     16  H   UNL     1      49.952   7.806  20.356  0.00  0.00    +0.000 HD
ENDBRANCH   9  11
ENDBRANCH   8   9
ENDBRANCH   5   8
ENDBRANCH   1   2
BRANCH   1  18
ATOM     17  C   UNL     1      45.994   8.521  12.251  0.00  0.00    +0.000 C 
ATOM     18  N   UNL     1      45.848   7.077  12.097  0.00  0.00    +0.000 N 
ATOM     19  C   UNL     1      44.624   6.624  11.577  0.00  0.00    +0.000 C 
ATOM     20  O   UNL     1      43.730   7.409  11.266  0.00  0.00    +0.000 OA
BRANCH  19  21
ATOM     21  C   UNL     1      44.392   5.178  11.441  0.00  0.00    +0.000 A 
ATOM     22  C   UNL     1      43.643   4.418  12.326  0.00  0.00    +0.000 A 
ATOM     23  S   UNL     1      43.496   2.782  11.864  0.00  0.00    +0.000 S 
ATOM     24  C   UNL     1      44.303   3.071  10.396  0.00  0.00    +0.000 A 
ATOM     25  N   UNL     1      44.428   2.091   9.462  0.00  0.00    +0.000 NA
ATOM     26  C   UNL     1      45.001   2.474   8.369  0.00  0.00    +0.000 A 
ATOM     27  N   UNL     1      45.498   3.732   8.145  0.00  0.00    +0.000 N 
ATOM     28  C   UNL     1      45.518   4.715   9.113  0.00  0.00    +0.000 A 
ATOM     29  O   UNL     1      46.184   5.734   8.967  0.00  0.00    +0.000 OA
ATOM     30  C   UNL     1      44.770   4.368  10.308  0.00  0.00    +0.000 A 
ATOM     31  H   UNL     1      45.995   3.948   7.293  0.00  0.00    +0.000 HD
ENDBRANCH  19  21
ENDBRANCH   1  18
TORSDOF 6
ENDMDL
MODEL 2
REMARK VINA RESULT:    -6.689      3.465      7.994
REMARK INTER + INTRA:         -10.391
REMARK INTER:                  -9.222
REMARK INTRA:                  -1.170
REMARK UNBOUND:                -1.357
REMARK  Name = 
REMARK  7 active torsions:
REMARK  status: ('A' for Active; 'I' for Inactive)
REMARK    1  A    between atoms: C_1  and  N_2
REMARK    2  A    between atoms: N_2  and  C_3
REMARK    3  A    between atoms: C_3  and  C_4
REMARK    4  A    between atoms: C_7  and  C_8
REMARK    5  A    between atoms: C_8  and  N_9
REMARK    6  A    between atoms: N_9  and  C_10
REMARK    7  A    between atoms: C_17  and  C_19
REMARK                            x       y       z     vdW  Elec       q    Type
REMARK                         _______ _______ _______ _____ _____    ______ ____
ROOT
ATOM      1  C   UNL     1      49.204   6.914  15.211  0.00  0.00    +0.000 C 
ENDROOT
BRANCH   1   2
ATOM      2  C   UNL     1      48.055   6.812  14.244  0.00  0.00    +0.000 A 
ATOM      3  C   UNL     1      47.496   5.566  13.920  0.00  0.00    +0.000 A 
ATOM      4  C   UNL     1      46.420   5.483  13.034  0.00  0.00    +0.000 A 
ATOM      5  C   UNL     1      45.881   6.648  12.465  0.00  0.00    +0.000 A 
ATOM      6  C   UNL     1      46.442   7.888  12.789  0.00  0.00    +0.000 A 
ATOM      7  C   UNL     1      47.523   7.971  13.667  0.00  0.00    +0.000 A 
BRANCH   5   8
ATOM      8  C   UNL     1      44.754   6.568  11.465  0.00  0.00    +0.000 C 
BRANCH   8   9
ATOM      9  N   UNL     1      44.984   5.528  10.462  0.00  0.00    +0.000 NA
ATOM     10  H   UNL     1      45.767   4.950  10.772  0.00  0.00    +0.000 HD
BRANCH   9  11
ATOM     11  C   UNL     1      43.792   4.688  10.269  0.00  0.00    +0.000 C 
ATOM     12  C   UNL     1      42.994   4.569  11.564  0.00  0.00    +0.000 C 
ATOM     13  C   UNL     1      43.512   3.287  12.181  0.00  0.00    +0.000 C 
ATOM     14  N   UNL     1      43.616   2.376  11.033  0.00  0.00    +0.000 NA
ATOM     15  C   UNL     1      44.125   3.214   9.934  0.00  0.00    +0.000 C 
ATOM     16  H   UNL     1      42.681   2.053  10.789  0.00  0.00    +0.000 HD
ENDBRANCH   9  11
ENDBRANCH   8   9
ENDBRANCH   5   8
ENDBRANCH   1   2
BRANCH   1  18
ATOM     17  C   UNL     1      48.981   8.982  16.649  0.00  0.00    +0.000 C 
ATOM     18  N   UNL     1      48.941   7.529  16.515  0.00  0.00    +0.000 N 
ATOM     19  C   UNL     1      48.451   6.813  17.620  0.00  0.00    +0.000 C 
ATOM     20  O   UNL     1      48.074   7.387  18.640  0.00  0.00    +0.000 OA
BRANCH  19  21
ATOM     21  C   UNL     1      48.429   5.344  17.572  0.00  0.00    +0.000 A 
ATOM     22  C   UNL     1      47.295   4.585  17.326  0.00  0.00    +0.000 A 
ATOM     23  S   UNL     1      47.599   2.907  17.262  0.00  0.00    +0.000 S 
ATOM     24  C   UNL     1      49.274   3.152  17.415  0.00  0.00    +0.000 A 
ATOM     25  N   UNL     1      50.144   2.111  17.328  0.00  0.00    +0.000 NA
ATOM     26  C   UNL     1      51.387   2.456  17.393  0.00  0.00    +0.000 A 
ATOM     27  N   UNL     1      51.836   3.739  17.578  0.00  0.00    +0.000 N 
ATOM     28  C   UNL     1      50.989   4.803  17.810  0.00  0.00    +0.000 A 
ATOM     29  O   UNL     1      51.420   5.878  18.215  0.00  0.00    +0.000 OA
ATOM     30  C   UNL     1      49.586   4.483  17.619  0.00  0.00    +0.000 A 
ATOM     31  H   UNL     1      52.821   3.932  17.687  0.00  0.00    +0.000 HD
ENDBRANCH  19  21
ENDBRANCH   1  18
TORSDOF 6
ENDMDL
MODEL 3
REMARK VINA RESULT:    -6.376      3.481      5.306
REMARK INTER + INTRA:          -9.969
REMARK INTER:                  -8.763
REMARK INTRA:                  -1.206
REMARK UNBOUND:                -1.357
REMARK  Name = 
REMARK  7 active torsions:
REMARK  status: ('A' for Active; 'I' for Inactive)
REMARK    1  A    between atoms: C_1  and  N_2
REMARK    2  A    between atoms: N_2  and  C_3
REMARK    3  A    between atoms: C_3  and  C_4
REMARK    4  A    between atoms: C_7  and  C_8
REMARK    5  A    between atoms: C_8  and  N_9
REMARK    6  A    between atoms: N_9  and  C_10
REMARK    7  A    between atoms: C_17  and  C_19
REMARK                            x       y       z     vdW  Elec       q    Type
REMARK                         _______ _______ _______ _____ _____    ______ ____
ROOT
ATOM      1  C   UNL     1      46.471   6.362  12.839  0.00  0.00    +0.000 C 
ENDROOT
BRANCH   1   2
ATOM      2  C   UNL     1      47.838   6.989  12.795  0.00  0.00    +0.000 A 
ATOM      3  C   UNL     1      48.571   7.200  13.973  0.00  0.00    +0.000 A 
ATOM      4  C   UNL     1      49.845   7.769  13.921  0.00  0.00    +0.000 A 
ATOM      5  C   UNL     1      50.409   8.126  12.686  0.00  0.00    +0.000 A 
ATOM      6  C   UNL     1      49.676   7.914  11.514  0.00  0.00    +0.000 A 
ATOM      7  C   UNL     1      48.398   7.355  11.567  0.00  0.00    +0.000 A 
BRANCH   5   8
ATOM      8  C   UNL     1      51.763   8.790  12.620  0.00  0.00    +0.000 C 
BRANCH   8   9
ATOM      9  N   UNL     1      52.031   9.357  11.298  0.00  0.00    +0.000 NA
ATOM     10  H   UNL     1      52.111  10.370  11.392  0.00  0.00    +0.000 HD
BRANCH   9  11
ATOM     11  C   UNL     1      53.268   8.812  10.716  0.00  0.00    +0.000 C 
ATOM     12  C   UNL     1      52.978   8.078   9.409  0.00  0.00    +0.000 C 
ATOM     13  C   UNL     1      52.823   6.636   9.843  0.00  0.00    +0.000 C 
ATOM     14  N   UNL     1      53.903   6.458  10.822  0.00  0.00    +0.000 NA
ATOM     15  C   UNL     1      53.928   7.717  11.587  0.00  0.00    +0.000 C 
ATOM     16  H   UNL     1      54.784   6.364  10.321  0.00  0.00    +0.000 HD
ENDBRANCH   9  11
ENDBRANCH   8   9
ENDBRANCH   5   8
ENDBRANCH   1   2
BRANCH   1  18
ATOM     17  C   UNL     1      45.372   8.616  12.514  0.00  0.00    +0.000 C 
ATOM     18  N   UNL     1      45.340   7.165  12.365  0.00  0.00    +0.000 N 
ATOM     19  C   UNL     1      44.295   6.640  11.586  0.00  0.00    +0.000 C 
ATOM     20  O   UNL     1      43.460   7.371  11.056  0.00  0.00    +0.000 OA
BRANCH  19  21
ATOM     21  C   UNL     1      44.174   5.182  11.434  0.00  0.00    +0.000 A 
ATOM     22  C   UNL     1      43.408   4.369  12.256  0.00  0.00    +0.000 A 
ATOM     23  S   UNL     1      43.411   2.729  11.786  0.00  0.00    +0.000 S 
ATOM     24  C   UNL     1      44.316   3.077  10.390  0.00  0.00    +0.000 A 
ATOM     25  N   UNL     1      44.584   2.111   9.471  0.00  0.00    +0.000 NA
ATOM     26  C   UNL     1      45.218   2.536   8.429  0.00  0.00    +0.000 A 
ATOM     27  N   UNL     1      45.644   3.826   8.244  0.00  0.00    +0.000 N 
ATOM     28  C   UNL     1      45.517   4.804   9.208  0.00  0.00    +0.000 A 
ATOM     29  O   UNL     1      46.122   5.867   9.115  0.00  0.00    +0.000 OA
ATOM     30  C   UNL     1      44.699   4.404  10.338  0.00  0.00    +0.000 A 
ATOM     31  H   UNL     1      46.195   4.078   7.436  0.00  0.00    +0.000 HD
ENDBRANCH  19  21
ENDBRANCH   1  18
TORSDOF 6
ENDMDL
MODEL 4
REMARK VINA RESULT:    -6.278      3.494      8.072
REMARK INTER + INTRA:          -9.837
REMARK INTER:                  -8.698
REMARK INTRA:                  -1.139
REMARK UNBOUND:                -1.357
REMARK  Name = 
REMARK  7 active torsions:
REMARK  status: ('A' for Active; 'I' for Inactive)
REMARK    1  A    between atoms: C_1  and  N_2
REMARK    2  A    between atoms: N_2  and  C_3
REMARK    3  A    between atoms: C_3  and  C_4
REMARK    4  A    between atoms: C_7  and  C_8
REMARK    5  A    between atoms: C_8  and  N_9
REMARK    6  A    between atoms: N_9  and  C_10
REMARK    7  A    between atoms: C_17  and  C_19
REMARK                            x       y       z     vdW  Elec       q    Type
REMARK                         _______ _______ _______ _____ _____    ______ ____
ROOT
ATOM      1  C   UNL     1      49.218   7.889  15.395  0.00  0.00    +0.000 C 
ENDROOT
BRANCH   1   2
ATOM      2  C   UNL     1      48.149   7.569  14.386  0.00  0.00    +0.000 A 
ATOM      3  C   UNL     1      47.349   8.583  13.838  0.00  0.00    +0.000 A 
ATOM      4  C   UNL     1      46.369   8.277  12.890  0.00  0.00    +0.000 A 
ATOM      5  C   UNL     1      46.182   6.951  12.470  0.00  0.00    +0.000 A 
ATOM      6  C   UNL     1      46.981   5.943  13.019  0.00  0.00    +0.000 A 
ATOM      7  C   UNL     1      47.953   6.246  13.972  0.00  0.00    +0.000 A 
BRANCH   5   8
ATOM      8  C   UNL     1      45.093   6.600  11.487  0.00  0.00    +0.000 C 
BRANCH   8   9
ATOM      9  N   UNL     1      45.400   5.378  10.743  0.00  0.00    +0.000 NA
ATOM     10  H   UNL     1      45.964   4.771  11.339  0.00  0.00    +0.000 HD
BRANCH   9  11
ATOM     11  C   UNL     1      44.176   4.672  10.332  0.00  0.00    +0.000 C 
ATOM     12  C   UNL     1      43.154   4.651  11.466  0.00  0.00    +0.000 C 
ATOM     13  C   UNL     1      43.412   3.323  12.147  0.00  0.00    +0.000 C 
ATOM     14  N   UNL     1      43.617   2.399  11.025  0.00  0.00    +0.000 NA
ATOM     15  C   UNL     1      44.401   3.168  10.043  0.00  0.00    +0.000 C 
ATOM     16  H   UNL     1      42.711   2.178  10.616  0.00  0.00    +0.000 HD
ENDBRANCH   9  11
ENDBRANCH   8   9
ENDBRANCH   5   8
ENDBRANCH   1   2
BRANCH   1  18
ATOM     17  C   UNL     1      47.883   9.243  17.062  0.00  0.00    +0.000 C 
ATOM     18  N   UNL     1      48.795   8.140  16.776  0.00  0.00    +0.000 N 
ATOM     19  C   UNL     1      49.058   7.255  17.835  0.00  0.00    +0.000 C 
ATOM     20  O   UNL     1      48.539   7.405  18.939  0.00  0.00    +0.000 OA
BRANCH  19  21
ATOM     21  C   UNL     1      50.006   6.150  17.629  0.00  0.00    +0.000 A 
ATOM     22  C   UNL     1      51.374   6.242  17.835  0.00  0.00    +0.000 A 
ATOM     23  S   UNL     1      52.202   4.771  17.581  0.00  0.00    +0.000 S 
ATOM     24  C   UNL     1      50.744   3.934  17.330  0.00  0.00    +0.000 A 
ATOM     25  N   UNL     1      50.731   2.585  17.161  0.00  0.00    +0.000 NA
ATOM     26  C   UNL     1      49.548   2.078  17.052  0.00  0.00    +0.000 A 
ATOM     27  N   UNL     1      48.383   2.801  17.055  0.00  0.00    +0.000 N 
ATOM     28  C   UNL     1      48.355   4.180  17.084  0.00  0.00    +0.000 A 
ATOM     29  O   UNL     1      47.325   4.798  16.837  0.00  0.00    +0.000 OA
ATOM     30  C   UNL     1      49.652   4.782  17.335  0.00  0.00    +0.000 A 
ATOM     31  H   UNL     1      47.494   2.349  16.898  0.00  0.00    +0.000 HD
ENDBRANCH  19  21
ENDBRANCH   1  18
TORSDOF 6
ENDMDL
MODEL 5
REMARK VINA RESULT:    -5.841      3.307      8.844
REMARK INTER + INTRA:          -9.246
REMARK INTER:                  -8.596
REMARK INTRA:                  -0.650
REMARK UNBOUND:                -1.357
REMARK  Name = 
REMARK  7 active torsions:
REMARK  status: ('A' for Active; 'I' for Inactive)
REMARK    1  A    between atoms: C_1  and  N_2
REMARK    2  A    between atoms: N_2  and  C_3
REMARK    3  A    between atoms: C_3  and  C_4
REMARK    4  A    between atoms: C_7  and  C_8
REMARK    5  A    between atoms: C_8  and  N_9
REMARK    6  A    between atoms: N_9  and  C_10
REMARK    7  A    between atoms: C_17  and  C_19
REMARK                            x       y       z     vdW  Elec       q    Type
REMARK                         _______ _______ _______ _____ _____    ______ ____
ROOT
ATOM      1  C   UNL     1      47.726   6.375  14.568  0.00  0.00    +0.000 C 
ENDROOT
BRANCH   1   2
ATOM      2  C   UNL     1      46.848   5.639  13.593  0.00  0.00    +0.000 A 
ATOM      3  C   UNL     1      46.772   4.237  13.610  0.00  0.00    +0.000 A 
ATOM      4  C   UNL     1      45.942   3.563  12.711  0.00  0.00    +0.000 A 
ATOM      5  C   UNL     1      45.169   4.283  11.787  0.00  0.00    +0.000 A 
ATOM      6  C   UNL     1      45.248   5.680  11.772  0.00  0.00    +0.000 A 
ATOM      7  C   UNL     1      46.084   6.353  12.664  0.00  0.00    +0.000 A 
BRANCH   5   8
ATOM      8  C   UNL     1      44.309   3.565  10.776  0.00  0.00    +0.000 C 
BRANCH   8   9
ATOM      9  N   UNL     1      44.963   2.365  10.256  0.00  0.00    +0.000 NA
ATOM     10  H   UNL     1      44.575   1.552  10.737  0.00  0.00    +0.000 HD
BRANCH   9  11
ATOM     11  C   UNL     1      44.762   2.224   8.805  0.00  0.00    +0.000 C 
ATOM     12  C   UNL     1      45.941   1.501   8.160  0.00  0.00    +0.000 C 
ATOM     13  C   UNL     1      46.834   2.630   7.692  0.00  0.00    +0.000 C 
ATOM     14  N   UNL     1      45.887   3.604   7.134  0.00  0.00    +0.000 NA
ATOM     15  C   UNL     1      44.736   3.577   8.054  0.00  0.00    +0.000 C 
ATOM     16  H   UNL     1      45.581   3.273   6.221  0.00  0.00    +0.000 HD
ENDBRANCH   9  11
ENDBRANCH   8   9
ENDBRANCH   5   8
ENDBRANCH   1   2
BRANCH   1  18
ATOM     17  C   UNL     1      49.257   6.942  12.637  0.00  0.00    +0.000 C 
ATOM     18  N   UNL     1      48.850   7.143  14.024  0.00  0.00    +0.000 N 
ATOM     19  C   UNL     1      49.448   8.220  14.701  0.00  0.00    +0.000 C 
ATOM     20  O   UNL     1      50.264   8.953  14.145  0.00  0.00    +0.000 OA
BRANCH  19  21
ATOM     21  C   UNL     1      49.120   8.450  16.116  0.00  0.00    +0.000 A 
ATOM     22  C   UNL     1      48.264   9.441  16.571  0.00  0.00    +0.000 A 
ATOM     23  S   UNL     1      48.026   9.414  18.260  0.00  0.00    +0.000 S 
ATOM     24  C   UNL     1      48.942   7.991  18.418  0.00  0.00    +0.000 A 
ATOM     25  N   UNL     1      49.053   7.359  19.617  0.00  0.00    +0.000 NA
ATOM     26  C   UNL     1      49.720   6.253  19.570  0.00  0.00    +0.000 A 
ATOM     27  N   UNL     1      50.320   5.746  18.446  0.00  0.00    +0.000 N 
ATOM     28  C   UNL     1      50.351   6.422  17.243  0.00  0.00    +0.000 A 
ATOM     29  O   UNL     1      51.098   6.066  16.337  0.00  0.00    +0.000 OA
ATOM     30  C   UNL     1      49.508   7.603  17.218  0.00  0.00    +0.000 A 
ATOM     31  H   UNL     1      50.884   4.910  18.493  0.00  0.00    +0.000 HD
ENDBRANCH  19  21
ENDBRANCH   1  18
TORSDOF 6
ENDMDL
MODEL 6
REMARK VINA RESULT:    -5.723      2.255      3.274
REMARK INTER + INTRA:          -9.087
REMARK INTER:                  -7.931
REMARK INTRA:                  -1.156
REMARK UNBOUND:                -1.357
REMARK  Name = 
REMARK  7 active torsions:
REMARK  status: ('A' for Active; 'I' for Inactive)
REMARK    1  A    between atoms: C_1  and  N_2
REMARK    2  A    between atoms: N_2  and  C_3
REMARK    3  A    between atoms: C_3  and  C_4
REMARK    4  A    between atoms: C_7  and  C_8
REMARK    5  A    between atoms: C_8  and  N_9
REMARK    6  A    between atoms: N_9  and  C_10
REMARK    7  A    between atoms: C_17  and  C_19
REMARK                            x       y       z     vdW  Elec       q    Type
REMARK                         _______ _______ _______ _____ _____    ______ ____
ROOT
ATOM      1  C   UNL     1      45.681   3.710  12.489  0.00  0.00    +0.000 C 
ENDROOT
BRANCH   1   2
ATOM      2  C   UNL     1      46.540   4.488  13.448  0.00  0.00    +0.000 A 
ATOM      3  C   UNL     1      47.122   5.707  13.066  0.00  0.00    +0.000 A 
ATOM      4  C   UNL     1      47.905   6.430  13.968  0.00  0.00    +0.000 A 
ATOM      5  C   UNL     1      48.111   5.948  15.270  0.00  0.00    +0.000 A 
ATOM      6  C   UNL     1      47.530   4.732  15.647  0.00  0.00    +0.000 A 
ATOM      7  C   UNL     1      46.755   4.005  14.743  0.00  0.00    +0.000 A 
BRANCH   5   8
ATOM      8  C   UNL     1      48.998   6.692  16.237  0.00  0.00    +0.000 C 
BRANCH   8   9
ATOM      9  N   UNL     1      50.384   6.229  16.176  0.00  0.00    +0.000 NA
ATOM     10  H   UNL     1      50.958   6.981  15.792  0.00  0.00    +0.000 HD
BRANCH   9  11
ATOM     11  C   UNL     1      50.888   5.851  17.507  0.00  0.00    +0.000 C 
ATOM     12  C   UNL     1      51.704   4.564  17.434  0.00  0.00    +0.000 C 
ATOM     13  C   UNL     1      50.693   3.487  17.767  0.00  0.00    +0.000 C 
ATOM     14  N   UNL     1      49.925   4.072  18.872  0.00  0.00    +0.000 NA
ATOM     15  C   UNL     1      49.765   5.490  18.510  0.00  0.00    +0.000 C 
ATOM     16  H   UNL     1      50.483   4.014  19.723  0.00  0.00    +0.000 HD
ENDBRANCH   9  11
ENDBRANCH   8   9
ENDBRANCH   5   8
ENDBRANCH   1   2
BRANCH   1  18
ATOM     17  C   UNL     1      43.387   4.473  13.229  0.00  0.00    +0.000 C 
ATOM     18  N   UNL     1      44.360   4.255  12.163  0.00  0.00    +0.000 N 
ATOM     19  C   UNL     1      44.031   4.775  10.900  0.00  0.00    +0.000 C 
ATOM     20  O   UNL     1      42.980   5.385  10.713  0.00  0.00    +0.000 OA
BRANCH  19  21
ATOM     21  C   UNL     1      44.944   4.549   9.770  0.00  0.00    +0.000 A 
ATOM     22  C   UNL     1      45.786   5.513   9.238  0.00  0.00    +0.000 A 
ATOM     23  S   UNL     1      46.777   4.931   7.976  0.00  0.00    +0.000 S 
ATOM     24  C   UNL     1      46.216   3.342   8.200  0.00  0.00    +0.000 A 
ATOM     25  N   UNL     1      46.748   2.307   7.496  0.00  0.00    +0.000 NA
ATOM     26  C   UNL     1      46.273   1.150   7.821  0.00  0.00    +0.000 A 
ATOM     27  N   UNL     1      45.289   0.940   8.752  0.00  0.00    +0.000 N 
ATOM     28  C   UNL     1      44.625   1.969   9.387  0.00  0.00    +0.000 A 
ATOM     29  O   UNL     1      43.594   1.763  10.019  0.00  0.00    +0.000 OA
ATOM     30  C   UNL     1      45.213   3.275   9.148  0.00  0.00    +0.000 A 
ATOM     31  H   UNL     1      44.916   0.015   8.911  0.00  0.00    +0.000 HD
ENDBRANCH  19  21
ENDBRANCH   1  18
TORSDOF 6
ENDMDL
MODEL 7
REMARK VINA RESULT:    -5.214      3.951      9.056
REMARK INTER + INTRA:          -8.400
REMARK INTER:                  -7.148
REMARK INTRA:                  -1.253
REMARK UNBOUND:                -1.357
REMARK  Name = 
REMARK  7 active torsions:
REMARK  status: ('A' for Active; 'I' for Inactive)
REMARK    1  A    between atoms: C_1  and  N_2
REMARK    2  A    between atoms: N_2  and  C_3
REMARK    3  A    between atoms: C_3  and  C_4
REMARK    4  A    between atoms: C_7  and  C_8
REMARK    5  A    between atoms: C_8  and  N_9
REMARK    6  A    between atoms: N_9  and  C_10
REMARK    7  A    between atoms: C_17  and  C_19
REMARK                            x       y       z     vdW  Elec       q    Type
REMARK                         _______ _______ _______ _____ _____    ______ ____
ROOT
ATOM      1  C   UNL     1      48.379   3.820  17.569  0.00  0.00    +0.000 C 
ENDROOT
BRANCH   1   2
ATOM      2  C   UNL     1      47.970   4.413  16.248  0.00  0.00    +0.000 A 
ATOM      3  C   UNL     1      48.329   5.726  15.906  0.00  0.00    +0.000 A 
ATOM      4  C   UNL     1      47.957   6.261  14.671  0.00  0.00    +0.000 A 
ATOM      5  C   UNL     1      47.228   5.486  13.755  0.00  0.00    +0.000 A 
ATOM      6  C   UNL     1      46.871   4.179  14.100  0.00  0.00    +0.000 A 
ATOM      7  C   UNL     1      47.234   3.646  15.337  0.00  0.00    +0.000 A 
BRANCH   5   8
ATOM      8  C   UNL     1      46.775   6.071  12.439  0.00  0.00    +0.000 C 
BRANCH   8   9
ATOM      9  N   UNL     1      45.979   5.120  11.664  0.00  0.00    +0.000 NA
ATOM     10  H   UNL     1      45.937   4.239  12.179  0.00  0.00    +0.000 HD
BRANCH   9  11
ATOM     11  C   UNL     1      44.616   5.621  11.426  0.00  0.00    +0.000 C 
ATOM     12  C   UNL     1      43.848   5.753  12.738  0.00  0.00    +0.000 C 
ATOM     13  C   UNL     1      43.098   4.442  12.841  0.00  0.00    +0.000 C 
ATOM     14  N   UNL     1      42.620   4.215  11.471  0.00  0.00    +0.000 NA
ATOM     15  C   UNL     1      43.735   4.645  10.609  0.00  0.00    +0.000 C 
ATOM     16  H   UNL     1      41.823   4.825  11.299  0.00  0.00    +0.000 HD
ENDBRANCH   9  11
ENDBRANCH   8   9
ENDBRANCH   5   8
ENDBRANCH   1   2
BRANCH   1  18
ATOM     17  C   UNL     1      50.128   2.078  17.022  0.00  0.00    +0.000 C 
ATOM     18  N   UNL     1      49.751   3.318  17.692  0.00  0.00    +0.000 N 
ATOM     19  C   UNL     1      50.797   4.065  18.260  0.00  0.00    +0.000 C 
ATOM     20  O   UNL     1      51.965   3.690  18.186  0.00  0.00    +0.000 OA
BRANCH  19  21
ATOM     21  C   UNL     1      50.483   5.301  18.992  0.00  0.00    +0.000 A 
ATOM     22  C   UNL     1      49.931   5.340  20.264  0.00  0.00    +0.000 A 
ATOM     23  S   UNL     1      49.747   6.921  20.879  0.00  0.00    +0.000 S 
ATOM     24  C   UNL     1      50.531   7.592  19.528  0.00  0.00    +0.000 A 
ATOM     25  N   UNL     1      50.803   8.923  19.468  0.00  0.00    +0.000 NA
ATOM     26  C   UNL     1      51.464   9.279  18.417  0.00  0.00    +0.000 A 
ATOM     27  N   UNL     1      51.839   8.434  17.404  0.00  0.00    +0.000 N 
ATOM     28  C   UNL     1      51.464   7.107  17.356  0.00  0.00    +0.000 A 
ATOM     29  O   UNL     1      51.599   6.447  16.331  0.00  0.00    +0.000 OA
ATOM     30  C   UNL     1      50.833   6.638  18.576  0.00  0.00    +0.000 A 
ATOM     31  H   UNL     1      52.296   8.789  16.577  0.00  0.00    +0.000 HD
ENDBRANCH  19  21
ENDBRANCH   1  18
TORSDOF 6
ENDMDL
MODEL 8
REMARK VINA RESULT:    -5.208      2.820      4.080
REMARK INTER + INTRA:          -8.391
REMARK INTER:                  -7.277
REMARK INTRA:                  -1.114
REMARK UNBOUND:                -1.357
REMARK  Name = 
REMARK  7 active torsions:
REMARK  status: ('A' for Active; 'I' for Inactive)
REMARK    1  A    between atoms: C_1  and  N_2
REMARK    2  A    between atoms: N_2  and  C_3
REMARK    3  A    between atoms: C_3  and  C_4
REMARK    4  A    between atoms: C_7  and  C_8
REMARK    5  A    between atoms: C_8  and  N_9
REMARK    6  A    between atoms: N_9  and  C_10
REMARK    7  A    between atoms: C_17  and  C_19
REMARK                            x       y       z     vdW  Elec       q    Type
REMARK                         _______ _______ _______ _____ _____    ______ ____
ROOT
ATOM      1  C   UNL     1      45.565   3.723  12.481  0.00  0.00    +0.000 C 
ENDROOT
BRANCH   1   2
ATOM      2  C   UNL     1      46.490   4.651  13.220  0.00  0.00    +0.000 A 
ATOM      3  C   UNL     1      46.926   5.850  12.634  0.00  0.00    +0.000 A 
ATOM      4  C   UNL     1      47.772   6.712  13.334  0.00  0.00    +0.000 A 
ATOM      5  C   UNL     1      48.189   6.392  14.635  0.00  0.00    +0.000 A 
ATOM      6  C   UNL     1      47.753   5.196  15.216  0.00  0.00    +0.000 A 
ATOM      7  C   UNL     1      46.915   4.329  14.514  0.00  0.00    +0.000 A 
BRANCH   5   8
ATOM      8  C   UNL     1      49.145   7.289  15.382  0.00  0.00    +0.000 C 
BRANCH   8   9
ATOM      9  N   UNL     1      50.534   7.061  14.982  0.00  0.00    +0.000 NA
ATOM     10  H   UNL     1      50.535   6.564  14.090  0.00  0.00    +0.000 HD
BRANCH   9  11
ATOM     11  C   UNL     1      51.272   8.327  14.845  0.00  0.00    +0.000 C 
ATOM     12  C   UNL     1      50.320   9.483  14.552  0.00  0.00    +0.000 C 
ATOM     13  C   UNL     1      50.338   9.580  13.041  0.00  0.00    +0.000 C 
ATOM     14  N   UNL     1      51.755   9.398  12.706  0.00  0.00    +0.000 NA
ATOM     15  C   UNL     1      52.229   8.353  13.629  0.00  0.00    +0.000 C 
ATOM     16  H   UNL     1      52.252  10.263  12.911  0.00  0.00    +0.000 HD
ENDBRANCH   9  11
ENDBRANCH   8   9
ENDBRANCH   5   8
ENDBRANCH   1   2
BRANCH   1  18
ATOM     17  C   UNL     1      43.235   4.442  13.150  0.00  0.00    +0.000 C 
ATOM     18  N   UNL     1      44.241   4.234  12.114  0.00  0.00    +0.000 N 
ATOM     19  C   UNL     1      43.934   4.732  10.836  0.00  0.00    +0.000 C 
ATOM     20  O   UNL     1      42.876   5.315  10.612  0.00  0.00    +0.000 OA
BRANCH  19  21
ATOM     21  C   UNL     1      44.883   4.514   9.733  0.00  0.00    +0.000 A 
ATOM     22  C   UNL     1      45.727   5.487   9.221  0.00  0.00    +0.000 A 
ATOM     23  S   UNL     1      46.762   4.914   7.992  0.00  0.00    +0.000 S 
ATOM     24  C   UNL     1      46.217   3.318   8.207  0.00  0.00    +0.000 A 
ATOM     25  N   UNL     1      46.784   2.287   7.524  0.00  0.00    +0.000 NA
ATOM     26  C   UNL     1      46.317   1.125   7.841  0.00  0.00    +0.000 A 
ATOM     27  N   UNL     1      45.309   0.906   8.744  0.00  0.00    +0.000 N 
ATOM     28  C   UNL     1      44.613   1.928   9.355  0.00  0.00    +0.000 A 
ATOM     29  O   UNL     1      43.567   1.710   9.957  0.00  0.00    +0.000 OA
ATOM     30  C   UNL     1      45.188   3.241   9.126  0.00  0.00    +0.000 A 
ATOM     31  H   UNL     1      44.945  -0.024   8.896  0.00  0.00    +0.000 HD
ENDBRANCH  19  21
ENDBRANCH   1  18
TORSDOF 6
ENDMDL
MODEL 9
REMARK VINA RESULT:    -5.183      2.652      3.479
REMARK INTER + INTRA:          -8.357
REMARK INTER:                  -7.275
REMARK INTRA:                  -1.082
REMARK UNBOUND:                -1.357
REMARK  Name = 
REMARK  7 active torsions:
REMARK  status: ('A' for Active; 'I' for Inactive)
REMARK    1  A    between atoms: C_1  and  N_2
REMARK    2  A    between atoms: N_2  and  C_3
REMARK    3  A    between atoms: C_3  and  C_4
REMARK    4  A    between atoms: C_7  and  C_8
REMARK    5  A    between atoms: C_8  and  N_9
REMARK    6  A    between atoms: N_9  and  C_10
REMARK    7  A    between atoms: C_17  and  C_19
REMARK                            x       y       z     vdW  Elec       q    Type
REMARK                         _______ _______ _______ _____ _____    ______ ____
ROOT
ATOM      1  C   UNL     1      45.619   3.757  12.513  0.00  0.00    +0.000 C 
ENDROOT
BRANCH   1   2
ATOM      2  C   UNL     1      46.513   4.647  13.333  0.00  0.00    +0.000 A 
ATOM      3  C   UNL     1      46.872   4.295  14.644  0.00  0.00    +0.000 A 
ATOM      4  C   UNL     1      47.716   5.119  15.391  0.00  0.00    +0.000 A 
ATOM      5  C   UNL     1      48.220   6.305  14.834  0.00  0.00    +0.000 A 
ATOM      6  C   UNL     1      47.860   6.653  13.528  0.00  0.00    +0.000 A 
ATOM      7  C   UNL     1      47.010   5.834  12.784  0.00  0.00    +0.000 A 
BRANCH   5   8
ATOM      8  C   UNL     1      49.090   7.231  15.649  0.00  0.00    +0.000 C 
BRANCH   8   9
ATOM      9  N   UNL     1      49.211   8.552  15.033  0.00  0.00    +0.000 NA
ATOM     10  H   UNL     1      48.298   8.821  14.665  0.00  0.00    +0.000 HD
BRANCH   9  11
ATOM     11  C   UNL     1      49.674   9.560  15.999  0.00  0.00    +0.000 C 
ATOM     12  C   UNL     1      49.188   9.227  17.407  0.00  0.00    +0.000 C 
ATOM     13  C   UNL     1      47.909  10.028  17.537  0.00  0.00    +0.000 C 
ATOM     14  N   UNL     1      48.251  11.316  16.922  0.00  0.00    +0.000 NA
ATOM     15  C   UNL     1      49.077  10.967  15.753  0.00  0.00    +0.000 C 
ATOM     16  H   UNL     1      48.821  11.848  17.576  0.00  0.00    +0.000 HD
ENDBRANCH   9  11
ENDBRANCH   8   9
ENDBRANCH   5   8
ENDBRANCH   1   2
BRANCH   1  18
ATOM     17  C   UNL     1      43.299   4.479  13.213  0.00  0.00    +0.000 C 
ATOM     18  N   UNL     1      44.290   4.267  12.163  0.00  0.00    +0.000 N 
ATOM     19  C   UNL     1      43.965   4.762  10.888  0.00  0.00    +0.000 C 
ATOM     20  O   UNL     1      42.904   5.345  10.678  0.00  0.00    +0.000 OA
BRANCH  19  21
ATOM     21  C   UNL     1      44.898   4.540   9.773  0.00  0.00    +0.000 A 
ATOM     22  C   UNL     1      45.743   5.509   9.253  0.00  0.00    +0.000 A 
ATOM     23  S   UNL     1      46.758   4.932   8.009  0.00  0.00    +0.000 S 
ATOM     24  C   UNL     1      46.205   3.339   8.226  0.00  0.00    +0.000 A 
ATOM     25  N   UNL     1      46.755   2.307   7.533  0.00  0.00    +0.000 NA
ATOM     26  C   UNL     1      46.284   1.147   7.853  0.00  0.00    +0.000 A 
ATOM     27  N   UNL     1      45.286   0.932   8.768  0.00  0.00    +0.000 N 
ATOM     28  C   UNL     1      44.605   1.957   9.390  0.00  0.00    +0.000 A 
ATOM     29  O   UNL     1      43.565   1.745  10.005  0.00  0.00    +0.000 OA
ATOM     30  C   UNL     1      45.187   3.267   9.158  0.00  0.00    +0.000 A 
ATOM     31  H   UNL     1      44.917   0.005   8.922  0.00  0.00    +0.000 HD
ENDBRANCH  19  21
ENDBRANCH   1  18
TORSDOF 6
ENDMDL
