MODEL 1
REMARK VINA RESULT:    -8.022      0.000      0.000
REMARK INTER + INTRA:         -11.250
REMARK INTER:                 -10.601
REMARK INTRA:                  -0.649
REMARK UNBOUND:                -0.649
REMARK  Name = 
REMARK  6 active torsions:
REMARK  status: ('A' for Active; 'I' for Inactive)
REMARK    1  A    between atoms: N_1  and  C_2
REMARK    2  A    between atoms: C_2  and  C_3
REMARK    3  A    between atoms: C_7  and  C_8
REMARK    4  A    between atoms: C_8  and  O_9
REMARK    5  A    between atoms: O_9  and  C_10
REMARK    6  A    between atoms: C_13  and  C_14
REMARK                            x       y       z     vdW  Elec       q    Type
REMARK                         _______ _______ _______ _____ _____    ______ ____
ROOT
ATOM      1  O   UNL     1      43.628   4.471  10.144  0.00  0.00    +0.000 OA
ENDROOT
BRANCH   1   2
ATOM      2  C   UNL     1      44.514   3.743   9.403  0.00  0.00    +0.000 A 
ATOM      3  C   UNL     1      44.656   2.357   9.434  0.00  0.00    +0.000 A 
ATOM      4  C   UNL     1      45.597   1.728   8.612  0.00  0.00    +0.000 A 
ATOM      5  C   UNL     1      46.392   2.476   7.734  0.00  0.00    +0.000 A 
ATOM      6  C   UNL     1      46.227   3.866   7.683  0.00  0.00    +0.000 A 
ATOM      7  C   UNL     1      45.308   4.491   8.530  0.00  0.00    +0.000 A 
BRANCH   5   8
ATOM      8  C   UNL     1      47.413   1.761   6.923  0.00  0.00    +0.000 C 
ATOM      9  N   UNL     1      48.503   2.458   6.493  0.00  0.00    +0.000 N 
ATOM     10  O   UNL     1      47.278   0.571   6.630  0.00  0.00    +0.000 OA
ATOM     11  H   UNL     1      48.680   3.432   6.693  0.00  0.00    +0.000 HD
ATOM     12  H   UNL     1      49.192   1.944   5.956  0.00  0.00    +0.000 HD
ENDBRANCH   5   8
ENDBRANCH   1   2
BRANCH   1  13
ATOM     13  C   UNL     1      43.386   4.031  11.482  0.00  0.00    +0.000 C 
BRANCH  13  18
ATOM     14  C   UNL     1      45.300   7.190  12.733  0.00  0.00    +0.000 C 
ATOM     15  C   UNL     1      46.634   6.492  13.045  0.00  0.00    +0.000 C 
ATOM     16  C   UNL     1      46.413   5.115  13.666  0.00  0.00    +0.000 C 
ATOM     17  C   UNL     1      45.548   4.234  12.768  0.00  0.00    +0.000 C 
ATOM     18  C   UNL     1      44.210   4.904  12.438  0.00  0.00    +0.000 C 
ATOM     19  C   UNL     1      44.423   6.303  11.838  0.00  0.00    +0.000 C 
BRANCH  14  20
ATOM     20  C   UNL     1      45.491   8.591  12.120  0.00  0.00    +0.000 C 
BRANCH  20  21
ATOM     21  N   UNL     1      44.678   9.621  12.757  0.00  0.00    +0.000 NA
ATOM     22  H   UNL     1      44.940   9.699  13.739  0.00  0.00    +0.000 HD
ATOM     23  H   UNL     1      43.697   9.349  12.751  0.00  0.00    +0.000 HD
ENDBRANCH  20  21
ENDBRANCH  14  20
ENDBRANCH  13  18
ENDBRANCH   1  13
TORSDOF 6
ENDMDL
MODEL 2
REMARK VINA RESULT:    -7.980      1.952      2.516
REMARK INTER + INTRA:         -11.195
REMARK INTER:                 -10.671
REMARK INTRA:                  -0.525
REMARK UNBOUND:                -0.649
REMARK  Name = 
REMARK  6 active torsions:
REMARK  status: ('A' for Active; 'I' for Inactive)
REMARK    1  A    between atoms: N_1  and  C_2
REMARK    2  A    between atoms: C_2  and  C_3
REMARK    3  A    between atoms: C_7  and  C_8
REMARK    4  A    between atoms: C_8  and  O_9
REMARK    5  A    between atoms: O_9  and  C_10
REMARK    6  A    between atoms: C_13  and  C_14
REMARK                            x       y       z     vdW  Elec       q    Type
REMARK                         _______ _______ _______ _____ _____    ______ ____
ROOT
ATOM      1  O   UNL     1      43.684   4.771   9.909  0.00  0.00    +0.000 OA
ENDROOT
BRANCH   1   2
ATOM      2  C   UNL     1      44.526   3.899   9.281  0.00  0.00    +0.000 A 
ATOM      3  C   UNL     1      44.531   2.514   9.440  0.00  0.00    +0.000 A 
ATOM      4  C   UNL     1      45.443   1.729   8.727  0.00  0.00    +0.000 A 
ATOM      5  C   UNL     1      46.345   2.316   7.831  0.00  0.00    +0.000 A 
ATOM      6  C   UNL     1      46.319   3.704   7.651  0.00  0.00    +0.000 A 
ATOM      7  C   UNL     1      45.428   4.487   8.390  0.00  0.00    +0.000 A 
BRANCH   5   8
ATOM      8  C   UNL     1      47.326   1.438   7.141  0.00  0.00    +0.000 C 
ATOM      9  N   UNL     1      48.377   2.021   6.497  0.00  0.00    +0.000 N 
ATOM     10  O   UNL     1      47.194   0.212   7.133  0.00  0.00    +0.000 OA
ATOM     11  H   UNL     1      48.550   3.016   6.460  0.00  0.00    +0.000 HD
ATOM     12  H   UNL     1      49.041   1.401   6.049  0.00  0.00    +0.000 HD
ENDBRANCH   5   8
ENDBRANCH   1   2
BRANCH   1  13
ATOM     13  C   UNL     1      43.753   4.828  11.335  0.00  0.00    +0.000 C 
BRANCH  13  18
ATOM     14  C   UNL     1      46.874   4.778  13.671  0.00  0.00    +0.000 C 
ATOM     15  C   UNL     1      47.292   6.242  13.461  0.00  0.00    +0.000 C 
ATOM     16  C   UNL     1      47.106   6.673  12.007  0.00  0.00    +0.000 C 
ATOM     17  C   UNL     1      45.668   6.457  11.544  0.00  0.00    +0.000 C 
ATOM     18  C   UNL     1      45.221   5.006  11.744  0.00  0.00    +0.000 C 
ATOM     19  C   UNL     1      45.430   4.555  13.198  0.00  0.00    +0.000 C 
BRANCH  14  20
ATOM     20  C   UNL     1      47.066   4.309  15.127  0.00  0.00    +0.000 C 
BRANCH  20  21
ATOM     21  N   UNL     1      47.772   3.037  15.240  0.00  0.00    +0.000 NA
ATOM     22  H   UNL     1      48.720   3.205  15.577  0.00  0.00    +0.000 HD
ATOM     23  H   UNL     1      47.876   2.609  14.322  0.00  0.00    +0.000 HD
ENDBRANCH  20  21
ENDBRANCH  14  20
ENDBRANCH  13  18
ENDBRANCH   1  13
TORSDOF 6
ENDMDL
MODEL 3
REMARK VINA RESULT:    -6.268      2.272      6.532
REMARK INTER + INTRA:          -8.933
REMARK INTER:                  -8.351
REMARK INTRA:                  -0.582
REMARK UNBOUND:                -0.649
REMARK  Name = 
REMARK  6 active torsions:
REMARK  status: ('A' for Active; 'I' for Inactive)
REMARK    1  A    between atoms: N_1  and  C_2
REMARK    2  A    between atoms: C_2  and  C_3
REMARK    3  A    between atoms: C_7  and  C_8
REMARK    4  A    between atoms: C_8  and  O_9
REMARK    5  A    between atoms: O_9  and  C_10
REMARK    6  A    between atoms: C_13  and  C_14
REMARK                            x       y       z     vdW  Elec       q    Type
REMARK                         _______ _______ _______ _____ _____    ______ ____
ROOT
ATOM      1  O   UNL     1      43.907   4.302  10.056  0.00  0.00    +0.000 OA
ENDROOT
BRANCH   1   2
ATOM      2  C   UNL     1      44.786   4.553  11.071  0.00  0.00    +0.000 A 
ATOM      3  C   UNL     1      45.079   3.691  12.126  0.00  0.00    +0.000 A 
ATOM      4  C   UNL     1      46.012   4.063  13.099  0.00  0.00    +0.000 A 
ATOM      5  C   UNL     1      46.679   5.293  13.017  0.00  0.00    +0.000 A 
ATOM      6  C   UNL     1      46.405   6.145  11.940  0.00  0.00    +0.000 A 
ATOM      7  C   UNL     1      45.448   5.781  10.988  0.00  0.00    +0.000 A 
BRANCH   5   8
ATOM      8  C   UNL     1      47.620   5.659  14.107  0.00  0.00    +0.000 C 
ATOM      9  N   UNL     1      47.375   5.182  15.362  0.00  0.00    +0.000 N 
ATOM     10  O   UNL     1      48.593   6.386  13.896  0.00  0.00    +0.000 OA
ATOM     11  H   UNL     1      46.600   4.584  15.609  0.00  0.00    +0.000 HD
ATOM     12  H   UNL     1      48.040   5.432  16.084  0.00  0.00    +0.000 HD
ENDBRANCH   5   8
ENDBRANCH   1   2
BRANCH   1  13
ATOM     13  C   UNL     1      44.428   4.324   8.726  0.00  0.00    +0.000 C 
BRANCH  13  18
ATOM     14  C   UNL     1      47.540   2.500   7.246  0.00  0.00    +0.000 C 
ATOM     15  C   UNL     1      46.907   1.103   7.136  0.00  0.00    +0.000 C 
ATOM     16  C   UNL     1      46.015   0.798   8.338  0.00  0.00    +0.000 C 
ATOM     17  C   UNL     1      44.934   1.861   8.510  0.00  0.00    +0.000 C 
ATOM     18  C   UNL     1      45.534   3.266   8.621  0.00  0.00    +0.000 C 
ATOM     19  C   UNL     1      46.456   3.571   7.429  0.00  0.00    +0.000 C 
BRANCH  14  20
ATOM     20  C   UNL     1      48.460   2.830   6.055  0.00  0.00    +0.000 C 
BRANCH  20  21
ATOM     21  N   UNL     1      48.203   2.008   4.876  0.00  0.00    +0.000 NA
ATOM     22  H   UNL     1      49.089   1.764   4.435  0.00  0.00    +0.000 HD
ATOM     23  H   UNL     1      47.684   2.542   4.182  0.00  0.00    +0.000 HD
ENDBRANCH  20  21
ENDBRANCH  14  20
ENDBRANCH  13  18
ENDBRANCH   1  13
TORSDOF 6
ENDMDL
MODEL 4
REMARK VINA RESULT:    -6.171      1.953      2.659
REMARK INTER + INTRA:          -8.805
REMARK INTER:                  -8.389
REMARK INTRA:                  -0.415
REMARK UNBOUND:                -0.649
REMARK  Name = 
REMARK  6 active torsions:
REMARK  status: ('A' for Active; 'I' for Inactive)
REMARK    1  A    between atoms: N_1  and  C_2
REMARK    2  A    between atoms: C_2  and  C_3
REMARK    3  A    between atoms: C_7  and  C_8
REMARK    4  A    between atoms: C_8  and  O_9
REMARK    5  A    between atoms: O_9  and  C_10
REMARK    6  A    between atoms: C_13  and  C_14
REMARK                            x       y       z     vdW  Elec       q    Type
REMARK                         _______ _______ _______ _____ _____    ______ ____
ROOT
ATOM      1  O   UNL     1      44.234   5.101  10.878  0.00  0.00    +0.000 OA
ENDROOT
BRANCH   1   2
ATOM      2  C   UNL     1      44.805   4.222  10.003  0.00  0.00    +0.000 A 
ATOM      3  C   UNL     1      44.670   2.835  10.036  0.00  0.00    +0.000 A 
ATOM      4  C   UNL     1      45.299   2.044   9.070  0.00  0.00    +0.000 A 
ATOM      5  C   UNL     1      46.053   2.632   8.046  0.00  0.00    +0.000 A 
ATOM      6  C   UNL     1      46.163   4.026   7.996  0.00  0.00    +0.000 A 
ATOM      7  C   UNL     1      45.558   4.810   8.983  0.00  0.00    +0.000 A 
BRANCH   5   8
ATOM      8  C   UNL     1      46.743   1.739   7.077  0.00  0.00    +0.000 C 
ATOM      9  N   UNL     1      47.116   0.496   7.495  0.00  0.00    +0.000 N 
ATOM     10  O   UNL     1      46.989   2.110   5.928  0.00  0.00    +0.000 OA
ATOM     11  H   UNL     1      46.949   0.124   8.419  0.00  0.00    +0.000 HD
ATOM     12  H   UNL     1      47.570  -0.100   6.812  0.00  0.00    +0.000 HD
ENDBRANCH   5   8
ENDBRANCH   1   2
BRANCH   1  13
ATOM     13  C   UNL     1      44.998   5.454  12.033  0.00  0.00    +0.000 C 
BRANCH  13  18
ATOM     14  C   UNL     1      48.107   7.803  11.898  0.00  0.00    +0.000 C 
ATOM     15  C   UNL     1      47.458   9.016  12.585  0.00  0.00    +0.000 C 
ATOM     16  C   UNL     1      46.010   9.204  12.135  0.00  0.00    +0.000 C 
ATOM     17  C   UNL     1      45.184   7.945  12.384  0.00  0.00    +0.000 C 
ATOM     18  C   UNL     1      45.808   6.717  11.714  0.00  0.00    +0.000 C 
ATOM     19  C   UNL     1      47.273   6.536  12.139  0.00  0.00    +0.000 C 
BRANCH  14  20
ATOM     20  C   UNL     1      49.575   7.597  12.320  0.00  0.00    +0.000 C 
BRANCH  20  21
ATOM     21  N   UNL     1      49.722   6.870  13.577  0.00  0.00    +0.000 NA
ATOM     22  H   UNL     1      50.697   6.902  13.874  0.00  0.00    +0.000 HD
ATOM     23  H   UNL     1      49.505   5.885  13.440  0.00  0.00    +0.000 HD
ENDBRANCH  20  21
ENDBRANCH  14  20
ENDBRANCH  13  18
ENDBRANCH   1  13
TORSDOF 6
ENDMDL
MODEL 5
REMARK VINA RESULT:    -5.720      4.877      8.204
REMARK INTER + INTRA:          -8.209
REMARK INTER:                  -7.818
REMARK INTRA:                  -0.391
REMARK UNBOUND:                -0.649
REMARK  Name = 
REMARK  6 active torsions:
REMARK  status: ('A' for Active; 'I' for Inactive)
REMARK    1  A    between atoms: N_1  and  C_2
REMARK    2  A    between atoms: C_2  and  C_3
REMARK    3  A    between atoms: C_7  and  C_8
REMARK    4  A    between atoms: C_8  and  O_9
REMARK    5  A    between atoms: O_9  and  C_10
REMARK    6  A    between atoms: C_13  and  C_14
REMARK                            x       y       z     vdW  Elec       q    Type
REMARK                         _______ _______ _______ _____ _____    ______ ____
ROOT
ATOM      1  O   UNL     1      47.132   3.587  14.480  0.00  0.00    +0.000 OA
ENDROOT
BRANCH   1   2
ATOM      2  C   UNL     1      47.565   3.802  15.758  0.00  0.00    +0.000 A 
ATOM      3  C   UNL     1      47.737   2.824  16.735  0.00  0.00    +0.000 A 
ATOM      4  C   UNL     1      48.199   3.176  18.007  0.00  0.00    +0.000 A 
ATOM      5  C   UNL     1      48.517   4.506  18.310  0.00  0.00    +0.000 A 
ATOM      6  C   UNL     1      48.372   5.483  17.317  0.00  0.00    +0.000 A 
ATOM      7  C   UNL     1      47.879   5.130  16.058  0.00  0.00    +0.000 A 
BRANCH   5   8
ATOM      8  C   UNL     1      48.953   4.830  19.694  0.00  0.00    +0.000 C 
ATOM      9  N   UNL     1      48.595   3.983  20.701  0.00  0.00    +0.000 N 
ATOM     10  O   UNL     1      49.611   5.844  19.937  0.00  0.00    +0.000 OA
ATOM     11  H   UNL     1      48.058   3.136  20.578  0.00  0.00    +0.000 HD
ATOM     12  H   UNL     1      48.919   4.216  21.632  0.00  0.00    +0.000 HD
ENDBRANCH   5   8
ENDBRANCH   1   2
BRANCH   1  13
ATOM     13  C   UNL     1      46.639   4.720  13.763  0.00  0.00    +0.000 C 
BRANCH  13  18
ATOM     14  C   UNL     1      44.201   3.576  10.943  0.00  0.00    +0.000 C 
ATOM     15  C   UNL     1      43.224   4.759  11.046  0.00  0.00    +0.000 C 
ATOM     16  C   UNL     1      42.991   5.167  12.499  0.00  0.00    +0.000 C 
ATOM     17  C   UNL     1      44.306   5.499  13.199  0.00  0.00    +0.000 C 
ATOM     18  C   UNL     1      45.303   4.339  13.112  0.00  0.00    +0.000 C 
ATOM     19  C   UNL     1      45.521   3.903  11.655  0.00  0.00    +0.000 C 
BRANCH  14  20
ATOM     20  C   UNL     1      44.443   3.130   9.488  0.00  0.00    +0.000 C 
BRANCH  20  21
ATOM     21  N   UNL     1      44.199   4.185   8.509  0.00  0.00    +0.000 NA
ATOM     22  H   UNL     1      44.738   3.993   7.664  0.00  0.00    +0.000 HD
ATOM     23  H   UNL     1      44.541   5.077   8.860  0.00  0.00    +0.000 HD
ENDBRANCH  20  21
ENDBRANCH  14  20
ENDBRANCH  13  18
ENDBRANCH   1  13
TORSDOF 6
ENDMDL
MODEL 6
REMARK VINA RESULT:    -5.676      4.101      6.606
REMARK INTER + INTRA:          -8.150
REMARK INTER:                  -7.712
REMARK INTRA:                  -0.438
REMARK UNBOUND:                -0.649
REMARK  Name = 
REMARK  6 active torsions:
REMARK  status: ('A' for Active; 'I' for Inactive)
REMARK    1  A    between atoms: N_1  and  C_2
REMARK    2  A    between atoms: C_2  and  C_3
REMARK    3  A    between atoms: C_7  and  C_8
REMARK    4  A    between atoms: C_8  and  O_9
REMARK    5  A    between atoms: O_9  and  C_10
REMARK    6  A    between atoms: C_13  and  C_14
REMARK                            x       y       z     vdW  Elec       q    Type
REMARK                         _______ _______ _______ _____ _____    ______ ____
ROOT
ATOM      1  O   UNL     1      48.286   5.813  14.014  0.00  0.00    +0.000 OA
ENDROOT
BRANCH   1   2
ATOM      2  C   UNL     1      47.124   5.839  13.296  0.00  0.00    +0.000 A 
ATOM      3  C   UNL     1      46.768   6.806  12.358  0.00  0.00    +0.000 A 
ATOM      4  C   UNL     1      45.549   6.711  11.680  0.00  0.00    +0.000 A 
ATOM      5  C   UNL     1      44.681   5.636  11.916  0.00  0.00    +0.000 A 
ATOM      6  C   UNL     1      45.054   4.651  12.838  0.00  0.00    +0.000 A 
ATOM      7  C   UNL     1      46.259   4.768  13.536  0.00  0.00    +0.000 A 
BRANCH   5   8
ATOM      8  C   UNL     1      43.375   5.615  11.206  0.00  0.00    +0.000 C 
ATOM      9  N   UNL     1      42.365   6.398  11.683  0.00  0.00    +0.000 N 
ATOM     10  O   UNL     1      43.195   4.901  10.218  0.00  0.00    +0.000 OA
ATOM     11  H   UNL     1      42.439   7.008  12.486  0.00  0.00    +0.000 HD
ATOM     12  H   UNL     1      41.491   6.379  11.172  0.00  0.00    +0.000 HD
ENDBRANCH   5   8
ENDBRANCH   1   2
BRANCH   1  13
ATOM     13  C   UNL     1      48.511   6.892  14.924  0.00  0.00    +0.000 C 
BRANCH  13  18
ATOM     14  C   UNL     1      48.721   4.355  17.878  0.00  0.00    +0.000 C 
ATOM     15  C   UNL     1      48.423   5.355  19.008  0.00  0.00    +0.000 C 
ATOM     16  C   UNL     1      49.106   6.698  18.759  0.00  0.00    +0.000 C 
ATOM     17  C   UNL     1      48.703   7.284  17.409  0.00  0.00    +0.000 C 
ATOM     18  C   UNL     1      48.985   6.309  16.261  0.00  0.00    +0.000 C 
ATOM     19  C   UNL     1      48.325   4.945  16.517  0.00  0.00    +0.000 C 
BRANCH  14  20
ATOM     20  C   UNL     1      48.058   2.983  18.109  0.00  0.00    +0.000 C 
BRANCH  20  21
ATOM     21  N   UNL     1      46.664   2.932  17.681  0.00  0.00    +0.000 NA
ATOM     22  H   UNL     1      46.295   3.880  17.615  0.00  0.00    +0.000 HD
ATOM     23  H   UNL     1      46.098   2.461  18.384  0.00  0.00    +0.000 HD
ENDBRANCH  20  21
ENDBRANCH  14  20
ENDBRANCH  13  18
ENDBRANCH   1  13
TORSDOF 6
ENDMDL
MODEL 7
REMARK VINA RESULT:    -5.499      3.801      5.582
REMARK INTER + INTRA:          -7.916
REMARK INTER:                  -7.412
REMARK INTRA:                  -0.503
REMARK UNBOUND:                -0.649
REMARK  Name = 
REMARK  6 active torsions:
REMARK  status: ('A' for Active; 'I' for Inactive)
REMARK    1  A    between atoms: N_1  and  C_2
REMARK    2  A    between atoms: C_2  and  C_3
REMARK    3  A    between atoms: C_7  and  C_8
REMARK    4  A    between atoms: C_8  and  O_9
REMARK    5  A    between atoms: O_9  and  C_10
REMARK    6  A    between atoms: C_13  and  C_14
REMARK                            x       y       z     vdW  Elec       q    Type
REMARK                         _______ _______ _______ _____ _____    ______ ____
ROOT
ATOM      1  O   UNL     1      47.191   7.079  13.719  0.00  0.00    +0.000 OA
ENDROOT
BRANCH   1   2
ATOM      2  C   UNL     1      46.444   6.275  12.905  0.00  0.00    +0.000 A 
ATOM      3  C   UNL     1      45.619   5.233  13.324  0.00  0.00    +0.000 A 
ATOM      4  C   UNL     1      44.895   4.490  12.386  0.00  0.00    +0.000 A 
ATOM      5  C   UNL     1      44.971   4.795  11.021  0.00  0.00    +0.000 A 
ATOM      6  C   UNL     1      45.777   5.861  10.605  0.00  0.00    +0.000 A 
ATOM      7  C   UNL     1      46.523   6.579  11.543  0.00  0.00    +0.000 A 
BRANCH   5   8
ATOM      8  C   UNL     1      44.221   3.938  10.065  0.00  0.00    +0.000 C 
ATOM      9  N   UNL     1      44.129   4.344   8.766  0.00  0.00    +0.000 N 
ATOM     10  O   UNL     1      43.680   2.892  10.430  0.00  0.00    +0.000 OA
ATOM     11  H   UNL     1      44.544   5.186   8.395  0.00  0.00    +0.000 HD
ATOM     12  H   UNL     1      43.627   3.734   8.130  0.00  0.00    +0.000 HD
ENDBRANCH   5   8
ENDBRANCH   1   2
BRANCH   1  13
ATOM     13  C   UNL     1      48.599   6.838  13.753  0.00  0.00    +0.000 C 
BRANCH  13  18
ATOM     14  C   UNL     1      48.712   5.969  17.553  0.00  0.00    +0.000 C 
ATOM     15  C   UNL     1      48.525   7.401  18.081  0.00  0.00    +0.000 C 
ATOM     16  C   UNL     1      49.297   8.413  17.237  0.00  0.00    +0.000 C 
ATOM     17  C   UNL     1      48.897   8.330  15.766  0.00  0.00    +0.000 C 
ATOM     18  C   UNL     1      49.070   6.912  15.212  0.00  0.00    +0.000 C 
ATOM     19  C   UNL     1      48.318   5.884  16.071  0.00  0.00    +0.000 C 
BRANCH  14  20
ATOM     20  C   UNL     1      47.956   4.923  18.395  0.00  0.00    +0.000 C 
BRANCH  20  21
ATOM     21  N   UNL     1      46.543   5.238  18.584  0.00  0.00    +0.000 NA
ATOM     22  H   UNL     1      46.044   4.396  18.867  0.00  0.00    +0.000 HD
ATOM     23  H   UNL     1      46.127   5.526  17.701  0.00  0.00    +0.000 HD
ENDBRANCH  20  21
ENDBRANCH  14  20
ENDBRANCH  13  18
ENDBRANCH   1  13
TORSDOF 6
ENDMDL
MODEL 8
REMARK VINA RESULT:    -5.429      5.365      7.925
REMARK INTER + INTRA:          -7.824
REMARK INTER:                  -7.389
REMARK INTRA:                  -0.434
REMARK UNBOUND:                -0.649
REMARK  Name = 
REMARK  6 active torsions:
REMARK  status: ('A' for Active; 'I' for Inactive)
REMARK    1  A    between atoms: N_1  and  C_2
REMARK    2  A    between atoms: C_2  and  C_3
REMARK    3  A    between atoms: C_7  and  C_8
REMARK    4  A    between atoms: C_8  and  O_9
REMARK    5  A    between atoms: O_9  and  C_10
REMARK    6  A    between atoms: C_13  and  C_14
REMARK                            x       y       z     vdW  Elec       q    Type
REMARK                         _______ _______ _______ _____ _____    ______ ____
ROOT
ATOM      1  O   UNL     1      46.778   3.924  15.644  0.00  0.00    +0.000 OA
ENDROOT
BRANCH   1   2
ATOM      2  C   UNL     1      47.947   4.011  16.345  0.00  0.00    +0.000 A 
ATOM      3  C   UNL     1      48.604   5.191  16.690  0.00  0.00    +0.000 A 
ATOM      4  C   UNL     1      49.794   5.144  17.423  0.00  0.00    +0.000 A 
ATOM      5  C   UNL     1      50.329   3.918  17.840  0.00  0.00    +0.000 A 
ATOM      6  C   UNL     1      49.652   2.736  17.519  0.00  0.00    +0.000 A 
ATOM      7  C   UNL     1      48.481   2.787  16.758  0.00  0.00    +0.000 A 
BRANCH   5   8
ATOM      8  C   UNL     1      51.624   3.926  18.571  0.00  0.00    +0.000 C 
ATOM      9  N   UNL     1      52.379   2.791  18.562  0.00  0.00    +0.000 N 
ATOM     10  O   UNL     1      52.006   4.924  19.185  0.00  0.00    +0.000 OA
ATOM     11  H   UNL     1      52.131   1.937  18.083  0.00  0.00    +0.000 HD
ATOM     12  H   UNL     1      53.265   2.826  19.053  0.00  0.00    +0.000 HD
ENDBRANCH   5   8
ENDBRANCH   1   2
BRANCH   1  13
ATOM     13  C   UNL     1      46.878   3.888  14.219  0.00  0.00    +0.000 C 
BRANCH  13  18
ATOM     14  C   UNL     1      44.350   6.066  12.202  0.00  0.00    +0.000 C 
ATOM     15  C   UNL     1      45.386   6.829  11.360  0.00  0.00    +0.000 C 
ATOM     16  C   UNL     1      46.620   7.190  12.186  0.00  0.00    +0.000 C 
ATOM     17  C   UNL     1      47.251   5.949  12.812  0.00  0.00    +0.000 C 
ATOM     18  C   UNL     1      46.241   5.165  13.655  0.00  0.00    +0.000 C 
ATOM     19  C   UNL     1      44.984   4.822  12.841  0.00  0.00    +0.000 C 
BRANCH  14  20
ATOM     20  C   UNL     1      43.086   5.702  11.400  0.00  0.00    +0.000 C 
BRANCH  20  21
ATOM     21  N   UNL     1      41.898   6.440  11.819  0.00  0.00    +0.000 NA
ATOM     22  H   UNL     1      41.148   6.284  11.146  0.00  0.00    +0.000 HD
ATOM     23  H   UNL     1      42.083   7.441  11.803  0.00  0.00    +0.000 HD
ENDBRANCH  20  21
ENDBRANCH  14  20
ENDBRANCH  13  18
ENDBRANCH   1  13
TORSDOF 6
ENDMDL
MODEL 9
REMARK VINA RESULT:    -5.205      4.450      6.922
REMARK INTER + INTRA:          -7.528
REMARK INTER:                  -7.243
REMARK INTRA:                  -0.285
REMARK UNBOUND:                -0.649
REMARK  Name = 
REMARK  6 active torsions:
REMARK  status: ('A' for Active; 'I' for Inactive)
REMARK    1  A    between atoms: N_1  and  C_2
REMARK    2  A    between atoms: C_2  and  C_3
REMARK    3  A    between atoms: C_7  and  C_8
REMARK    4  A    between atoms: C_8  and  O_9
REMARK    5  A    between atoms: O_9  and  C_10
REMARK    6  A    between atoms: C_13  and  C_14
REMARK                            x       y       z     vdW  Elec       q    Type
REMARK                         _______ _______ _______ _____ _____    ______ ____
ROOT
ATOM      1  O   UNL     1      48.057   5.446  14.192  0.00  0.00    +0.000 OA
ENDROOT
BRANCH   1   2
ATOM      2  C   UNL     1      46.868   5.518  13.524  0.00  0.00    +0.000 A 
ATOM      3  C   UNL     1      46.049   4.439  13.198  0.00  0.00    +0.000 A 
ATOM      4  C   UNL     1      44.845   4.650  12.519  0.00  0.00    +0.000 A 
ATOM      5  C   UNL     1      44.435   5.945  12.178  0.00  0.00    +0.000 A 
ATOM      6  C   UNL     1      45.244   7.031  12.532  0.00  0.00    +0.000 A 
ATOM      7  C   UNL     1      46.462   6.811  13.182  0.00  0.00    +0.000 A 
BRANCH   5   8
ATOM      8  C   UNL     1      43.172   6.106  11.409  0.00  0.00    +0.000 C 
ATOM      9  N   UNL     1      42.769   7.367  11.081  0.00  0.00    +0.000 N 
ATOM     10  O   UNL     1      42.492   5.130  11.086  0.00  0.00    +0.000 OA
ATOM     11  H   UNL     1      43.273   8.211  11.312  0.00  0.00    +0.000 HD
ATOM     12  H   UNL     1      41.914   7.449  10.543  0.00  0.00    +0.000 HD
ENDBRANCH   5   8
ENDBRANCH   1   2
BRANCH   1  13
ATOM     13  C   UNL     1      48.209   6.284  15.339  0.00  0.00    +0.000 C 
BRANCH  13  18
ATOM     14  C   UNL     1      49.999   4.305  18.182  0.00  0.00    +0.000 C 
ATOM     15  C   UNL     1      49.343   2.942  17.907  0.00  0.00    +0.000 C 
ATOM     16  C   UNL     1      47.869   3.097  17.536  0.00  0.00    +0.000 C 
ATOM     17  C   UNL     1      47.693   4.025  16.337  0.00  0.00    +0.000 C 
ATOM     18  C   UNL     1      48.340   5.392  16.580  0.00  0.00    +0.000 C 
ATOM     19  C   UNL     1      49.816   5.245  16.981  0.00  0.00    +0.000 C 
BRANCH  14  20
ATOM     20  C   UNL     1      51.484   4.180  18.574  0.00  0.00    +0.000 C 
BRANCH  20  21
ATOM     21  N   UNL     1      52.007   2.823  18.450  0.00  0.00    +0.000 NA
ATOM     22  H   UNL     1      52.969   2.799  18.785  0.00  0.00    +0.000 HD
ATOM     23  H   UNL     1      52.046   2.550  17.470  0.00  0.00    +0.000 HD
ENDBRANCH  20  21
ENDBRANCH  14  20
ENDBRANCH  13  18
ENDBRANCH   1  13
TORSDOF 6
ENDMDL
