MODEL 1
REMARK VINA RESULT:    -7.796      0.000      0.000
REMARK INTER + INTRA:         -11.172
REMARK INTER:                 -10.758
REMARK INTRA:                  -0.414
REMARK UNBOUND:                -0.414
REMARK  Name = 
REMARK  7 active torsions:
REMARK  status: ('A' for Active; 'I' for Inactive)
REMARK    1  A    between atoms: N_1  and  C_2
REMARK    2  A    between atoms: C_2  and  C_3
REMARK    3  A    between atoms: C_3  and  C_4
REMARK    4  A    between atoms: C_4  and  C_5
REMARK    5  A    between atoms: C_6  and  C_7
REMARK    6  A    between atoms: C_10  and  C_11
REMARK    7  A    between atoms: C_11  and  N_12
REMARK                            x       y       z     vdW  Elec       q    Type
REMARK                         _______ _______ _______ _____ _____    ______ ____
ROOT
ATOM      1  C   UNL     1      46.335   4.799  13.260  0.00  0.00    +0.000 A 
ATOM      2  C   UNL     1      46.324   5.776  12.271  0.00  0.00    +0.000 A 
ATOM      3  C   UNL     1      45.628   5.528  11.087  0.00  0.00    +0.000 A 
ATOM      4  C   UNL     1      44.952   4.318  10.922  0.00  0.00    +0.000 A 
ATOM      5  C   UNL     1      45.043   3.394  11.954  0.00  0.00    +0.000 A 
ATOM      6  N   UNL     1      45.712   3.607  13.106  0.00  0.00    +0.000 NA
ENDROOT
BRANCH   1   8
ATOM      7  C   UNL     1      47.137   4.096  15.496  0.00  0.00    +0.000 C 
ATOM      8  C   UNL     1      47.007   5.040  14.546  0.00  0.00    +0.000 C 
BRANCH   7   9
ATOM      9  C   UNL     1      47.776   4.310  16.833  0.00  0.00    +0.000 C 
BRANCH   9  10
ATOM     10  C   UNL     1      48.099   2.977  17.510  0.00  0.00    +0.000 C 
BRANCH  10  11
ATOM     11  C   UNL     1      49.579   2.634  17.356  0.00  0.00    +0.000 C 
BRANCH  11  12
ATOM     12  N   UNL     1      49.780   1.761  16.206  0.00  0.00    +0.000 NA
ATOM     13  H   UNL     1      50.766   1.510  16.137  0.00  0.00    +0.000 HD
ATOM     14  H   UNL     1      49.549   2.260  15.349  0.00  0.00    +0.000 HD
ENDBRANCH  11  12
ENDBRANCH  10  11
ENDBRANCH   9  10
ENDBRANCH   7   9
ENDBRANCH   1   8
BRANCH   4  15
ATOM     15  C   UNL     1      44.138   4.015   9.696  0.00  0.00    +0.000 C 
BRANCH  15  16
ATOM     16  N   UNL     1      44.866   4.409   8.498  0.00  0.00    +0.000 N 
ATOM     17  C   UNL     1      45.648   3.365   7.966  0.00  0.00    +0.000 A 
ATOM     18  C   UNL     1      46.391   3.612   6.814  0.00  0.00    +0.000 A 
ATOM     19  C   UNL     1      47.169   2.592   6.266  0.00  0.00    +0.000 A 
ATOM     20  C   UNL     1      47.185   1.349   6.882  0.00  0.00    +0.000 A 
ATOM     21  C   UNL     1      46.412   1.179   8.013  0.00  0.00    +0.000 A 
ATOM     22  N   UNL     1      45.647   2.150   8.555  0.00  0.00    +0.000 NA
ATOM     23  H   UNL     1      45.468   5.212   8.659  0.00  0.00    +0.000 HD
ENDBRANCH  15  16
ENDBRANCH   4  15
TORSDOF 7
ENDMDL
MODEL 2
REMARK VINA RESULT:    -6.633      2.489      3.019
REMARK INTER + INTRA:          -9.568
REMARK INTER:                  -9.051
REMARK INTRA:                  -0.517
REMARK UNBOUND:                -0.414
REMARK  Name = 
REMARK  7 active torsions:
REMARK  status: ('A' for Active; 'I' for Inactive)
REMARK    1  A    between atoms: N_1  and  C_2
REMARK    2  A    between atoms: C_2  and  C_3
REMARK    3  A    between atoms: C_3  and  C_4
REMARK    4  A    between atoms: C_4  and  C_5
REMARK    5  A    between atoms: C_6  and  C_7
REMARK    6  A    between atoms: C_10  and  C_11
REMARK    7  A    between atoms: C_11  and  N_12
REMARK                            x       y       z     vdW  Elec       q    Type
REMARK                         _______ _______ _______ _____ _____    ______ ____
ROOT
ATOM      1  C   UNL     1      46.365   5.488  12.882  0.00  0.00    +0.000 A 
ATOM      2  C   UNL     1      46.043   4.168  13.176  0.00  0.00    +0.000 A 
ATOM      3  C   UNL     1      45.310   3.431  12.245  0.00  0.00    +0.000 A 
ATOM      4  C   UNL     1      44.925   4.023  11.041  0.00  0.00    +0.000 A 
ATOM      5  C   UNL     1      45.268   5.354  10.849  0.00  0.00    +0.000 A 
ATOM      6  N   UNL     1      45.972   6.090  11.735  0.00  0.00    +0.000 NA
ENDROOT
BRANCH   1   8
ATOM      7  C   UNL     1      48.464   6.617  13.557  0.00  0.00    +0.000 C 
ATOM      8  C   UNL     1      47.184   6.285  13.807  0.00  0.00    +0.000 C 
BRANCH   7   9
ATOM      9  C   UNL     1      49.345   7.391  14.489  0.00  0.00    +0.000 C 
BRANCH   9  10
ATOM     10  C   UNL     1      49.352   6.768  15.885  0.00  0.00    +0.000 C 
BRANCH  10  11
ATOM     11  C   UNL     1      48.941   7.793  16.940  0.00  0.00    +0.000 C 
BRANCH  11  12
ATOM     12  N   UNL     1      47.981   8.737  16.382  0.00  0.00    +0.000 NA
ATOM     13  H   UNL     1      47.852   9.514  17.029  0.00  0.00    +0.000 HD
ATOM     14  H   UNL     1      47.072   8.288  16.286  0.00  0.00    +0.000 HD
ENDBRANCH  11  12
ENDBRANCH  10  11
ENDBRANCH   9  10
ENDBRANCH   7   9
ENDBRANCH   1   8
BRANCH   4  15
ATOM     15  C   UNL     1      44.184   3.266   9.975  0.00  0.00    +0.000 C 
BRANCH  15  16
ATOM     16  N   UNL     1      44.906   2.049   9.627  0.00  0.00    +0.000 N 
ATOM     17  C   UNL     1      45.708   2.200   8.480  0.00  0.00    +0.000 A 
ATOM     18  C   UNL     1      46.455   1.108   8.044  0.00  0.00    +0.000 A 
ATOM     19  C   UNL     1      47.261   1.234   6.913  0.00  0.00    +0.000 A 
ATOM     20  C   UNL     1      47.303   2.449   6.245  0.00  0.00    +0.000 A 
ATOM     21  C   UNL     1      46.544   3.488   6.747  0.00  0.00    +0.000 A 
ATOM     22  N   UNL     1      45.763   3.388   7.843  0.00  0.00    +0.000 NA
ATOM     23  H   UNL     1      44.282   1.260   9.483  0.00  0.00    +0.000 HD
ENDBRANCH  15  16
ENDBRANCH   4  15
TORSDOF 7
ENDMDL
MODEL 3
REMARK VINA RESULT:    -5.906      3.151      3.495
REMARK INTER + INTRA:          -8.564
REMARK INTER:                  -8.102
REMARK INTRA:                  -0.462
REMARK UNBOUND:                -0.414
REMARK  Name = 
REMARK  7 active torsions:
REMARK  status: ('A' for Active; 'I' for Inactive)
REMARK    1  A    between atoms: N_1  and  C_2
REMARK    2  A    between atoms: C_2  and  C_3
REMARK    3  A    between atoms: C_3  and  C_4
REMARK    4  A    between atoms: C_4  and  C_5
REMARK    5  A    between atoms: C_6  and  C_7
REMARK    6  A    between atoms: C_10  and  C_11
REMARK    7  A    between atoms: C_11  and  N_12
REMARK                            x       y       z     vdW  Elec       q    Type
REMARK                         _______ _______ _______ _____ _____    ______ ____
ROOT
ATOM      1  C   UNL     1      45.763   6.656  12.276  0.00  0.00    +0.000 A 
ATOM      2  C   UNL     1      46.408   6.555  11.049  0.00  0.00    +0.000 A 
ATOM      3  C   UNL     1      45.907   5.668  10.095  0.00  0.00    +0.000 A 
ATOM      4  C   UNL     1      44.769   4.912  10.384  0.00  0.00    +0.000 A 
ATOM      5  C   UNL     1      44.210   5.062  11.646  0.00  0.00    +0.000 A 
ATOM      6  N   UNL     1      44.678   5.908  12.586  0.00  0.00    +0.000 NA
ENDROOT
BRANCH   1   8
ATOM      7  C   UNL     1      47.512   7.748  13.650  0.00  0.00    +0.000 C 
ATOM      8  C   UNL     1      46.222   7.618  13.289  0.00  0.00    +0.000 C 
BRANCH   7   9
ATOM      9  C   UNL     1      48.015   8.685  14.704  0.00  0.00    +0.000 C 
BRANCH   9  10
ATOM     10  C   UNL     1      49.358   9.297  14.303  0.00  0.00    +0.000 C 
BRANCH  10  11
ATOM     11  C   UNL     1      49.988   8.517  13.150  0.00  0.00    +0.000 C 
BRANCH  11  12
ATOM     12  N   UNL     1      51.182   7.816  13.606  0.00  0.00    +0.000 NA
ATOM     13  H   UNL     1      50.910   6.984  14.129  0.00  0.00    +0.000 HD
ATOM     14  H   UNL     1      51.702   8.406  14.254  0.00  0.00    +0.000 HD
ENDBRANCH  11  12
ENDBRANCH  10  11
ENDBRANCH   9  10
ENDBRANCH   7   9
ENDBRANCH   1   8
BRANCH   4  15
ATOM     15  C   UNL     1      44.147   3.984   9.380  0.00  0.00    +0.000 C 
BRANCH  15  16
ATOM     16  N   UNL     1      44.862   2.715   9.356  0.00  0.00    +0.000 N 
ATOM     17  C   UNL     1      45.696   2.580   8.229  0.00  0.00    +0.000 A 
ATOM     18  C   UNL     1      46.440   1.410   8.090  0.00  0.00    +0.000 A 
ATOM     19  C   UNL     1      47.277   1.256   6.985  0.00  0.00    +0.000 A 
ATOM     20  C   UNL     1      47.351   2.273   6.045  0.00  0.00    +0.000 A 
ATOM     21  C   UNL     1      46.593   3.406   6.261  0.00  0.00    +0.000 A 
ATOM     22  N   UNL     1      45.782   3.579   7.326  0.00  0.00    +0.000 NA
ATOM     23  H   UNL     1      44.233   1.917   9.389  0.00  0.00    +0.000 HD
ENDBRANCH  15  16
ENDBRANCH   4  15
TORSDOF 7
ENDMDL
MODEL 4
REMARK VINA RESULT:    -5.646      1.915      2.413
REMARK INTER + INTRA:          -8.205
REMARK INTER:                  -7.719
REMARK INTRA:                  -0.486
REMARK UNBOUND:                -0.414
REMARK  Name = 
REMARK  7 active torsions:
REMARK  status: ('A' for Active; 'I' for Inactive)
REMARK    1  A    between atoms: N_1  and  C_2
REMARK    2  A    between atoms: C_2  and  C_3
REMARK    3  A    between atoms: C_3  and  C_4
REMARK    4  A    between atoms: C_4  and  C_5
REMARK    5  A    between atoms: C_6  and  C_7
REMARK    6  A    between atoms: C_10  and  C_11
REMARK    7  A    between atoms: C_11  and  N_12
REMARK                            x       y       z     vdW  Elec       q    Type
REMARK                         _______ _______ _______ _____ _____    ______ ____
ROOT
ATOM      1  C   UNL     1      47.709   5.819  14.544  0.00  0.00    +0.000 A 
ATOM      2  C   UNL     1      47.648   6.903  13.678  0.00  0.00    +0.000 A 
ATOM      3  C   UNL     1      46.705   6.892  12.649  0.00  0.00    +0.000 A 
ATOM      4  C   UNL     1      45.839   5.804  12.516  0.00  0.00    +0.000 A 
ATOM      5  C   UNL     1      45.994   4.756  13.411  0.00  0.00    +0.000 A 
ATOM      6  N   UNL     1      46.900   4.741  14.411  0.00  0.00    +0.000 NA
ENDROOT
BRANCH   1   8
ATOM      7  C   UNL     1      48.253   5.906  16.959  0.00  0.00    +0.000 C 
ATOM      8  C   UNL     1      48.647   5.813  15.676  0.00  0.00    +0.000 C 
BRANCH   7   9
ATOM      9  C   UNL     1      49.176   5.945  18.138  0.00  0.00    +0.000 C 
BRANCH   9  10
ATOM     10  C   UNL     1      49.665   4.542  18.502  0.00  0.00    +0.000 C 
BRANCH  10  11
ATOM     11  C   UNL     1      48.493   3.642  18.889  0.00  0.00    +0.000 C 
BRANCH  11  12
ATOM     12  N   UNL     1      48.441   3.473  20.336  0.00  0.00    +0.000 NA
ATOM     13  H   UNL     1      49.301   3.830  20.752  0.00  0.00    +0.000 HD
ATOM     14  H   UNL     1      48.399   2.482  20.566  0.00  0.00    +0.000 HD
ENDBRANCH  11  12
ENDBRANCH  10  11
ENDBRANCH   9  10
ENDBRANCH   7   9
ENDBRANCH   1   8
BRANCH   4  15
ATOM     15  C   UNL     1      44.766   5.758  11.465  0.00  0.00    +0.000 C 
BRANCH  15  16
ATOM     16  N   UNL     1      45.357   5.832  10.136  0.00  0.00    +0.000 N 
ATOM     17  C   UNL     1      45.420   4.580   9.496  0.00  0.00    +0.000 A 
ATOM     18  C   UNL     1      45.961   4.515   8.215  0.00  0.00    +0.000 A 
ATOM     19  C   UNL     1      46.030   3.286   7.559  0.00  0.00    +0.000 A 
ATOM     20  C   UNL     1      45.555   2.150   8.199  0.00  0.00    +0.000 A 
ATOM     21  C   UNL     1      45.021   2.298   9.463  0.00  0.00    +0.000 A 
ATOM     22  N   UNL     1      44.940   3.479  10.113  0.00  0.00    +0.000 NA
ATOM     23  H   UNL     1      46.291   6.234  10.152  0.00  0.00    +0.000 HD
ENDBRANCH  15  16
ENDBRANCH   4  15
TORSDOF 7
ENDMDL
MODEL 5
REMARK VINA RESULT:    -5.554      2.028      8.468
REMARK INTER + INTRA:          -8.078
REMARK INTER:                  -7.631
REMARK INTRA:                  -0.448
REMARK UNBOUND:                -0.414
REMARK  Name = 
REMARK  7 active torsions:
REMARK  status: ('A' for Active; 'I' for Inactive)
REMARK    1  A    between atoms: N_1  and  C_2
REMARK    2  A    between atoms: C_2  and  C_3
REMARK    3  A    between atoms: C_3  and  C_4
REMARK    4  A    between atoms: C_4  and  C_5
REMARK    5  A    between atoms: C_6  and  C_7
REMARK    6  A    between atoms: C_10  and  C_11
REMARK    7  A    between atoms: C_11  and  N_12
REMARK                            x       y       z     vdW  Elec       q    Type
REMARK                         _______ _______ _______ _____ _____    ______ ____
ROOT
ATOM      1  C   UNL     1      45.623   4.595  11.964  0.00  0.00    +0.000 A 
ATOM      2  C   UNL     1      46.002   5.932  11.956  0.00  0.00    +0.000 A 
ATOM      3  C   UNL     1      46.797   6.413  12.997  0.00  0.00    +0.000 A 
ATOM      4  C   UNL     1      47.202   5.546  14.015  0.00  0.00    +0.000 A 
ATOM      5  C   UNL     1      46.751   4.236  13.951  0.00  0.00    +0.000 A 
ATOM      6  N   UNL     1      45.979   3.748  12.958  0.00  0.00    +0.000 NA
ENDROOT
BRANCH   1   8
ATOM      7  C   UNL     1      45.241   2.979  10.125  0.00  0.00    +0.000 C 
ATOM      8  C   UNL     1      44.834   4.031  10.857  0.00  0.00    +0.000 C 
BRANCH   7   9
ATOM      9  C   UNL     1      44.489   2.400   8.966  0.00  0.00    +0.000 C 
BRANCH   9  10
ATOM     10  C   UNL     1      44.855   3.110   7.662  0.00  0.00    +0.000 C 
BRANCH  10  11
ATOM     11  C   UNL     1      46.370   3.252   7.528  0.00  0.00    +0.000 C 
BRANCH  11  12
ATOM     12  N   UNL     1      46.704   3.988   6.314  0.00  0.00    +0.000 NA
ATOM     13  H   UNL     1      47.132   4.879   6.563  0.00  0.00    +0.000 HD
ATOM     14  H   UNL     1      45.852   4.210   5.801  0.00  0.00    +0.000 HD
ENDBRANCH  11  12
ENDBRANCH  10  11
ENDBRANCH   9  10
ENDBRANCH   7   9
ENDBRANCH   1   8
BRANCH   4  15
ATOM     15  C   UNL     1      48.104   5.989  15.132  0.00  0.00    +0.000 C 
BRANCH  15  16
ATOM     16  N   UNL     1      47.628   5.462  16.404  0.00  0.00    +0.000 N 
ATOM     17  C   UNL     1      48.675   5.151  17.292  0.00  0.00    +0.000 A 
ATOM     18  C   UNL     1      48.352   4.642  18.548  0.00  0.00    +0.000 A 
ATOM     19  C   UNL     1      49.372   4.330  19.446  0.00  0.00    +0.000 A 
ATOM     20  C   UNL     1      50.691   4.535  19.070  0.00  0.00    +0.000 A 
ATOM     21  C   UNL     1      50.930   5.055  17.813  0.00  0.00    +0.000 A 
ATOM     22  N   UNL     1      49.957   5.369  16.931  0.00  0.00    +0.000 NA
ATOM     23  H   UNL     1      47.048   4.636  16.286  0.00  0.00    +0.000 HD
ENDBRANCH  15  16
ENDBRANCH   4  15
TORSDOF 7
ENDMDL
MODEL 6
REMARK VINA RESULT:    -5.439      3.295      8.569
REMARK INTER + INTRA:          -7.919
REMARK INTER:                  -7.419
REMARK INTRA:                  -0.501
REMARK UNBOUND:                -0.414
REMARK  Name = 
REMARK  7 active torsions:
REMARK  status: ('A' for Active; 'I' for Inactive)
REMARK    1  A    between atoms: N_1  and  C_2
REMARK    2  A    between atoms: C_2  and  C_3
REMARK    3  A    between atoms: C_3  and  C_4
REMARK    4  A    between atoms: C_4  and  C_5
REMARK    5  A    between atoms: C_6  and  C_7
REMARK    6  A    between atoms: C_10  and  C_11
REMARK    7  A    between atoms: C_11  and  N_12
REMARK                            x       y       z     vdW  Elec       q    Type
REMARK                         _______ _______ _______ _____ _____    ______ ____
ROOT
ATOM      1  C   UNL     1      47.225   5.492  14.084  0.00  0.00    +0.000 A 
ATOM      2  C   UNL     1      48.158   6.325  14.690  0.00  0.00    +0.000 A 
ATOM      3  C   UNL     1      48.641   5.988  15.955  0.00  0.00    +0.000 A 
ATOM      4  C   UNL     1      48.189   4.823  16.580  0.00  0.00    +0.000 A 
ATOM      5  C   UNL     1      47.237   4.070  15.908  0.00  0.00    +0.000 A 
ATOM      6  N   UNL     1      46.752   4.377  14.687  0.00  0.00    +0.000 NA
ENDROOT
BRANCH   1   8
ATOM      7  C   UNL     1      45.586   5.271  12.239  0.00  0.00    +0.000 C 
ATOM      8  C   UNL     1      46.733   5.778  12.727  0.00  0.00    +0.000 C 
BRANCH   7   9
ATOM      9  C   UNL     1      45.070   5.504  10.853  0.00  0.00    +0.000 C 
BRANCH   9  10
ATOM     10  C   UNL     1      43.673   4.907  10.677  0.00  0.00    +0.000 C 
BRANCH  10  11
ATOM     11  C   UNL     1      42.644   5.682  11.497  0.00  0.00    +0.000 C 
BRANCH  11  12
ATOM     12  N   UNL     1      42.706   7.102  11.176  0.00  0.00    +0.000 NA
ATOM     13  H   UNL     1      41.824   7.395  10.755  0.00  0.00    +0.000 HD
ATOM     14  H   UNL     1      43.427   7.266  10.475  0.00  0.00    +0.000 HD
ENDBRANCH  11  12
ENDBRANCH  10  11
ENDBRANCH   9  10
ENDBRANCH   7   9
ENDBRANCH   1   8
BRANCH   4  15
ATOM     15  C   UNL     1      48.712   4.376  17.916  0.00  0.00    +0.000 C 
BRANCH  15  16
ATOM     16  N   UNL     1      50.124   4.709  18.042  0.00  0.00    +0.000 N 
ATOM     17  C   UNL     1      50.965   3.590  17.888  0.00  0.00    +0.000 A 
ATOM     18  C   UNL     1      52.342   3.776  17.983  0.00  0.00    +0.000 A 
ATOM     19  C   UNL     1      53.195   2.683  17.829  0.00  0.00    +0.000 A 
ATOM     20  C   UNL     1      52.652   1.430  17.583  0.00  0.00    +0.000 A 
ATOM     21  C   UNL     1      51.278   1.330  17.491  0.00  0.00    +0.000 A 
ATOM     22  N   UNL     1      50.436   2.375  17.631  0.00  0.00    +0.000 NA
ATOM     23  H   UNL     1      50.338   5.153  18.932  0.00  0.00    +0.000 HD
ENDBRANCH  15  16
ENDBRANCH   4  15
TORSDOF 7
ENDMDL
MODEL 7
REMARK VINA RESULT:    -5.262      3.280      6.532
REMARK INTER + INTRA:          -7.675
REMARK INTER:                  -7.172
REMARK INTRA:                  -0.503
REMARK UNBOUND:                -0.414
REMARK  Name = 
REMARK  7 active torsions:
REMARK  status: ('A' for Active; 'I' for Inactive)
REMARK    1  A    between atoms: N_1  and  C_2
REMARK    2  A    between atoms: C_2  and  C_3
REMARK    3  A    between atoms: C_3  and  C_4
REMARK    4  A    between atoms: C_4  and  C_5
REMARK    5  A    between atoms: C_6  and  C_7
REMARK    6  A    between atoms: C_10  and  C_11
REMARK    7  A    between atoms: C_11  and  N_12
REMARK                            x       y       z     vdW  Elec       q    Type
REMARK                         _______ _______ _______ _____ _____    ______ ____
ROOT
ATOM      1  C   UNL     1      50.953   3.331  17.742  0.00  0.00    +0.000 A 
ATOM      2  C   UNL     1      50.198   2.248  17.310  0.00  0.00    +0.000 A 
ATOM      3  C   UNL     1      48.933   2.482  16.768  0.00  0.00    +0.000 A 
ATOM      4  C   UNL     1      48.457   3.790  16.661  0.00  0.00    +0.000 A 
ATOM      5  C   UNL     1      49.272   4.804  17.146  0.00  0.00    +0.000 A 
ATOM      6  N   UNL     1      50.496   4.604  17.677  0.00  0.00    +0.000 NA
ENDROOT
BRANCH   1   8
ATOM      7  C   UNL     1      53.234   2.367  17.657  0.00  0.00    +0.000 C 
ATOM      8  C   UNL     1      52.314   3.136  18.266  0.00  0.00    +0.000 C 
BRANCH   7   9
ATOM      9  C   UNL     1      54.615   2.111  18.177  0.00  0.00    +0.000 C 
BRANCH   9  10
ATOM     10  C   UNL     1      54.686   0.773  18.915  0.00  0.00    +0.000 C 
BRANCH  10  11
ATOM     11  C   UNL     1      54.140  -0.357  18.045  0.00  0.00    +0.000 C 
BRANCH  11  12
ATOM     12  N   UNL     1      53.116  -1.103  18.767  0.00  0.00    +0.000 NA
ATOM     13  H   UNL     1      52.372  -1.370  18.123  0.00  0.00    +0.000 HD
ATOM     14  H   UNL     1      52.686  -0.504  19.471  0.00  0.00    +0.000 HD
ENDBRANCH  11  12
ENDBRANCH  10  11
ENDBRANCH   9  10
ENDBRANCH   7   9
ENDBRANCH   1   8
BRANCH   4  15
ATOM     15  C   UNL     1      47.129   4.112  16.036  0.00  0.00    +0.000 C 
BRANCH  15  16
ATOM     16  N   UNL     1      47.260   5.244  15.129  0.00  0.00    +0.000 N 
ATOM     17  C   UNL     1      46.600   5.039  13.902  0.00  0.00    +0.000 A 
ATOM     18  C   UNL     1      46.645   6.051  12.946  0.00  0.00    +0.000 A 
ATOM     19  C   UNL     1      45.995   5.872  11.725  0.00  0.00    +0.000 A 
ATOM     20  C   UNL     1      45.314   4.687  11.488  0.00  0.00    +0.000 A 
ATOM     21  C   UNL     1      45.306   3.737  12.490  0.00  0.00    +0.000 A 
ATOM     22  N   UNL     1      45.922   3.892  13.681  0.00  0.00    +0.000 NA
ATOM     23  H   UNL     1      48.231   5.475  14.938  0.00  0.00    +0.000 HD
ENDBRANCH  15  16
ENDBRANCH   4  15
TORSDOF 7
ENDMDL
MODEL 8
REMARK VINA RESULT:    -5.123      4.047      5.625
REMARK INTER + INTRA:          -7.484
REMARK INTER:                  -7.432
REMARK INTRA:                  -0.053
REMARK UNBOUND:                -0.414
REMARK  Name = 
REMARK  7 active torsions:
REMARK  status: ('A' for Active; 'I' for Inactive)
REMARK    1  A    between atoms: N_1  and  C_2
REMARK    2  A    between atoms: C_2  and  C_3
REMARK    3  A    between atoms: C_3  and  C_4
REMARK    4  A    between atoms: C_4  and  C_5
REMARK    5  A    between atoms: C_6  and  C_7
REMARK    6  A    between atoms: C_10  and  C_11
REMARK    7  A    between atoms: C_11  and  N_12
REMARK                            x       y       z     vdW  Elec       q    Type
REMARK                         _______ _______ _______ _____ _____    ______ ____
ROOT
ATOM      1  C   UNL     1      44.735   6.236  11.327  0.00  0.00    +0.000 A 
ATOM      2  C   UNL     1      45.796   5.806  10.540  0.00  0.00    +0.000 A 
ATOM      3  C   UNL     1      45.671   4.607   9.836  0.00  0.00    +0.000 A 
ATOM      4  C   UNL     1      44.487   3.873   9.926  0.00  0.00    +0.000 A 
ATOM      5  C   UNL     1      43.493   4.369  10.758  0.00  0.00    +0.000 A 
ATOM      6  N   UNL     1      43.591   5.522  11.451  0.00  0.00    +0.000 NA
ENDROOT
BRANCH   1   8
ATOM      7  C   UNL     1      44.796   8.712  11.413  0.00  0.00    +0.000 C 
ATOM      8  C   UNL     1      44.800   7.521  12.039  0.00  0.00    +0.000 C 
BRANCH   7   9
ATOM      9  C   UNL     1      44.901  10.039  12.097  0.00  0.00    +0.000 C 
BRANCH   9  10
ATOM     10  C   UNL     1      43.757  10.965  11.683  0.00  0.00    +0.000 C 
BRANCH  10  11
ATOM     11  C   UNL     1      43.455  10.824  10.193  0.00  0.00    +0.000 C 
BRANCH  11  12
ATOM     12  N   UNL     1      44.467  11.516   9.404  0.00  0.00    +0.000 NA
ATOM     13  H   UNL     1      44.856  12.285   9.948  0.00  0.00    +0.000 HD
ATOM     14  H   UNL     1      44.035  11.934   8.581  0.00  0.00    +0.000 HD
ENDBRANCH  11  12
ENDBRANCH  10  11
ENDBRANCH   9  10
ENDBRANCH   7   9
ENDBRANCH   1   8
BRANCH   4  15
ATOM     15  C   UNL     1      44.270   2.605   9.149  0.00  0.00    +0.000 C 
BRANCH  15  16
ATOM     16  N   UNL     1      45.520   1.867   9.027  0.00  0.00    +0.000 N 
ATOM     17  C   UNL     1      46.188   2.123   7.814  0.00  0.00    +0.000 A 
ATOM     18  C   UNL     1      47.401   1.480   7.576  0.00  0.00    +0.000 A 
ATOM     19  C   UNL     1      48.084   1.722   6.384  0.00  0.00    +0.000 A 
ATOM     20  C   UNL     1      47.539   2.599   5.458  0.00  0.00    +0.000 A 
ATOM     21  C   UNL     1      46.340   3.206   5.773  0.00  0.00    +0.000 A 
ATOM     22  N   UNL     1      45.666   2.992   6.923  0.00  0.00    +0.000 NA
ATOM     23  H   UNL     1      45.385   0.864   9.116  0.00  0.00    +0.000 HD
ENDBRANCH  15  16
ENDBRANCH   4  15
TORSDOF 7
ENDMDL
