MODEL 1
REMARK VINA RESULT:    -8.384      0.000      0.000
REMARK INTER + INTRA:         -11.359
REMARK INTER:                 -10.835
REMARK INTRA:                  -0.523
REMARK UNBOUND:                -0.523
REMARK  Name = 
REMARK  5 active torsions:
REMARK  status: ('A' for Active; 'I' for Inactive)
REMARK    1  A    between atoms: C_2  and  C_4
REMARK    2  A    between atoms: C_7  and  N_8
REMARK    3  A    between atoms: N_8  and  C_9
REMARK    4  A    between atoms: C_9  and  C_10
REMARK    5  A    between atoms: C_14  and  C_15
REMARK                            x       y       z     vdW  Elec       q    Type
REMARK                         _______ _______ _______ _____ _____    ______ ____
ROOT
ATOM      1  N   UNL     1      43.784   4.777   9.788  0.00  0.00    +0.000 N 
ATOM      2  H   UNL     1      42.911   4.764   9.272  0.00  0.00    +0.000 HD
ENDROOT
BRANCH   1   6
ATOM      3  C   UNL     1      46.491   2.491   7.710  0.00  0.00    +0.000 A 
ATOM      4  C   UNL     1      46.482   3.870   7.580  0.00  0.00    +0.000 A 
ATOM      5  N   UNL     1      45.635   4.667   8.286  0.00  0.00    +0.000 NA
ATOM      6  C   UNL     1      44.786   4.052   9.136  0.00  0.00    +0.000 A 
ATOM      7  C   UNL     1      44.826   2.655   9.266  0.00  0.00    +0.000 A 
ATOM      8  N   UNL     1      45.665   1.839   8.573  0.00  0.00    +0.000 NA
BRANCH   3  10
ATOM      9  N   UNL     1      48.510   2.303   6.380  0.00  0.00    +0.000 N 
ATOM     10  C   UNL     1      47.394   1.674   6.857  0.00  0.00    +0.000 C 
ATOM     11  O   UNL     1      47.164   0.494   6.607  0.00  0.00    +0.000 OA
ATOM     12  H   UNL     1      49.187   1.769   5.852  0.00  0.00    +0.000 HD
ATOM     13  H   UNL     1      48.730   3.245   6.683  0.00  0.00    +0.000 HD
ENDBRANCH   3  10
ENDBRANCH   1   6
BRANCH   1  14
ATOM     14  C   UNL     1      43.601   4.504  11.209  0.00  0.00    +0.000 C 
BRANCH  14  15
ATOM     15  C   UNL     1      44.865   4.897  11.939  0.00  0.00    +0.000 A 
ATOM     16  C   UNL     1      45.497   4.048  12.844  0.00  0.00    +0.000 A 
ATOM     17  C   UNL     1      46.675   4.479  13.433  0.00  0.00    +0.000 A 
ATOM     18  N   UNL     1      47.248   5.679  13.193  0.00  0.00    +0.000 NA
ATOM     19  C   UNL     1      46.629   6.515  12.324  0.00  0.00    +0.000 A 
ATOM     20  C   UNL     1      45.453   6.141  11.675  0.00  0.00    +0.000 A 
BRANCH  19  21
ATOM     21  C   UNL     1      47.264   7.824  12.110  0.00  0.00    +0.000 A 
ATOM     22  C   UNL     1      48.614   7.959  11.752  0.00  0.00    +0.000 A 
ATOM     23  C   UNL     1      49.182   9.220  11.577  0.00  0.00    +0.000 A 
ATOM     24  C   UNL     1      48.380  10.330  11.760  0.00  0.00    +0.000 A 
ATOM     25  N   UNL     1      47.075  10.260  12.091  0.00  0.00    +0.000 NA
ATOM     26  C   UNL     1      46.551   9.016  12.250  0.00  0.00    +0.000 A 
ENDBRANCH  19  21
ENDBRANCH  14  15
ENDBRANCH   1  14
TORSDOF 5
ENDMDL
MODEL 2
REMARK VINA RESULT:    -8.342      1.625      3.414
REMARK INTER + INTRA:         -11.304
REMARK INTER:                 -10.645
REMARK INTRA:                  -0.659
REMARK UNBOUND:                -0.523
REMARK  Name = 
REMARK  5 active torsions:
REMARK  status: ('A' for Active; 'I' for Inactive)
REMARK    1  A    between atoms: C_2  and  C_4
REMARK    2  A    between atoms: C_7  and  N_8
REMARK    3  A    between atoms: N_8  and  C_9
REMARK    4  A    between atoms: C_9  and  C_10
REMARK    5  A    between atoms: C_14  and  C_15
REMARK                            x       y       z     vdW  Elec       q    Type
REMARK                         _______ _______ _______ _____ _____    ______ ____
ROOT
ATOM      1  N   UNL     1      43.744   4.719   9.825  0.00  0.00    +0.000 N 
ATOM      2  H   UNL     1      42.844   4.624   9.369  0.00  0.00    +0.000 HD
ENDROOT
BRANCH   1   6
ATOM      3  C   UNL     1      46.426   2.368   7.788  0.00  0.00    +0.000 A 
ATOM      4  C   UNL     1      46.361   3.732   7.555  0.00  0.00    +0.000 A 
ATOM      5  N   UNL     1      45.522   4.554   8.243  0.00  0.00    +0.000 NA
ATOM      6  C   UNL     1      44.738   3.978   9.179  0.00  0.00    +0.000 A 
ATOM      7  C   UNL     1      44.834   2.597   9.410  0.00  0.00    +0.000 A 
ATOM      8  N   UNL     1      45.666   1.758   8.738  0.00  0.00    +0.000 NA
BRANCH   3  10
ATOM      9  N   UNL     1      48.416   2.129   6.422  0.00  0.00    +0.000 N 
ATOM     10  C   UNL     1      47.314   1.517   6.953  0.00  0.00    +0.000 C 
ATOM     11  O   UNL     1      47.086   0.326   6.762  0.00  0.00    +0.000 OA
ATOM     12  H   UNL     1      49.084   1.575   5.905  0.00  0.00    +0.000 HD
ATOM     13  H   UNL     1      48.637   3.084   6.677  0.00  0.00    +0.000 HD
ENDBRANCH   3  10
ENDBRANCH   1   6
BRANCH   1  14
ATOM     14  C   UNL     1      43.659   4.572  11.274  0.00  0.00    +0.000 C 
BRANCH  14  15
ATOM     15  C   UNL     1      44.780   5.366  11.903  0.00  0.00    +0.000 A 
ATOM     16  C   UNL     1      45.139   6.634  11.453  0.00  0.00    +0.000 A 
ATOM     17  C   UNL     1      46.154   7.302  12.120  0.00  0.00    +0.000 A 
ATOM     18  N   UNL     1      46.828   6.798  13.177  0.00  0.00    +0.000 NA
ATOM     19  C   UNL     1      46.492   5.558  13.610  0.00  0.00    +0.000 A 
ATOM     20  C   UNL     1      45.466   4.834  13.004  0.00  0.00    +0.000 A 
BRANCH  19  21
ATOM     21  C   UNL     1      47.266   5.028  14.742  0.00  0.00    +0.000 A 
ATOM     22  C   UNL     1      47.100   3.720  15.225  0.00  0.00    +0.000 A 
ATOM     23  C   UNL     1      47.841   3.263  16.312  0.00  0.00    +0.000 A 
ATOM     24  C   UNL     1      48.744   4.129  16.900  0.00  0.00    +0.000 A 
ATOM     25  N   UNL     1      48.953   5.390  16.472  0.00  0.00    +0.000 NA
ATOM     26  C   UNL     1      48.218   5.803  15.406  0.00  0.00    +0.000 A 
ENDBRANCH  19  21
ENDBRANCH  14  15
ENDBRANCH   1  14
TORSDOF 5
ENDMDL
MODEL 3
REMARK VINA RESULT:    -7.565      3.561      7.506
REMARK INTER + INTRA:         -10.300
REMARK INTER:                  -9.784
REMARK INTRA:                  -0.516
REMARK UNBOUND:                -0.523
REMARK  Name = 
REMARK  5 active torsions:
REMARK  status: ('A' for Active; 'I' for Inactive)
REMARK    1  A    between atoms: C_2  and  C_4
REMARK    2  A    between atoms: C_7  and  N_8
REMARK    3  A    between atoms: N_8  and  C_9
REMARK    4  A    between atoms: C_9  and  C_10
REMARK    5  A    between atoms: C_14  and  C_15
REMARK                            x       y       z     vdW  Elec       q    Type
REMARK                         _______ _______ _______ _____ _____    ______ ____
ROOT
ATOM      1  N   UNL     1      46.500   5.881  12.922  0.00  0.00    +0.000 N 
ATOM      2  H   UNL     1      46.927   5.485  12.092  0.00  0.00    +0.000 HD
ENDROOT
BRANCH   1   6
ATOM      3  C   UNL     1      48.176   4.781  16.507  0.00  0.00    +0.000 A 
ATOM      4  C   UNL     1      47.175   4.017  15.930  0.00  0.00    +0.000 A 
ATOM      5  N   UNL     1      46.627   4.319  14.721  0.00  0.00    +0.000 NA
ATOM      6  C   UNL     1      47.104   5.414  14.093  0.00  0.00    +0.000 A 
ATOM      7  C   UNL     1      48.132   6.162  14.688  0.00  0.00    +0.000 A 
ATOM      8  N   UNL     1      48.696   5.878  15.892  0.00  0.00    +0.000 NA
BRANCH   3  10
ATOM      9  N   UNL     1      47.756   4.422  18.869  0.00  0.00    +0.000 N 
ATOM     10  C   UNL     1      48.682   4.436  17.862  0.00  0.00    +0.000 C 
ATOM     11  O   UNL     1      49.860   4.162  18.068  0.00  0.00    +0.000 OA
ATOM     12  H   UNL     1      48.041   4.127  19.792  0.00  0.00    +0.000 HD
ATOM     13  H   UNL     1      46.775   4.552  18.657  0.00  0.00    +0.000 HD
ENDBRANCH   3  10
ENDBRANCH   1   6
BRANCH   1  14
ATOM     14  C   UNL     1      45.042   5.838  12.878  0.00  0.00    +0.000 C 
BRANCH  14  15
ATOM     15  C   UNL     1      44.623   4.650  12.045  0.00  0.00    +0.000 A 
ATOM     16  C   UNL     1      43.581   3.806  12.420  0.00  0.00    +0.000 A 
ATOM     17  C   UNL     1      43.242   2.765  11.571  0.00  0.00    +0.000 A 
ATOM     18  N   UNL     1      43.866   2.508  10.400  0.00  0.00    +0.000 NA
ATOM     19  C   UNL     1      44.890   3.318  10.036  0.00  0.00    +0.000 A 
ATOM     20  C   UNL     1      45.273   4.399  10.829  0.00  0.00    +0.000 A 
BRANCH  19  21
ATOM     21  C   UNL     1      45.566   2.990   8.772  0.00  0.00    +0.000 A 
ATOM     22  C   UNL     1      45.996   1.691   8.459  0.00  0.00    +0.000 A 
ATOM     23  C   UNL     1      46.650   1.428   7.257  0.00  0.00    +0.000 A 
ATOM     24  C   UNL     1      46.858   2.476   6.382  0.00  0.00    +0.000 A 
ATOM     25  N   UNL     1      46.456   3.740   6.623  0.00  0.00    +0.000 NA
ATOM     26  C   UNL     1      45.818   3.962   7.802  0.00  0.00    +0.000 A 
ENDBRANCH  19  21
ENDBRANCH  14  15
ENDBRANCH   1  14
TORSDOF 5
ENDMDL
MODEL 4
REMARK VINA RESULT:    -7.515      2.551      6.557
REMARK INTER + INTRA:         -10.235
REMARK INTER:                  -9.490
REMARK INTRA:                  -0.745
REMARK UNBOUND:                -0.523
REMARK  Name = 
REMARK  5 active torsions:
REMARK  status: ('A' for Active; 'I' for Inactive)
REMARK    1  A    between atoms: C_2  and  C_4
REMARK    2  A    between atoms: C_7  and  N_8
REMARK    3  A    between atoms: N_8  and  C_9
REMARK    4  A    between atoms: C_9  and  C_10
REMARK    5  A    between atoms: C_14  and  C_15
REMARK                            x       y       z     vdW  Elec       q    Type
REMARK                         _______ _______ _______ _____ _____    ______ ____
ROOT
ATOM      1  N   UNL     1      45.287   6.348  13.215  0.00  0.00    +0.000 N 
ATOM      2  H   UNL     1      44.897   6.750  14.061  0.00  0.00    +0.000 HD
ENDROOT
BRANCH   1   6
ATOM      3  C   UNL     1      49.168   7.394  12.370  0.00  0.00    +0.000 A 
ATOM      4  C   UNL     1      48.110   8.085  11.804  0.00  0.00    +0.000 A 
ATOM      5  N   UNL     1      46.811   7.803  12.095  0.00  0.00    +0.000 NA
ATOM      6  C   UNL     1      46.587   6.803  12.973  0.00  0.00    +0.000 A 
ATOM      7  C   UNL     1      47.675   6.129  13.549  0.00  0.00    +0.000 A 
ATOM      8  N   UNL     1      48.980   6.395  13.275  0.00  0.00    +0.000 NA
BRANCH   3  10
ATOM      9  N   UNL     1      51.413   8.108  12.948  0.00  0.00    +0.000 N 
ATOM     10  C   UNL     1      50.562   7.706  11.956  0.00  0.00    +0.000 C 
ATOM     11  O   UNL     1      50.937   7.596  10.793  0.00  0.00    +0.000 OA
ATOM     12  H   UNL     1      52.386   8.265  12.726  0.00  0.00    +0.000 HD
ATOM     13  H   UNL     1      51.108   8.093  13.914  0.00  0.00    +0.000 HD
ENDBRANCH   3  10
ENDBRANCH   1   6
BRANCH   1  14
ATOM     14  C   UNL     1      44.358   6.395  12.092  0.00  0.00    +0.000 C 
BRANCH  14  15
ATOM     15  C   UNL     1      44.227   5.002  11.521  0.00  0.00    +0.000 A 
ATOM     16  C   UNL     1      43.370   4.050  12.067  0.00  0.00    +0.000 A 
ATOM     17  C   UNL     1      43.287   2.813  11.450  0.00  0.00    +0.000 A 
ATOM     18  N   UNL     1      43.993   2.464  10.352  0.00  0.00    +0.000 NA
ATOM     19  C   UNL     1      44.839   3.382   9.824  0.00  0.00    +0.000 A 
ATOM     20  C   UNL     1      44.959   4.656  10.377  0.00  0.00    +0.000 A 
BRANCH  19  21
ATOM     21  C   UNL     1      45.614   2.958   8.649  0.00  0.00    +0.000 A 
ATOM     22  C   UNL     1      46.033   3.857   7.655  0.00  0.00    +0.000 A 
ATOM     23  C   UNL     1      46.750   3.411   6.547  0.00  0.00    +0.000 A 
ATOM     24  C   UNL     1      47.041   2.063   6.455  0.00  0.00    +0.000 A 
ATOM     25  N   UNL     1      46.676   1.157   7.384  0.00  0.00    +0.000 NA
ATOM     26  C   UNL     1      45.982   1.625   8.454  0.00  0.00    +0.000 A 
ENDBRANCH  19  21
ENDBRANCH  14  15
ENDBRANCH   1  14
TORSDOF 5
ENDMDL
MODEL 5
REMARK VINA RESULT:    -7.448      3.074      7.129
REMARK INTER + INTRA:         -10.148
REMARK INTER:                  -9.727
REMARK INTRA:                  -0.422
REMARK UNBOUND:                -0.523
REMARK  Name = 
REMARK  5 active torsions:
REMARK  status: ('A' for Active; 'I' for Inactive)
REMARK    1  A    between atoms: C_2  and  C_4
REMARK    2  A    between atoms: C_7  and  N_8
REMARK    3  A    between atoms: N_8  and  C_9
REMARK    4  A    between atoms: C_9  and  C_10
REMARK    5  A    between atoms: C_14  and  C_15
REMARK                            x       y       z     vdW  Elec       q    Type
REMARK                         _______ _______ _______ _____ _____    ______ ____
ROOT
ATOM      1  N   UNL     1      47.308   6.470  12.742  0.00  0.00    +0.000 N 
ATOM      2  H   UNL     1      47.641   5.965  11.927  0.00  0.00    +0.000 HD
ENDROOT
BRANCH   1   6
ATOM      3  C   UNL     1      47.850   4.034  16.004  0.00  0.00    +0.000 A 
ATOM      4  C   UNL     1      48.333   5.332  16.002  0.00  0.00    +0.000 A 
ATOM      5  N   UNL     1      48.132   6.187  14.963  0.00  0.00    +0.000 NA
ATOM      6  C   UNL     1      47.433   5.713  13.911  0.00  0.00    +0.000 A 
ATOM      7  C   UNL     1      46.937   4.400  13.942  0.00  0.00    +0.000 A 
ATOM      8  N   UNL     1      47.123   3.530  14.971  0.00  0.00    +0.000 NA
BRANCH   3  10
ATOM      9  N   UNL     1      47.131   2.845  17.992  0.00  0.00    +0.000 N 
ATOM     10  C   UNL     1      48.164   3.130  17.142  0.00  0.00    +0.000 C 
ATOM     11  O   UNL     1      49.282   2.650  17.305  0.00  0.00    +0.000 OA
ATOM     12  H   UNL     1      47.280   2.182  18.740  0.00  0.00    +0.000 HD
ATOM     13  H   UNL     1      46.196   3.170  17.780  0.00  0.00    +0.000 HD
ENDBRANCH   3  10
ENDBRANCH   1   6
BRANCH   1  14
ATOM     14  C   UNL     1      46.019   7.113  12.515  0.00  0.00    +0.000 C 
BRANCH  14  15
ATOM     15  C   UNL     1      45.153   6.178  11.703  0.00  0.00    +0.000 A 
ATOM     16  C   UNL     1      43.770   6.120  11.855  0.00  0.00    +0.000 A 
ATOM     17  C   UNL     1      43.056   5.260  11.037  0.00  0.00    +0.000 A 
ATOM     18  N   UNL     1      43.617   4.462  10.102  0.00  0.00    +0.000 NA
ATOM     19  C   UNL     1      44.964   4.503   9.959  0.00  0.00    +0.000 A 
ATOM     20  C   UNL     1      45.747   5.361  10.731  0.00  0.00    +0.000 A 
BRANCH  19  21
ATOM     21  C   UNL     1      45.544   3.600   8.954  0.00  0.00    +0.000 A 
ATOM     22  C   UNL     1      46.191   4.069   7.800  0.00  0.00    +0.000 A 
ATOM     23  C   UNL     1      46.711   3.178   6.863  0.00  0.00    +0.000 A 
ATOM     24  C   UNL     1      46.575   1.824   7.101  0.00  0.00    +0.000 A 
ATOM     25  N   UNL     1      45.974   1.317   8.197  0.00  0.00    +0.000 NA
ATOM     26  C   UNL     1      45.483   2.212   9.093  0.00  0.00    +0.000 A 
ENDBRANCH  19  21
ENDBRANCH  14  15
ENDBRANCH   1  14
TORSDOF 5
ENDMDL
MODEL 6
REMARK VINA RESULT:    -7.226      1.766      2.241
REMARK INTER + INTRA:          -9.862
REMARK INTER:                  -9.215
REMARK INTRA:                  -0.647
REMARK UNBOUND:                -0.523
REMARK  Name = 
REMARK  5 active torsions:
REMARK  status: ('A' for Active; 'I' for Inactive)
REMARK    1  A    between atoms: C_2  and  C_4
REMARK    2  A    between atoms: C_7  and  N_8
REMARK    3  A    between atoms: N_8  and  C_9
REMARK    4  A    between atoms: C_9  and  C_10
REMARK    5  A    between atoms: C_14  and  C_15
REMARK                            x       y       z     vdW  Elec       q    Type
REMARK                         _______ _______ _______ _____ _____    ______ ____
ROOT
ATOM      1  N   UNL     1      44.107   4.818  10.853  0.00  0.00    +0.000 N 
ATOM      2  H   UNL     1      43.984   4.257  11.689  0.00  0.00    +0.000 HD
ENDROOT
BRANCH   1   6
ATOM      3  C   UNL     1      46.098   2.769   7.903  0.00  0.00    +0.000 A 
ATOM      4  C   UNL     1      45.341   2.094   8.846  0.00  0.00    +0.000 A 
ATOM      5  N   UNL     1      44.627   2.737   9.809  0.00  0.00    +0.000 NA
ATOM      6  C   UNL     1      44.686   4.085   9.813  0.00  0.00    +0.000 A 
ATOM      7  C   UNL     1      45.444   4.749   8.836  0.00  0.00    +0.000 A 
ATOM      8  N   UNL     1      46.163   4.127   7.863  0.00  0.00    +0.000 NA
BRANCH   3  10
ATOM      9  N   UNL     1      47.257   0.731   7.282  0.00  0.00    +0.000 N 
ATOM     10  C   UNL     1      46.910   2.003   6.920  0.00  0.00    +0.000 C 
ATOM     11  O   UNL     1      47.238   2.476   5.836  0.00  0.00    +0.000 OA
ATOM     12  H   UNL     1      47.751   0.150   6.619  0.00  0.00    +0.000 HD
ATOM     13  H   UNL     1      46.890   0.328   8.136  0.00  0.00    +0.000 HD
ENDBRANCH   3  10
ENDBRANCH   1   6
BRANCH   1  14
ATOM     14  C   UNL     1      44.690   6.126  11.134  0.00  0.00    +0.000 C 
BRANCH  14  15
ATOM     15  C   UNL     1      45.810   5.945  12.132  0.00  0.00    +0.000 A 
ATOM     16  C   UNL     1      45.723   5.051  13.197  0.00  0.00    +0.000 A 
ATOM     17  C   UNL     1      46.817   4.925  14.037  0.00  0.00    +0.000 A 
ATOM     18  N   UNL     1      47.966   5.622  13.896  0.00  0.00    +0.000 NA
ATOM     19  C   UNL     1      48.051   6.504  12.870  0.00  0.00    +0.000 A 
ATOM     20  C   UNL     1      46.999   6.669  11.970  0.00  0.00    +0.000 A 
BRANCH  19  21
ATOM     21  C   UNL     1      49.303   7.268  12.765  0.00  0.00    +0.000 A 
ATOM     22  C   UNL     1      49.834   7.683  11.534  0.00  0.00    +0.000 A 
ATOM     23  C   UNL     1      51.034   8.389  11.477  0.00  0.00    +0.000 A 
ATOM     24  C   UNL     1      51.683   8.673  12.663  0.00  0.00    +0.000 A 
ATOM     25  N   UNL     1      51.214   8.311  13.875  0.00  0.00    +0.000 NA
ATOM     26  C   UNL     1      50.040   7.628  13.895  0.00  0.00    +0.000 A 
ENDBRANCH  19  21
ENDBRANCH  14  15
ENDBRANCH   1  14
TORSDOF 5
ENDMDL
MODEL 7
REMARK VINA RESULT:    -6.487      5.237      7.449
REMARK INTER + INTRA:          -8.907
REMARK INTER:                  -8.413
REMARK INTRA:                  -0.494
REMARK UNBOUND:                -0.523
REMARK  Name = 
REMARK  5 active torsions:
REMARK  status: ('A' for Active; 'I' for Inactive)
REMARK    1  A    between atoms: C_2  and  C_4
REMARK    2  A    between atoms: C_7  and  N_8
REMARK    3  A    between atoms: N_8  and  C_9
REMARK    4  A    between atoms: C_9  and  C_10
REMARK    5  A    between atoms: C_14  and  C_15
REMARK                            x       y       z     vdW  Elec       q    Type
REMARK                         _______ _______ _______ _____ _____    ______ ____
ROOT
ATOM      1  N   UNL     1      47.077   5.166  15.002  0.00  0.00    +0.000 N 
ATOM      2  H   UNL     1      46.881   6.117  15.297  0.00  0.00    +0.000 HD
ENDROOT
BRANCH   1   6
ATOM      3  C   UNL     1      44.858   4.168  11.694  0.00  0.00    +0.000 A 
ATOM      4  C   UNL     1      45.494   3.190  12.441  0.00  0.00    +0.000 A 
ATOM      5  N   UNL     1      46.198   3.473  13.570  0.00  0.00    +0.000 NA
ATOM      6  C   UNL     1      46.256   4.769  13.943  0.00  0.00    +0.000 A 
ATOM      7  C   UNL     1      45.588   5.740  13.182  0.00  0.00    +0.000 A 
ATOM      8  N   UNL     1      44.877   5.481  12.052  0.00  0.00    +0.000 NA
BRANCH   3  10
ATOM      9  N   UNL     1      44.010   4.801   9.511  0.00  0.00    +0.000 N 
ATOM     10  C   UNL     1      44.163   3.801  10.431  0.00  0.00    +0.000 C 
ATOM     11  O   UNL     1      43.763   2.661  10.215  0.00  0.00    +0.000 OA
ATOM     12  H   UNL     1      43.605   4.581   8.612  0.00  0.00    +0.000 HD
ATOM     13  H   UNL     1      44.437   5.705   9.669  0.00  0.00    +0.000 HD
ENDBRANCH   3  10
ENDBRANCH   1   6
BRANCH   1  14
ATOM     14  C   UNL     1      47.190   4.242  16.125  0.00  0.00    +0.000 C 
BRANCH  14  15
ATOM     15  C   UNL     1      48.440   4.583  16.902  0.00  0.00    +0.000 A 
ATOM     16  C   UNL     1      48.626   5.823  17.508  0.00  0.00    +0.000 A 
ATOM     17  C   UNL     1      49.787   6.030  18.235  0.00  0.00    +0.000 A 
ATOM     18  N   UNL     1      50.761   5.105  18.388  0.00  0.00    +0.000 NA
ATOM     19  C   UNL     1      50.592   3.901  17.788  0.00  0.00    +0.000 A 
ATOM     20  C   UNL     1      49.439   3.613  17.059  0.00  0.00    +0.000 A 
BRANCH  19  21
ATOM     21  C   UNL     1      51.684   2.930  17.949  0.00  0.00    +0.000 A 
ATOM     22  C   UNL     1      51.626   1.631  17.420  0.00  0.00    +0.000 A 
ATOM     23  C   UNL     1      52.675   0.736  17.612  0.00  0.00    +0.000 A 
ATOM     24  C   UNL     1      53.775   1.161  18.332  0.00  0.00    +0.000 A 
ATOM     25  N   UNL     1      53.892   2.399  18.853  0.00  0.00    +0.000 NA
ATOM     26  C   UNL     1      52.853   3.249  18.644  0.00  0.00    +0.000 A 
ENDBRANCH  19  21
ENDBRANCH  14  15
ENDBRANCH   1  14
TORSDOF 5
ENDMDL
MODEL 8
REMARK VINA RESULT:    -5.865      3.842      5.989
REMARK INTER + INTRA:          -8.102
REMARK INTER:                  -7.482
REMARK INTRA:                  -0.620
REMARK UNBOUND:                -0.523
REMARK  Name = 
REMARK  5 active torsions:
REMARK  status: ('A' for Active; 'I' for Inactive)
REMARK    1  A    between atoms: C_2  and  C_4
REMARK    2  A    between atoms: C_7  and  N_8
REMARK    3  A    between atoms: N_8  and  C_9
REMARK    4  A    between atoms: C_9  and  C_10
REMARK    5  A    between atoms: C_14  and  C_15
REMARK                            x       y       z     vdW  Elec       q    Type
REMARK                         _______ _______ _______ _____ _____    ______ ____
ROOT
ATOM      1  N   UNL     1      46.122   7.666  13.253  0.00  0.00    +0.000 N 
ATOM      2  H   UNL     1      45.752   7.695  14.196  0.00  0.00    +0.000 HD
ENDROOT
BRANCH   1   6
ATOM      3  C   UNL     1      44.780   4.211  11.483  0.00  0.00    +0.000 A 
ATOM      4  C   UNL     1      44.896   5.381  10.752  0.00  0.00    +0.000 A 
ATOM      5  N   UNL     1      45.382   6.534  11.287  0.00  0.00    +0.000 NA
ATOM      6  C   UNL     1      45.754   6.495  12.584  0.00  0.00    +0.000 A 
ATOM      7  C   UNL     1      45.646   5.292  13.300  0.00  0.00    +0.000 A 
ATOM      8  N   UNL     1      45.166   4.128  12.786  0.00  0.00    +0.000 NA
BRANCH   3  10
ATOM      9  N   UNL     1      43.422   2.210  11.677  0.00  0.00    +0.000 N 
ATOM     10  C   UNL     1      44.176   3.004  10.858  0.00  0.00    +0.000 C 
ATOM     11  O   UNL     1      44.330   2.740   9.669  0.00  0.00    +0.000 OA
ATOM     12  H   UNL     1      42.937   1.418  11.281  0.00  0.00    +0.000 HD
ATOM     13  H   UNL     1      43.227   2.503  12.627  0.00  0.00    +0.000 HD
ENDBRANCH   3  10
ENDBRANCH   1   6
BRANCH   1  14
ATOM     14  C   UNL     1      47.532   8.037  13.191  0.00  0.00    +0.000 C 
BRANCH  14  15
ATOM     15  C   UNL     1      48.112   7.945  14.584  0.00  0.00    +0.000 A 
ATOM     16  C   UNL     1      48.167   9.040  15.442  0.00  0.00    +0.000 A 
ATOM     17  C   UNL     1      48.679   8.849  16.715  0.00  0.00    +0.000 A 
ATOM     18  N   UNL     1      49.140   7.666  17.178  0.00  0.00    +0.000 NA
ATOM     19  C   UNL     1      49.102   6.600  16.341  0.00  0.00    +0.000 A 
ATOM     20  C   UNL     1      48.579   6.710  15.053  0.00  0.00    +0.000 A 
BRANCH  19  21
ATOM     21  C   UNL     1      49.640   5.336  16.866  0.00  0.00    +0.000 A 
ATOM     22  C   UNL     1      50.991   5.175  17.213  0.00  0.00    +0.000 A 
ATOM     23  C   UNL     1      51.464   3.955  17.689  0.00  0.00    +0.000 A 
ATOM     24  C   UNL     1      50.568   2.910  17.816  0.00  0.00    +0.000 A 
ATOM     25  N   UNL     1      49.258   3.010  17.511  0.00  0.00    +0.000 NA
ATOM     26  C   UNL     1      48.829   4.215  17.053  0.00  0.00    +0.000 A 
ENDBRANCH  19  21
ENDBRANCH  14  15
ENDBRANCH   1  14
TORSDOF 5
ENDMDL
MODEL 9
REMARK VINA RESULT:    -5.729      4.727      7.594
REMARK INTER + INTRA:          -7.927
REMARK INTER:                  -7.302
REMARK INTRA:                  -0.625
REMARK UNBOUND:                -0.523
REMARK  Name = 
REMARK  5 active torsions:
REMARK  status: ('A' for Active; 'I' for Inactive)
REMARK    1  A    between atoms: C_2  and  C_4
REMARK    2  A    between atoms: C_7  and  N_8
REMARK    3  A    between atoms: N_8  and  C_9
REMARK    4  A    between atoms: C_9  and  C_10
REMARK    5  A    between atoms: C_14  and  C_15
REMARK                            x       y       z     vdW  Elec       q    Type
REMARK                         _______ _______ _______ _____ _____    ______ ____
ROOT
ATOM      1  N   UNL     1      46.714   4.310  15.757  0.00  0.00    +0.000 N 
ATOM      2  H   UNL     1      46.019   5.038  15.631  0.00  0.00    +0.000 HD
ENDROOT
BRANCH   1   6
ATOM      3  C   UNL     1      49.678   5.126  18.481  0.00  0.00    +0.000 A 
ATOM      4  C   UNL     1      49.861   5.395  17.134  0.00  0.00    +0.000 A 
ATOM      5  N   UNL     1      48.887   5.186  16.206  0.00  0.00    +0.000 NA
ATOM      6  C   UNL     1      47.714   4.694  16.656  0.00  0.00    +0.000 A 
ATOM      7  C   UNL     1      47.545   4.447  18.027  0.00  0.00    +0.000 A 
ATOM      8  N   UNL     1      48.502   4.650  18.972  0.00  0.00    +0.000 NA
BRANCH   3  10
ATOM      9  N   UNL     1      50.803   4.509  20.539  0.00  0.00    +0.000 N 
ATOM     10  C   UNL     1      50.806   5.312  19.432  0.00  0.00    +0.000 C 
ATOM     11  O   UNL     1      51.701   6.127  19.231  0.00  0.00    +0.000 OA
ATOM     12  H   UNL     1      51.584   4.553  21.179  0.00  0.00    +0.000 HD
ATOM     13  H   UNL     1      50.110   3.776  20.632  0.00  0.00    +0.000 HD
ENDBRANCH   3  10
ENDBRANCH   1   6
BRANCH   1  14
ATOM     14  C   UNL     1      47.159   3.734  14.493  0.00  0.00    +0.000 C 
BRANCH  14  15
ATOM     15  C   UNL     1      46.341   4.341  13.376  0.00  0.00    +0.000 A 
ATOM     16  C   UNL     1      45.558   3.570  12.521  0.00  0.00    +0.000 A 
ATOM     17  C   UNL     1      44.811   4.220  11.552  0.00  0.00    +0.000 A 
ATOM     18  N   UNL     1      44.799   5.561  11.376  0.00  0.00    +0.000 NA
ATOM     19  C   UNL     1      45.571   6.315  12.197  0.00  0.00    +0.000 A 
ATOM     20  C   UNL     1      46.332   5.733  13.209  0.00  0.00    +0.000 A 
BRANCH  19  21
ATOM     21  C   UNL     1      45.558   7.765  11.957  0.00  0.00    +0.000 A 
ATOM     22  C   UNL     1      46.625   8.601  12.321  0.00  0.00    +0.000 A 
ATOM     23  C   UNL     1      46.564   9.974  12.092  0.00  0.00    +0.000 A 
ATOM     24  C   UNL     1      45.430  10.489  11.496  0.00  0.00    +0.000 A 
ATOM     25  N   UNL     1      44.380   9.734  11.114  0.00  0.00    +0.000 NA
ATOM     26  C   UNL     1      44.473   8.398  11.347  0.00  0.00    +0.000 A 
ENDBRANCH  19  21
ENDBRANCH  14  15
ENDBRANCH   1  14
TORSDOF 5
ENDMDL
