MODEL 1
REMARK VINA RESULT:    -8.356      0.000      0.000
REMARK INTER + INTRA:         -12.114
REMARK INTER:                 -11.287
REMARK INTRA:                  -0.827
REMARK UNBOUND:                -0.827
REMARK  Name = 
REMARK  7 active torsions:
REMARK  status: ('A' for Active; 'I' for Inactive)
REMARK    1  A    between atoms: C_1  and  C_2
REMARK    2  A    between atoms: C_2  and  C_3
REMARK    3  A    between atoms: C_7  and  C_8
REMARK    4  A    between atoms: C_8  and  C_9
REMARK    5  A    between atoms: C_9  and  N_10
REMARK    6  A    between atoms: N_10  and  C_11
REMARK    7  A    between atoms: C_14  and  C_15
REMARK                            x       y       z     vdW  Elec       q    Type
REMARK                         _______ _______ _______ _____ _____    ______ ____
ROOT
ATOM      1  C   UNL     1      43.077   4.357  11.085  0.00  0.00    +0.000 C 
ENDROOT
BRANCH   1   2
ATOM      2  N   UNL     1      43.719   4.917   9.885  0.00  0.00    +0.000 N 
ATOM      3  H   UNL     1      44.164   5.814  10.059  0.00  0.00    +0.000 HD
BRANCH   2   4
ATOM      4  C   UNL     1      44.573   4.049   9.173  0.00  0.00    +0.000 A 
ATOM      5  C   UNL     1      45.552   4.515   8.288  0.00  0.00    +0.000 A 
ATOM      6  C   UNL     1      46.422   3.642   7.629  0.00  0.00    +0.000 A 
ATOM      7  C   UNL     1      46.363   2.273   7.882  0.00  0.00    +0.000 A 
ATOM      8  C   UNL     1      45.425   1.783   8.791  0.00  0.00    +0.000 A 
ATOM      9  C   UNL     1      44.547   2.672   9.444  0.00  0.00    +0.000 A 
BRANCH   7  10
ATOM     10  C   UNL     1      47.317   1.401   7.145  0.00  0.00    +0.000 C 
ATOM     11  N   UNL     1      48.368   2.004   6.511  0.00  0.00    +0.000 N 
ATOM     12  O   UNL     1      47.156   0.192   7.073  0.00  0.00    +0.000 OA
ATOM     13  H   UNL     1      48.456   3.002   6.399  0.00  0.00    +0.000 HD
ATOM     14  H   UNL     1      48.944   1.403   5.933  0.00  0.00    +0.000 HD
ENDBRANCH   7  10
ENDBRANCH   2   4
ENDBRANCH   1   2
BRANCH   1  15
ATOM     15  C   UNL     1      43.310   5.236  12.320  0.00  0.00    +0.000 C 
BRANCH  15  20
ATOM     16  C   UNL     1      46.814   6.672  12.905  0.00  0.00    +0.000 A 
ATOM     17  C   UNL     1      47.447   5.549  13.474  0.00  0.00    +0.000 A 
ATOM     18  C   UNL     1      46.777   4.335  13.631  0.00  0.00    +0.000 A 
ATOM     19  C   UNL     1      45.445   4.218  13.238  0.00  0.00    +0.000 A 
ATOM     20  C   UNL     1      44.785   5.308  12.662  0.00  0.00    +0.000 A 
ATOM     21  C   UNL     1      45.485   6.515  12.479  0.00  0.00    +0.000 A 
BRANCH  16  23
ATOM     22  C   UNL     1      46.505   9.139  12.751  0.00  0.00    +0.000 C 
ATOM     23  C   UNL     1      47.555   8.019  12.865  0.00  0.00    +0.000 C 
ATOM     24  C   UNL     1      48.462   8.194  14.088  0.00  0.00    +0.000 C 
ATOM     25  C   UNL     1      49.839   7.743  13.623  0.00  0.00    +0.000 C 
ATOM     26  O   UNL     1      49.794   7.575  12.202  0.00  0.00    +0.000 OA
ATOM     27  C   UNL     1      48.591   8.198  11.742  0.00  0.00    +0.000 C 
ENDBRANCH  16  23
ENDBRANCH  15  20
ENDBRANCH   1  15
TORSDOF 6
ENDMDL
MODEL 2
REMARK VINA RESULT:    -8.182      1.166      2.017
REMARK INTER + INTRA:         -11.878
REMARK INTER:                 -10.894
REMARK INTRA:                  -0.984
REMARK UNBOUND:                -0.827
REMARK  Name = 
REMARK  7 active torsions:
REMARK  status: ('A' for Active; 'I' for Inactive)
REMARK    1  A    between atoms: C_1  and  C_2
REMARK    2  A    between atoms: C_2  and  C_3
REMARK    3  A    between atoms: C_7  and  C_8
REMARK    4  A    between atoms: C_8  and  C_9
REMARK    5  A    between atoms: C_9  and  N_10
REMARK    6  A    between atoms: N_10  and  C_11
REMARK    7  A    between atoms: C_14  and  C_15
REMARK                            x       y       z     vdW  Elec       q    Type
REMARK                         _______ _______ _______ _____ _____    ______ ____
ROOT
ATOM      1  C   UNL     1      43.912   5.118  11.296  0.00  0.00    +0.000 C 
ENDROOT
BRANCH   1   2
ATOM      2  N   UNL     1      43.670   4.834   9.872  0.00  0.00    +0.000 N 
ATOM      3  H   UNL     1      43.488   5.675   9.330  0.00  0.00    +0.000 HD
BRANCH   2   4
ATOM      4  C   UNL     1      44.614   4.004   9.233  0.00  0.00    +0.000 A 
ATOM      5  C   UNL     1      44.578   2.608   9.335  0.00  0.00    +0.000 A 
ATOM      6  C   UNL     1      45.492   1.798   8.655  0.00  0.00    +0.000 A 
ATOM      7  C   UNL     1      46.441   2.372   7.810  0.00  0.00    +0.000 A 
ATOM      8  C   UNL     1      46.473   3.759   7.657  0.00  0.00    +0.000 A 
ATOM      9  C   UNL     1      45.551   4.566   8.354  0.00  0.00    +0.000 A 
BRANCH   7  10
ATOM     10  C   UNL     1      47.383   1.453   7.119  0.00  0.00    +0.000 C 
ATOM     11  N   UNL     1      48.438   2.010   6.450  0.00  0.00    +0.000 N 
ATOM     12  O   UNL     1      47.210   0.243   7.112  0.00  0.00    +0.000 OA
ATOM     13  H   UNL     1      48.535   2.999   6.283  0.00  0.00    +0.000 HD
ATOM     14  H   UNL     1      49.005   1.373   5.902  0.00  0.00    +0.000 HD
ENDBRANCH   7  10
ENDBRANCH   2   4
ENDBRANCH   1   2
BRANCH   1  15
ATOM     15  C   UNL     1      44.527   6.508  11.506  0.00  0.00    +0.000 C 
BRANCH  15  20
ATOM     16  C   UNL     1      48.141   7.322  12.485  0.00  0.00    +0.000 A 
ATOM     17  C   UNL     1      48.330   6.387  13.522  0.00  0.00    +0.000 A 
ATOM     18  C   UNL     1      47.332   5.479  13.877  0.00  0.00    +0.000 A 
ATOM     19  C   UNL     1      46.106   5.495  13.213  0.00  0.00    +0.000 A 
ATOM     20  C   UNL     1      45.884   6.403  12.173  0.00  0.00    +0.000 A 
ATOM     21  C   UNL     1      46.913   7.289  11.804  0.00  0.00    +0.000 A 
BRANCH  16  23
ATOM     22  C   UNL     1      50.309   7.738  11.329  0.00  0.00    +0.000 C 
ATOM     23  C   UNL     1      49.224   8.380  12.213  0.00  0.00    +0.000 C 
ATOM     24  C   UNL     1      48.626   9.641  11.577  0.00  0.00    +0.000 C 
ATOM     25  C   UNL     1      48.387  10.592  12.741  0.00  0.00    +0.000 C 
ATOM     26  O   UNL     1      49.026  10.044  13.899  0.00  0.00    +0.000 OA
ATOM     27  C   UNL     1      49.897   9.003  13.447  0.00  0.00    +0.000 C 
ENDBRANCH  16  23
ENDBRANCH  15  20
ENDBRANCH   1  15
TORSDOF 6
ENDMDL
MODEL 3
REMARK VINA RESULT:    -7.942      2.387      3.321
REMARK INTER + INTRA:         -11.555
REMARK INTER:                 -10.888
REMARK INTRA:                  -0.667
REMARK UNBOUND:                -0.827
REMARK  Name = 
REMARK  7 active torsions:
REMARK  status: ('A' for Active; 'I' for Inactive)
REMARK    1  A    between atoms: C_1  and  C_2
REMARK    2  A    between atoms: C_2  and  C_3
REMARK    3  A    between atoms: C_7  and  C_8
REMARK    4  A    between atoms: C_8  and  C_9
REMARK    5  A    between atoms: C_9  and  N_10
REMARK    6  A    between atoms: N_10  and  C_11
REMARK    7  A    between atoms: C_14  and  C_15
REMARK                            x       y       z     vdW  Elec       q    Type
REMARK                         _______ _______ _______ _____ _____    ______ ____
ROOT
ATOM      1  C   UNL     1      44.587   5.478  11.312  0.00  0.00    +0.000 C 
ENDROOT
BRANCH   1   2
ATOM      2  N   UNL     1      43.905   4.748  10.231  0.00  0.00    +0.000 N 
ATOM      3  H   UNL     1      43.253   5.332   9.714  0.00  0.00    +0.000 HD
BRANCH   2   4
ATOM      4  C   UNL     1      44.731   4.004   9.364  0.00  0.00    +0.000 A 
ATOM      5  C   UNL     1      45.631   4.610   8.479  0.00  0.00    +0.000 A 
ATOM      6  C   UNL     1      46.477   3.855   7.661  0.00  0.00    +0.000 A 
ATOM      7  C   UNL     1      46.476   2.464   7.749  0.00  0.00    +0.000 A 
ATOM      8  C   UNL     1      45.619   1.835   8.653  0.00  0.00    +0.000 A 
ATOM      9  C   UNL     1      44.764   2.606   9.466  0.00  0.00    +0.000 A 
BRANCH   7  10
ATOM     10  C   UNL     1      47.401   1.723   6.850  0.00  0.00    +0.000 C 
ATOM     11  N   UNL     1      48.494   2.391   6.374  0.00  0.00    +0.000 N 
ATOM     12  O   UNL     1      47.180   0.569   6.514  0.00  0.00    +0.000 OA
ATOM     13  H   UNL     1      48.635   3.384   6.483  0.00  0.00    +0.000 HD
ATOM     14  H   UNL     1      49.051   1.901   5.684  0.00  0.00    +0.000 HD
ENDBRANCH   7  10
ENDBRANCH   2   4
ENDBRANCH   1   2
BRANCH   1  15
ATOM     15  C   UNL     1      45.056   4.539  12.429  0.00  0.00    +0.000 C 
BRANCH  15  20
ATOM     16  C   UNL     1      47.524   5.149  15.297  0.00  0.00    +0.000 A 
ATOM     17  C   UNL     1      48.229   6.256  14.782  0.00  0.00    +0.000 A 
ATOM     18  C   UNL     1      47.893   6.827  13.554  0.00  0.00    +0.000 A 
ATOM     19  C   UNL     1      46.852   6.293  12.797  0.00  0.00    +0.000 A 
ATOM     20  C   UNL     1      46.124   5.200  13.278  0.00  0.00    +0.000 A 
ATOM     21  C   UNL     1      46.453   4.657  14.534  0.00  0.00    +0.000 A 
BRANCH  16  23
ATOM     22  C   UNL     1      48.111   2.965  16.342  0.00  0.00    +0.000 C 
ATOM     23  C   UNL     1      48.009   4.481  16.594  0.00  0.00    +0.000 C 
ATOM     24  C   UNL     1      49.337   5.081  17.070  0.00  0.00    +0.000 C 
ATOM     25  C   UNL     1      48.945   6.137  18.093  0.00  0.00    +0.000 C 
ATOM     26  O   UNL     1      47.551   5.982  18.378  0.00  0.00    +0.000 OA
ATOM     27  C   UNL     1      47.150   4.715  17.847  0.00  0.00    +0.000 C 
ENDBRANCH  16  23
ENDBRANCH  15  20
ENDBRANCH   1  15
TORSDOF 6
ENDMDL
MODEL 4
REMARK VINA RESULT:    -7.760      0.976      2.247
REMARK INTER + INTRA:         -11.309
REMARK INTER:                 -10.569
REMARK INTRA:                  -0.740
REMARK UNBOUND:                -0.827
REMARK  Name = 
REMARK  7 active torsions:
REMARK  status: ('A' for Active; 'I' for Inactive)
REMARK    1  A    between atoms: C_1  and  C_2
REMARK    2  A    between atoms: C_2  and  C_3
REMARK    3  A    between atoms: C_7  and  C_8
REMARK    4  A    between atoms: C_8  and  C_9
REMARK    5  A    between atoms: C_9  and  N_10
REMARK    6  A    between atoms: N_10  and  C_11
REMARK    7  A    between atoms: C_14  and  C_15
REMARK                            x       y       z     vdW  Elec       q    Type
REMARK                         _______ _______ _______ _____ _____    ______ ____
ROOT
ATOM      1  C   UNL     1      43.828   4.845  11.447  0.00  0.00    +0.000 C 
ENDROOT
BRANCH   1   2
ATOM      2  N   UNL     1      43.695   4.789   9.982  0.00  0.00    +0.000 N 
ATOM      3  H   UNL     1      43.642   5.710   9.557  0.00  0.00    +0.000 HD
BRANCH   2   4
ATOM      4  C   UNL     1      44.612   3.960   9.305  0.00  0.00    +0.000 A 
ATOM      5  C   UNL     1      44.595   2.565   9.422  0.00  0.00    +0.000 A 
ATOM      6  C   UNL     1      45.482   1.756   8.704  0.00  0.00    +0.000 A 
ATOM      7  C   UNL     1      46.381   2.330   7.807  0.00  0.00    +0.000 A 
ATOM      8  C   UNL     1      46.392   3.715   7.638  0.00  0.00    +0.000 A 
ATOM      9  C   UNL     1      45.499   4.522   8.374  0.00  0.00    +0.000 A 
BRANCH   7  10
ATOM     10  C   UNL     1      47.296   1.412   7.077  0.00  0.00    +0.000 C 
ATOM     11  N   UNL     1      48.370   1.964   6.435  0.00  0.00    +0.000 N 
ATOM     12  O   UNL     1      47.083   0.210   7.017  0.00  0.00    +0.000 OA
ATOM     13  H   UNL     1      48.499   2.956   6.313  0.00  0.00    +0.000 HD
ATOM     14  H   UNL     1      48.918   1.334   5.862  0.00  0.00    +0.000 HD
ENDBRANCH   7  10
ENDBRANCH   2   4
ENDBRANCH   1   2
BRANCH   1  15
ATOM     15  C   UNL     1      45.297   4.838  11.888  0.00  0.00    +0.000 C 
BRANCH  15  20
ATOM     16  C   UNL     1      47.560   7.709  13.034  0.00  0.00    +0.000 A 
ATOM     17  C   UNL     1      46.672   8.794  12.890  0.00  0.00    +0.000 A 
ATOM     18  C   UNL     1      45.354   8.606  12.472  0.00  0.00    +0.000 A 
ATOM     19  C   UNL     1      44.893   7.326  12.169  0.00  0.00    +0.000 A 
ATOM     20  C   UNL     1      45.743   6.224  12.308  0.00  0.00    +0.000 A 
ATOM     21  C   UNL     1      47.059   6.426  12.763  0.00  0.00    +0.000 A 
BRANCH  16  23
ATOM     22  C   UNL     1      49.393   7.154  14.629  0.00  0.00    +0.000 C 
ATOM     23  C   UNL     1      49.034   7.980  13.379  0.00  0.00    +0.000 C 
ATOM     24  C   UNL     1      49.953   7.666  12.192  0.00  0.00    +0.000 C 
ATOM     25  C   UNL     1      50.163   9.003  11.496  0.00  0.00    +0.000 C 
ATOM     26  O   UNL     1      49.639  10.032  12.343  0.00  0.00    +0.000 OA
ATOM     27  C   UNL     1      49.421   9.447  13.630  0.00  0.00    +0.000 C 
ENDBRANCH  16  23
ENDBRANCH  15  20
ENDBRANCH   1  15
TORSDOF 6
ENDMDL
MODEL 5
REMARK VINA RESULT:    -6.721      4.689      7.782
REMARK INTER + INTRA:          -9.905
REMARK INTER:                  -9.172
REMARK INTRA:                  -0.733
REMARK UNBOUND:                -0.827
REMARK  Name = 
REMARK  7 active torsions:
REMARK  status: ('A' for Active; 'I' for Inactive)
REMARK    1  A    between atoms: C_1  and  C_2
REMARK    2  A    between atoms: C_2  and  C_3
REMARK    3  A    between atoms: C_7  and  C_8
REMARK    4  A    between atoms: C_8  and  C_9
REMARK    5  A    between atoms: C_9  and  N_10
REMARK    6  A    between atoms: N_10  and  C_11
REMARK    7  A    between atoms: C_14  and  C_15
REMARK                            x       y       z     vdW  Elec       q    Type
REMARK                         _______ _______ _______ _____ _____    ______ ____
ROOT
ATOM      1  C   UNL     1      47.007   4.737  15.249  0.00  0.00    +0.000 C 
ENDROOT
BRANCH   1   2
ATOM      2  N   UNL     1      47.541   4.761  16.620  0.00  0.00    +0.000 N 
ATOM      3  H   UNL     1      46.830   4.574  17.321  0.00  0.00    +0.000 HD
BRANCH   2   4
ATOM      4  C   UNL     1      48.704   3.998  16.848  0.00  0.00    +0.000 A 
ATOM      5  C   UNL     1      49.863   4.543  17.414  0.00  0.00    +0.000 A 
ATOM      6  C   UNL     1      50.990   3.759  17.679  0.00  0.00    +0.000 A 
ATOM      7  C   UNL     1      50.963   2.389  17.427  0.00  0.00    +0.000 A 
ATOM      8  C   UNL     1      49.807   1.810  16.902  0.00  0.00    +0.000 A 
ATOM      9  C   UNL     1      48.679   2.612  16.631  0.00  0.00    +0.000 A 
BRANCH   7  10
ATOM     10  C   UNL     1      52.197   1.615  17.731  0.00  0.00    +0.000 C 
ATOM     11  N   UNL     1      52.048   0.326  18.160  0.00  0.00    +0.000 N 
ATOM     12  O   UNL     1      53.308   2.118  17.639  0.00  0.00    +0.000 OA
ATOM     13  H   UNL     1      51.161  -0.081  18.411  0.00  0.00    +0.000 HD
ATOM     14  H   UNL     1      52.894  -0.146  18.458  0.00  0.00    +0.000 HD
ENDBRANCH   7  10
ENDBRANCH   2   4
ENDBRANCH   1   2
BRANCH   1  15
ATOM     15  C   UNL     1      47.667   5.796  14.358  0.00  0.00    +0.000 C 
BRANCH  15  20
ATOM     16  C   UNL     1      44.838   5.737  11.774  0.00  0.00    +0.000 A 
ATOM     17  C   UNL     1      44.807   7.099  11.414  0.00  0.00    +0.000 A 
ATOM     18  C   UNL     1      45.705   8.018  11.957  0.00  0.00    +0.000 A 
ATOM     19  C   UNL     1      46.651   7.600  12.893  0.00  0.00    +0.000 A 
ATOM     20  C   UNL     1      46.718   6.256  13.270  0.00  0.00    +0.000 A 
ATOM     21  C   UNL     1      45.827   5.335  12.687  0.00  0.00    +0.000 A 
BRANCH  16  23
ATOM     22  C   UNL     1      42.380   5.338  11.678  0.00  0.00    +0.000 C 
ATOM     23  C   UNL     1      43.751   4.788  11.242  0.00  0.00    +0.000 C 
ATOM     24  C   UNL     1      43.852   4.620   9.721  0.00  0.00    +0.000 C 
ATOM     25  C   UNL     1      44.664   3.348   9.521  0.00  0.00    +0.000 C 
ATOM     26  O   UNL     1      44.793   2.700  10.791  0.00  0.00    +0.000 OA
ATOM     27  C   UNL     1      43.853   3.317  11.677  0.00  0.00    +0.000 C 
ENDBRANCH  16  23
ENDBRANCH  15  20
ENDBRANCH   1  15
TORSDOF 6
ENDMDL
MODEL 6
REMARK VINA RESULT:    -6.668      3.596      5.876
REMARK INTER + INTRA:          -9.834
REMARK INTER:                  -8.799
REMARK INTRA:                  -1.035
REMARK UNBOUND:                -0.827
REMARK  Name = 
REMARK  7 active torsions:
REMARK  status: ('A' for Active; 'I' for Inactive)
REMARK    1  A    between atoms: C_1  and  C_2
REMARK    2  A    between atoms: C_2  and  C_3
REMARK    3  A    between atoms: C_7  and  C_8
REMARK    4  A    between atoms: C_8  and  C_9
REMARK    5  A    between atoms: C_9  and  N_10
REMARK    6  A    between atoms: N_10  and  C_11
REMARK    7  A    between atoms: C_14  and  C_15
REMARK                            x       y       z     vdW  Elec       q    Type
REMARK                         _______ _______ _______ _____ _____    ______ ____
ROOT
ATOM      1  C   UNL     1      48.350   7.273  13.471  0.00  0.00    +0.000 C 
ENDROOT
BRANCH   1   2
ATOM      2  N   UNL     1      46.880   7.234  13.527  0.00  0.00    +0.000 N 
ATOM      3  H   UNL     1      46.454   8.118  13.263  0.00  0.00    +0.000 HD
BRANCH   2   4
ATOM      4  C   UNL     1      46.260   6.148  12.876  0.00  0.00    +0.000 A 
ATOM      5  C   UNL     1      46.022   4.924  13.513  0.00  0.00    +0.000 A 
ATOM      6  C   UNL     1      45.362   3.875  12.867  0.00  0.00    +0.000 A 
ATOM      7  C   UNL     1      44.877   4.047  11.572  0.00  0.00    +0.000 A 
ATOM      8  C   UNL     1      45.063   5.271  10.926  0.00  0.00    +0.000 A 
ATOM      9  C   UNL     1      45.737   6.319  11.585  0.00  0.00    +0.000 A 
BRANCH   7  10
ATOM     10  C   UNL     1      44.186   2.890  10.943  0.00  0.00    +0.000 C 
ATOM     11  N   UNL     1      44.815   2.262   9.905  0.00  0.00    +0.000 N 
ATOM     12  O   UNL     1      43.077   2.529  11.311  0.00  0.00    +0.000 OA
ATOM     13  H   UNL     1      45.645   2.618   9.456  0.00  0.00    +0.000 HD
ATOM     14  H   UNL     1      44.282   1.545   9.427  0.00  0.00    +0.000 HD
ENDBRANCH   7  10
ENDBRANCH   2   4
ENDBRANCH   1   2
BRANCH   1  15
ATOM     15  C   UNL     1      48.945   8.100  14.617  0.00  0.00    +0.000 C 
BRANCH  15  20
ATOM     16  C   UNL     1      49.730   5.246  17.050  0.00  0.00    +0.000 A 
ATOM     17  C   UNL     1      51.119   5.431  17.205  0.00  0.00    +0.000 A 
ATOM     18  C   UNL     1      51.789   6.480  16.574  0.00  0.00    +0.000 A 
ATOM     19  C   UNL     1      51.090   7.363  15.754  0.00  0.00    +0.000 A 
ATOM     20  C   UNL     1      49.710   7.216  15.582  0.00  0.00    +0.000 A 
ATOM     21  C   UNL     1      49.042   6.174  16.252  0.00  0.00    +0.000 A 
BRANCH  16  23
ATOM     22  C   UNL     1      48.960   4.223  19.187  0.00  0.00    +0.000 C 
ATOM     23  C   UNL     1      49.059   4.007  17.666  0.00  0.00    +0.000 C 
ATOM     24  C   UNL     1      47.691   3.737  17.027  0.00  0.00    +0.000 C 
ATOM     25  C   UNL     1      47.962   2.703  15.943  0.00  0.00    +0.000 C 
ATOM     26  O   UNL     1      49.301   2.225  16.112  0.00  0.00    +0.000 OA
ATOM     27  C   UNL     1      49.743   2.656  17.403  0.00  0.00    +0.000 C 
ENDBRANCH  16  23
ENDBRANCH  15  20
ENDBRANCH   1  15
TORSDOF 6
ENDMDL
MODEL 7
REMARK VINA RESULT:    -6.590      4.204      6.525
REMARK INTER + INTRA:          -9.729
REMARK INTER:                  -8.303
REMARK INTRA:                  -1.426
REMARK UNBOUND:                -0.827
REMARK  Name = 
REMARK  7 active torsions:
REMARK  status: ('A' for Active; 'I' for Inactive)
REMARK    1  A    between atoms: C_1  and  C_2
REMARK    2  A    between atoms: C_2  and  C_3
REMARK    3  A    between atoms: C_7  and  C_8
REMARK    4  A    between atoms: C_8  and  C_9
REMARK    5  A    between atoms: C_9  and  N_10
REMARK    6  A    between atoms: N_10  and  C_11
REMARK    7  A    between atoms: C_14  and  C_15
REMARK                            x       y       z     vdW  Elec       q    Type
REMARK                         _______ _______ _______ _____ _____    ______ ____
ROOT
ATOM      1  C   UNL     1      49.118   8.110  13.179  0.00  0.00    +0.000 C 
ENDROOT
BRANCH   1   2
ATOM      2  N   UNL     1      48.712   6.806  12.631  0.00  0.00    +0.000 N 
ATOM      3  H   UNL     1      49.276   6.038  12.986  0.00  0.00    +0.000 HD
BRANCH   2   4
ATOM      4  C   UNL     1      47.336   6.505  12.692  0.00  0.00    +0.000 A 
ATOM      5  C   UNL     1      46.371   7.253  12.007  0.00  0.00    +0.000 A 
ATOM      6  C   UNL     1      45.016   6.911  12.040  0.00  0.00    +0.000 A 
ATOM      7  C   UNL     1      44.600   5.772  12.726  0.00  0.00    +0.000 A 
ATOM      8  C   UNL     1      45.545   4.984  13.384  0.00  0.00    +0.000 A 
ATOM      9  C   UNL     1      46.908   5.343  13.351  0.00  0.00    +0.000 A 
BRANCH   7  10
ATOM     10  C   UNL     1      43.144   5.467  12.721  0.00  0.00    +0.000 C 
ATOM     11  N   UNL     1      42.370   6.079  11.775  0.00  0.00    +0.000 N 
ATOM     12  O   UNL     1      42.642   4.725  13.553  0.00  0.00    +0.000 OA
ATOM     13  H   UNL     1      42.700   6.820  11.176  0.00  0.00    +0.000 HD
ATOM     14  H   UNL     1      41.370   5.937  11.856  0.00  0.00    +0.000 HD
ENDBRANCH   7  10
ENDBRANCH   2   4
ENDBRANCH   1   2
BRANCH   1  15
ATOM     15  C   UNL     1      48.697   8.270  14.645  0.00  0.00    +0.000 C 
BRANCH  15  20
ATOM     16  C   UNL     1      49.700   5.475  17.067  0.00  0.00    +0.000 A 
ATOM     17  C   UNL     1      51.099   5.642  17.068  0.00  0.00    +0.000 A 
ATOM     18  C   UNL     1      51.712   6.661  16.339  0.00  0.00    +0.000 A 
ATOM     19  C   UNL     1      50.940   7.532  15.570  0.00  0.00    +0.000 A 
ATOM     20  C   UNL     1      49.549   7.402  15.550  0.00  0.00    +0.000 A 
ATOM     21  C   UNL     1      48.942   6.391  16.319  0.00  0.00    +0.000 A 
BRANCH  16  23
ATOM     22  C   UNL     1      49.033   4.580  19.295  0.00  0.00    +0.000 C 
ATOM     23  C   UNL     1      49.082   4.265  17.788  0.00  0.00    +0.000 C 
ATOM     24  C   UNL     1      47.699   3.923  17.221  0.00  0.00    +0.000 C 
ATOM     25  C   UNL     1      47.956   2.825  16.198  0.00  0.00    +0.000 C 
ATOM     26  O   UNL     1      49.311   2.389  16.347  0.00  0.00    +0.000 OA
ATOM     27  C   UNL     1      49.789   2.915  17.589  0.00  0.00    +0.000 C 
ENDBRANCH  16  23
ENDBRANCH  15  20
ENDBRANCH   1  15
TORSDOF 6
ENDMDL
MODEL 8
REMARK VINA RESULT:    -6.548      5.098      8.005
REMARK INTER + INTRA:          -9.671
REMARK INTER:                  -8.842
REMARK INTRA:                  -0.829
REMARK UNBOUND:                -0.827
REMARK  Name = 
REMARK  7 active torsions:
REMARK  status: ('A' for Active; 'I' for Inactive)
REMARK    1  A    between atoms: C_1  and  C_2
REMARK    2  A    between atoms: C_2  and  C_3
REMARK    3  A    between atoms: C_7  and  C_8
REMARK    4  A    between atoms: C_8  and  C_9
REMARK    5  A    between atoms: C_9  and  N_10
REMARK    6  A    between atoms: N_10  and  C_11
REMARK    7  A    between atoms: C_14  and  C_15
REMARK                            x       y       z     vdW  Elec       q    Type
REMARK                         _______ _______ _______ _____ _____    ______ ____
ROOT
ATOM      1  C   UNL     1      47.424   4.670  15.852  0.00  0.00    +0.000 C 
ENDROOT
BRANCH   1   2
ATOM      2  N   UNL     1      47.945   4.545  17.222  0.00  0.00    +0.000 N 
ATOM      3  H   UNL     1      47.228   4.280  17.892  0.00  0.00    +0.000 HD
BRANCH   2   4
ATOM      4  C   UNL     1      49.108   3.764  17.378  0.00  0.00    +0.000 A 
ATOM      5  C   UNL     1      49.209   2.458  16.883  0.00  0.00    +0.000 A 
ATOM      6  C   UNL     1      50.388   1.716  17.004  0.00  0.00    +0.000 A 
ATOM      7  C   UNL     1      51.519   2.289  17.583  0.00  0.00    +0.000 A 
ATOM      8  C   UNL     1      51.460   3.604  18.047  0.00  0.00    +0.000 A 
ATOM      9  C   UNL     1      50.263   4.340  17.928  0.00  0.00    +0.000 A 
BRANCH   7  10
ATOM     10  C   UNL     1      52.738   1.443  17.680  0.00  0.00    +0.000 C 
ATOM     11  N   UNL     1      52.587   0.159  18.123  0.00  0.00    +0.000 N 
ATOM     12  O   UNL     1      53.846   1.883  17.411  0.00  0.00    +0.000 OA
ATOM     13  H   UNL     1      51.729  -0.201  18.513  0.00  0.00    +0.000 HD
ATOM     14  H   UNL     1      53.441  -0.364  18.278  0.00  0.00    +0.000 HD
ENDBRANCH   7  10
ENDBRANCH   2   4
ENDBRANCH   1   2
BRANCH   1  15
ATOM     15  C   UNL     1      48.123   5.792  15.074  0.00  0.00    +0.000 C 
BRANCH  15  20
ATOM     16  C   UNL     1      45.854   5.229  12.038  0.00  0.00    +0.000 A 
ATOM     17  C   UNL     1      46.312   6.261  11.195  0.00  0.00    +0.000 A 
ATOM     18  C   UNL     1      47.361   7.100  11.574  0.00  0.00    +0.000 A 
ATOM     19  C   UNL     1      47.969   6.940  12.818  0.00  0.00    +0.000 A 
ATOM     20  C   UNL     1      47.547   5.922  13.678  0.00  0.00    +0.000 A 
ATOM     21  C   UNL     1      46.511   5.062  13.268  0.00  0.00    +0.000 A 
BRANCH  16  23
ATOM     22  C   UNL     1      45.103   3.149  10.890  0.00  0.00    +0.000 C 
ATOM     23  C   UNL     1      44.618   4.410  11.629  0.00  0.00    +0.000 C 
ATOM     24  C   UNL     1      43.744   4.073  12.843  0.00  0.00    +0.000 C 
ATOM     25  C   UNL     1      42.672   5.153  12.866  0.00  0.00    +0.000 C 
ATOM     26  O   UNL     1      42.756   5.887  11.639  0.00  0.00    +0.000 OA
ATOM     27  C   UNL     1      43.582   5.129  10.750  0.00  0.00    +0.000 C 
ENDBRANCH  16  23
ENDBRANCH  15  20
ENDBRANCH   1  15
TORSDOF 6
ENDMDL
MODEL 9
REMARK VINA RESULT:    -6.307      4.076      7.428
REMARK INTER + INTRA:          -9.346
REMARK INTER:                  -7.906
REMARK INTRA:                  -1.440
REMARK UNBOUND:                -0.827
REMARK  Name = 
REMARK  7 active torsions:
REMARK  status: ('A' for Active; 'I' for Inactive)
REMARK    1  A    between atoms: C_1  and  C_2
REMARK    2  A    between atoms: C_2  and  C_3
REMARK    3  A    between atoms: C_7  and  C_8
REMARK    4  A    between atoms: C_8  and  C_9
REMARK    5  A    between atoms: C_9  and  N_10
REMARK    6  A    between atoms: N_10  and  C_11
REMARK    7  A    between atoms: C_14  and  C_15
REMARK                            x       y       z     vdW  Elec       q    Type
REMARK                         _______ _______ _______ _____ _____    ______ ____
ROOT
ATOM      1  C   UNL     1      49.997   7.542  13.164  0.00  0.00    +0.000 C 
ENDROOT
BRANCH   1   2
ATOM      2  N   UNL     1      49.999   7.787  14.615  0.00  0.00    +0.000 N 
ATOM      3  H   UNL     1      49.645   8.709  14.857  0.00  0.00    +0.000 HD
BRANCH   2   4
ATOM      4  C   UNL     1      49.416   6.785  15.417  0.00  0.00    +0.000 A 
ATOM      5  C   UNL     1      48.223   6.140  15.067  0.00  0.00    +0.000 A 
ATOM      6  C   UNL     1      47.685   5.114  15.850  0.00  0.00    +0.000 A 
ATOM      7  C   UNL     1      48.364   4.672  16.984  0.00  0.00    +0.000 A 
ATOM      8  C   UNL     1      49.577   5.267  17.333  0.00  0.00    +0.000 A 
ATOM      9  C   UNL     1      50.105   6.307  16.541  0.00  0.00    +0.000 A 
BRANCH   7  10
ATOM     10  C   UNL     1      47.735   3.577  17.771  0.00  0.00    +0.000 C 
ATOM     11  N   UNL     1      48.361   3.182  18.920  0.00  0.00    +0.000 N 
ATOM     12  O   UNL     1      46.715   3.021  17.393  0.00  0.00    +0.000 OA
ATOM     13  H   UNL     1      49.283   3.489  19.189  0.00  0.00    +0.000 HD
ATOM     14  H   UNL     1      47.972   2.369  19.383  0.00  0.00    +0.000 HD
ENDBRANCH   7  10
ENDBRANCH   2   4
ENDBRANCH   1   2
BRANCH   1  15
ATOM     15  C   UNL     1      49.485   8.756  12.379  0.00  0.00    +0.000 C 
BRANCH  15  20
ATOM     16  C   UNL     1      46.024   7.260  11.696  0.00  0.00    +0.000 A 
ATOM     17  C   UNL     1      45.217   8.390  11.936  0.00  0.00    +0.000 A 
ATOM     18  C   UNL     1      45.773   9.626  12.270  0.00  0.00    +0.000 A 
ATOM     19  C   UNL     1      47.155   9.759  12.392  0.00  0.00    +0.000 A 
ATOM     20  C   UNL     1      47.989   8.662  12.154  0.00  0.00    +0.000 A 
ATOM     21  C   UNL     1      47.414   7.431  11.784  0.00  0.00    +0.000 A 
BRANCH  16  23
ATOM     22  C   UNL     1      45.608   5.499   9.983  0.00  0.00    +0.000 C 
ATOM     23  C   UNL     1      45.359   5.895  11.450  0.00  0.00    +0.000 C 
ATOM     24  C   UNL     1      45.876   4.837  12.433  0.00  0.00    +0.000 C 
ATOM     25  C   UNL     1      44.853   4.817  13.560  0.00  0.00    +0.000 C 
ATOM     26  O   UNL     1      43.721   5.590  13.145  0.00  0.00    +0.000 OA
ATOM     27  C   UNL     1      43.851   5.806  11.737  0.00  0.00    +0.000 C 
ENDBRANCH  16  23
ENDBRANCH  15  20
ENDBRANCH   1  15
TORSDOF 6
ENDMDL
