MODEL 1
REMARK VINA RESULT:    -7.798      0.000      0.000
REMARK INTER + INTRA:         -10.925
REMARK INTER:                 -10.077
REMARK INTRA:                  -0.848
REMARK UNBOUND:                -0.848
REMARK  Name = 
REMARK  5 active torsions:
REMARK  status: ('A' for Active; 'I' for Inactive)
REMARK    1  A    between atoms: C_2  and  C_3
REMARK    2  A    between atoms: C_7  and  N_8
REMARK    3  A    between atoms: N_8  and  C_9
REMARK    4  A    between atoms: C_9  and  C_10
REMARK    5  A    between atoms: C_14  and  C_15
REMARK                            x       y       z     vdW  Elec       q    Type
REMARK                         _______ _______ _______ _____ _____    ______ ____
ROOT
ATOM      1  C   UNL     1      44.849   4.293  12.115  0.00  0.00    +0.000 A 
ATOM      2  C   UNL     1      45.666   3.461  12.888  0.00  0.00    +0.000 A 
ATOM      3  C   UNL     1      46.782   3.983  13.540  0.00  0.00    +0.000 A 
ATOM      4  C   UNL     1      47.097   5.339  13.420  0.00  0.00    +0.000 A 
ATOM      5  C   UNL     1      46.312   6.204  12.639  0.00  0.00    +0.000 A 
ATOM      6  C   UNL     1      45.170   5.658  12.020  0.00  0.00    +0.000 A 
ENDROOT
BRANCH   5   7
ATOM      7  C   UNL     1      46.696   7.617  12.423  0.00  0.00    +0.000 A 
ATOM      8  C   UNL     1      48.010   7.981  12.107  0.00  0.00    +0.000 A 
ATOM      9  C   UNL     1      48.305   9.313  11.862  0.00  0.00    +0.000 A 
ATOM     10  N   UNL     1      47.393  10.305  11.903  0.00  0.00    +0.000 NA
ATOM     11  C   UNL     1      46.133   9.960  12.202  0.00  0.00    +0.000 A 
ATOM     12  N   UNL     1      45.177  10.972  12.160  0.00  0.00    +0.000 N 
ATOM     13  C   UNL     1      45.751   8.652  12.466  0.00  0.00    +0.000 A 
ATOM     14  H   UNL     1      45.673  11.849  12.024  0.00  0.00    +0.000 HD
ATOM     15  H   UNL     1      44.589  10.981  12.984  0.00  0.00    +0.000 HD
ENDBRANCH   5   7
BRANCH   1  16
ATOM     16  C   UNL     1      43.667   3.737  11.351  0.00  0.00    +0.000 C 
BRANCH  16  17
ATOM     17  N   UNL     1      43.753   4.084   9.941  0.00  0.00    +0.000 N 
ATOM     18  H   UNL     1      43.405   5.013   9.717  0.00  0.00    +0.000 HD
BRANCH  17  23
ATOM     19  C   UNL     1      46.188   1.986   8.044  0.00  0.00    +0.000 A 
ATOM     20  C   UNL     1      46.838   3.000   7.359  0.00  0.00    +0.000 A 
ATOM     21  N   UNL     1      46.543   4.308   7.520  0.00  0.00    +0.000 NA
ATOM     22  C   UNL     1      45.547   4.600   8.397  0.00  0.00    +0.000 A 
ATOM     23  C   UNL     1      44.828   3.669   9.157  0.00  0.00    +0.000 A 
ATOM     24  C   UNL     1      45.170   2.329   8.939  0.00  0.00    +0.000 A 
BRANCH  19  26
ATOM     25  N   UNL     1      46.840  -0.492   7.646  0.00  0.00    +0.000 NA
ATOM     26  C   UNL     1      46.549   0.618   7.822  0.00  0.00    +0.000 C 
ENDBRANCH  19  26
ENDBRANCH  17  23
ENDBRANCH  16  17
ENDBRANCH   1  16
TORSDOF 5
ENDMDL
MODEL 2
REMARK VINA RESULT:    -7.782      2.063      6.486
REMARK INTER + INTRA:         -10.905
REMARK INTER:                 -10.234
REMARK INTRA:                  -0.671
REMARK UNBOUND:                -0.848
REMARK  Name = 
REMARK  5 active torsions:
REMARK  status: ('A' for Active; 'I' for Inactive)
REMARK    1  A    between atoms: C_2  and  C_3
REMARK    2  A    between atoms: C_7  and  N_8
REMARK    3  A    between atoms: N_8  and  C_9
REMARK    4  A    between atoms: C_9  and  C_10
REMARK    5  A    between atoms: C_14  and  C_15
REMARK                            x       y       z     vdW  Elec       q    Type
REMARK                         _______ _______ _______ _____ _____    ______ ____
ROOT
ATOM      1  C   UNL     1      43.677   4.918  10.771  0.00  0.00    +0.000 A 
ATOM      2  C   UNL     1      43.010   4.008  11.598  0.00  0.00    +0.000 A 
ATOM      3  C   UNL     1      43.230   2.638  11.454  0.00  0.00    +0.000 A 
ATOM      4  C   UNL     1      44.112   2.165  10.479  0.00  0.00    +0.000 A 
ATOM      5  C   UNL     1      44.788   3.046   9.618  0.00  0.00    +0.000 A 
ATOM      6  C   UNL     1      44.575   4.426   9.808  0.00  0.00    +0.000 A 
ENDROOT
BRANCH   5   7
ATOM      7  C   UNL     1      45.643   2.549   8.516  0.00  0.00    +0.000 A 
ATOM      8  C   UNL     1      46.072   1.217   8.463  0.00  0.00    +0.000 A 
ATOM      9  C   UNL     1      46.826   0.791   7.382  0.00  0.00    +0.000 A 
ATOM     10  N   UNL     1      47.181   1.585   6.351  0.00  0.00    +0.000 NA
ATOM     11  C   UNL     1      46.770   2.860   6.398  0.00  0.00    +0.000 A 
ATOM     12  N   UNL     1      47.063   3.656   5.294  0.00  0.00    +0.000 N 
ATOM     13  C   UNL     1      46.015   3.373   7.444  0.00  0.00    +0.000 A 
ATOM     14  H   UNL     1      47.677   3.116   4.689  0.00  0.00    +0.000 HD
ATOM     15  H   UNL     1      47.464   4.548   5.557  0.00  0.00    +0.000 HD
ENDBRANCH   5   7
BRANCH   1  16
ATOM     16  C   UNL     1      43.410   6.404  10.869  0.00  0.00    +0.000 C 
BRANCH  16  17
ATOM     17  N   UNL     1      43.940   6.945  12.110  0.00  0.00    +0.000 N 
ATOM     18  H   UNL     1      43.259   7.012  12.861  0.00  0.00    +0.000 HD
BRANCH  17  23
ATOM     19  C   UNL     1      46.916   5.229  13.570  0.00  0.00    +0.000 A 
ATOM     20  C   UNL     1      47.899   6.072  13.076  0.00  0.00    +0.000 A 
ATOM     21  N   UNL     1      47.628   7.169  12.336  0.00  0.00    +0.000 NA
ATOM     22  C   UNL     1      46.317   7.417  12.079  0.00  0.00    +0.000 A 
ATOM     23  C   UNL     1      45.235   6.651  12.533  0.00  0.00    +0.000 A 
ATOM     24  C   UNL     1      45.579   5.521  13.284  0.00  0.00    +0.000 A 
BRANCH  19  26
ATOM     25  N   UNL     1      47.567   3.148  14.974  0.00  0.00    +0.000 NA
ATOM     26  C   UNL     1      47.274   4.079  14.343  0.00  0.00    +0.000 C 
ENDBRANCH  19  26
ENDBRANCH  17  23
ENDBRANCH  16  17
ENDBRANCH   1  16
TORSDOF 5
ENDMDL
MODEL 3
REMARK VINA RESULT:    -7.582      1.484      2.172
REMARK INTER + INTRA:         -10.646
REMARK INTER:                  -9.927
REMARK INTRA:                  -0.719
REMARK UNBOUND:                -0.848
REMARK  Name = 
REMARK  5 active torsions:
REMARK  status: ('A' for Active; 'I' for Inactive)
REMARK    1  A    between atoms: C_2  and  C_3
REMARK    2  A    between atoms: C_7  and  N_8
REMARK    3  A    between atoms: N_8  and  C_9
REMARK    4  A    between atoms: C_9  and  C_10
REMARK    5  A    between atoms: C_14  and  C_15
REMARK                            x       y       z     vdW  Elec       q    Type
REMARK                         _______ _______ _______ _____ _____    ______ ____
ROOT
ATOM      1  C   UNL     1      44.928   5.341  11.902  0.00  0.00    +0.000 A 
ATOM      2  C   UNL     1      45.120   4.483  12.990  0.00  0.00    +0.000 A 
ATOM      3  C   UNL     1      46.227   4.642  13.822  0.00  0.00    +0.000 A 
ATOM      4  C   UNL     1      47.157   5.654  13.571  0.00  0.00    +0.000 A 
ATOM      5  C   UNL     1      47.010   6.526  12.479  0.00  0.00    +0.000 A 
ATOM      6  C   UNL     1      45.864   6.366  11.675  0.00  0.00    +0.000 A 
ENDROOT
BRANCH   5   7
ATOM      7  C   UNL     1      48.042   7.533  12.147  0.00  0.00    +0.000 A 
ATOM      8  C   UNL     1      47.729   8.892  12.026  0.00  0.00    +0.000 A 
ATOM      9  C   UNL     1      48.743   9.801  11.766  0.00  0.00    +0.000 A 
ATOM     10  N   UNL     1      50.040   9.461  11.623  0.00  0.00    +0.000 NA
ATOM     11  C   UNL     1      50.343   8.161  11.742  0.00  0.00    +0.000 A 
ATOM     12  N   UNL     1      51.693   7.822  11.680  0.00  0.00    +0.000 N 
ATOM     13  C   UNL     1      49.392   7.183  11.996  0.00  0.00    +0.000 A 
ATOM     14  H   UNL     1      52.201   8.662  11.416  0.00  0.00    +0.000 HD
ATOM     15  H   UNL     1      51.867   7.048  11.051  0.00  0.00    +0.000 HD
ENDBRANCH   5   7
BRANCH   1  16
ATOM     16  C   UNL     1      43.767   5.151  10.951  0.00  0.00    +0.000 C 
BRANCH  16  17
ATOM     17  N   UNL     1      43.813   3.836  10.333  0.00  0.00    +0.000 N 
ATOM     18  H   UNL     1      42.900   3.434  10.137  0.00  0.00    +0.000 HD
BRANCH  17  23
ATOM     19  C   UNL     1      46.120   1.937   8.097  0.00  0.00    +0.000 A 
ATOM     20  C   UNL     1      46.580   2.998   7.332  0.00  0.00    +0.000 A 
ATOM     21  N   UNL     1      46.202   4.278   7.541  0.00  0.00    +0.000 NA
ATOM     22  C   UNL     1      45.320   4.490   8.553  0.00  0.00    +0.000 A 
ATOM     23  C   UNL     1      44.797   3.507   9.402  0.00  0.00    +0.000 A 
ATOM     24  C   UNL     1      45.215   2.200   9.129  0.00  0.00    +0.000 A 
BRANCH  19  26
ATOM     25  N   UNL     1      46.918  -0.477   7.587  0.00  0.00    +0.000 NA
ATOM     26  C   UNL     1      46.559   0.603   7.817  0.00  0.00    +0.000 C 
ENDBRANCH  19  26
ENDBRANCH  17  23
ENDBRANCH  16  17
ENDBRANCH   1  16
TORSDOF 5
ENDMDL
MODEL 4
REMARK VINA RESULT:    -7.578      3.040      4.272
REMARK INTER + INTRA:         -10.641
REMARK INTER:                  -9.912
REMARK INTRA:                  -0.729
REMARK UNBOUND:                -0.848
REMARK  Name = 
REMARK  5 active torsions:
REMARK  status: ('A' for Active; 'I' for Inactive)
REMARK    1  A    between atoms: C_2  and  C_3
REMARK    2  A    between atoms: C_7  and  N_8
REMARK    3  A    between atoms: N_8  and  C_9
REMARK    4  A    between atoms: C_9  and  C_10
REMARK    5  A    between atoms: C_14  and  C_15
REMARK                            x       y       z     vdW  Elec       q    Type
REMARK                         _______ _______ _______ _____ _____    ______ ____
ROOT
ATOM      1  C   UNL     1      46.036   5.985  11.708  0.00  0.00    +0.000 A 
ATOM      2  C   UNL     1      46.857   6.945  11.107  0.00  0.00    +0.000 A 
ATOM      3  C   UNL     1      48.005   7.395  11.759  0.00  0.00    +0.000 A 
ATOM      4  C   UNL     1      48.338   6.897  13.021  0.00  0.00    +0.000 A 
ATOM      5  C   UNL     1      47.531   5.945  13.666  0.00  0.00    +0.000 A 
ATOM      6  C   UNL     1      46.397   5.481  12.970  0.00  0.00    +0.000 A 
ENDROOT
BRANCH   5   7
ATOM      7  C   UNL     1      47.820   5.489  15.045  0.00  0.00    +0.000 A 
ATOM      8  C   UNL     1      48.671   6.209  15.892  0.00  0.00    +0.000 A 
ATOM      9  C   UNL     1      48.866   5.767  17.191  0.00  0.00    +0.000 A 
ATOM     10  N   UNL     1      48.277   4.670  17.710  0.00  0.00    +0.000 NA
ATOM     11  C   UNL     1      47.459   3.981  16.902  0.00  0.00    +0.000 A 
ATOM     12  N   UNL     1      46.785   2.900  17.463  0.00  0.00    +0.000 N 
ATOM     13  C   UNL     1      47.210   4.349  15.587  0.00  0.00    +0.000 A 
ATOM     14  H   UNL     1      47.163   2.762  18.397  0.00  0.00    +0.000 HD
ATOM     15  H   UNL     1      46.848   2.067  16.891  0.00  0.00    +0.000 HD
ENDBRANCH   5   7
BRANCH   1  16
ATOM     16  C   UNL     1      44.756   5.526  11.046  0.00  0.00    +0.000 C 
BRANCH  16  17
ATOM     17  N   UNL     1      44.957   5.313   9.621  0.00  0.00    +0.000 N 
ATOM     18  H   UNL     1      45.491   6.046   9.161  0.00  0.00    +0.000 HD
BRANCH  17  23
ATOM     19  C   UNL     1      46.407   2.388   7.813  0.00  0.00    +0.000 A 
ATOM     20  C   UNL     1      45.611   1.396   8.362  0.00  0.00    +0.000 A 
ATOM     21  N   UNL     1      44.622   1.647   9.247  0.00  0.00    +0.000 NA
ATOM     22  C   UNL     1      44.439   2.947   9.596  0.00  0.00    +0.000 A 
ATOM     23  C   UNL     1      45.166   4.037   9.102  0.00  0.00    +0.000 A 
ATOM     24  C   UNL     1      46.184   3.714   8.198  0.00  0.00    +0.000 A 
BRANCH  19  26
ATOM     25  N   UNL     1      48.284   1.781   6.130  0.00  0.00    +0.000 NA
ATOM     26  C   UNL     1      47.442   2.051   6.883  0.00  0.00    +0.000 C 
ENDBRANCH  19  26
ENDBRANCH  17  23
ENDBRANCH  16  17
ENDBRANCH   1  16
TORSDOF 5
ENDMDL
MODEL 5
REMARK VINA RESULT:    -7.182      2.560      3.768
REMARK INTER + INTRA:         -10.130
REMARK INTER:                  -9.387
REMARK INTRA:                  -0.742
REMARK UNBOUND:                -0.848
REMARK  Name = 
REMARK  5 active torsions:
REMARK  status: ('A' for Active; 'I' for Inactive)
REMARK    1  A    between atoms: C_2  and  C_3
REMARK    2  A    between atoms: C_7  and  N_8
REMARK    3  A    between atoms: N_8  and  C_9
REMARK    4  A    between atoms: C_9  and  C_10
REMARK    5  A    between atoms: C_14  and  C_15
REMARK                            x       y       z     vdW  Elec       q    Type
REMARK                         _______ _______ _______ _____ _____    ______ ____
ROOT
ATOM      1  C   UNL     1      44.951   5.178  11.691  0.00  0.00    +0.000 A 
ATOM      2  C   UNL     1      45.022   6.517  11.294  0.00  0.00    +0.000 A 
ATOM      3  C   UNL     1      45.858   7.406  11.968  0.00  0.00    +0.000 A 
ATOM      4  C   UNL     1      46.625   6.967  13.051  0.00  0.00    +0.000 A 
ATOM      5  C   UNL     1      46.569   5.635  13.492  0.00  0.00    +0.000 A 
ATOM      6  C   UNL     1      45.743   4.749  12.771  0.00  0.00    +0.000 A 
ENDROOT
BRANCH   5   7
ATOM      7  C   UNL     1      47.298   5.187  14.700  0.00  0.00    +0.000 A 
ATOM      8  C   UNL     1      47.120   3.904  15.231  0.00  0.00    +0.000 A 
ATOM      9  C   UNL     1      47.868   3.516  16.332  0.00  0.00    +0.000 A 
ATOM     10  N   UNL     1      48.779   4.304  16.938  0.00  0.00    +0.000 NA
ATOM     11  C   UNL     1      48.955   5.531  16.430  0.00  0.00    +0.000 A 
ATOM     12  N   UNL     1      49.956   6.312  17.002  0.00  0.00    +0.000 N 
ATOM     13  C   UNL     1      48.246   6.003  15.334  0.00  0.00    +0.000 A 
ATOM     14  H   UNL     1      50.292   5.815  17.823  0.00  0.00    +0.000 HD
ATOM     15  H   UNL     1      49.639   7.249  17.218  0.00  0.00    +0.000 HD
ENDBRANCH   5   7
BRANCH   1  16
ATOM     16  C   UNL     1      44.007   4.209  11.013  0.00  0.00    +0.000 C 
BRANCH  16  17
ATOM     17  N   UNL     1      44.080   4.342   9.567  0.00  0.00    +0.000 N 
ATOM     18  H   UNL     1      43.757   5.239   9.213  0.00  0.00    +0.000 HD
BRANCH  17  23
ATOM     19  C   UNL     1      46.351   1.913   7.873  0.00  0.00    +0.000 A 
ATOM     20  C   UNL     1      47.105   2.817   7.142  0.00  0.00    +0.000 A 
ATOM     21  N   UNL     1      46.927   4.154   7.210  0.00  0.00    +0.000 NA
ATOM     22  C   UNL     1      45.944   4.591   8.041  0.00  0.00    +0.000 A 
ATOM     23  C   UNL     1      45.128   3.781   8.840  0.00  0.00    +0.000 A 
ATOM     24  C   UNL     1      45.351   2.405   8.717  0.00  0.00    +0.000 A 
BRANCH  19  26
ATOM     25  N   UNL     1      46.788  -0.633   7.646  0.00  0.00    +0.000 NA
ATOM     26  C   UNL     1      46.590   0.506   7.748  0.00  0.00    +0.000 C 
ENDBRANCH  19  26
ENDBRANCH  17  23
ENDBRANCH  16  17
ENDBRANCH   1  16
TORSDOF 5
ENDMDL
MODEL 6
REMARK VINA RESULT:    -6.730      2.285      3.348
REMARK INTER + INTRA:          -9.546
REMARK INTER:                  -9.000
REMARK INTRA:                  -0.546
REMARK UNBOUND:                -0.848
REMARK  Name = 
REMARK  5 active torsions:
REMARK  status: ('A' for Active; 'I' for Inactive)
REMARK    1  A    between atoms: C_2  and  C_3
REMARK    2  A    between atoms: C_7  and  N_8
REMARK    3  A    between atoms: N_8  and  C_9
REMARK    4  A    between atoms: C_9  and  C_10
REMARK    5  A    between atoms: C_14  and  C_15
REMARK                            x       y       z     vdW  Elec       q    Type
REMARK                         _______ _______ _______ _____ _____    ______ ____
ROOT
ATOM      1  C   UNL     1      45.217   6.393  11.183  0.00  0.00    +0.000 A 
ATOM      2  C   UNL     1      44.353   7.490  11.274  0.00  0.00    +0.000 A 
ATOM      3  C   UNL     1      44.820   8.713  11.752  0.00  0.00    +0.000 A 
ATOM      4  C   UNL     1      46.152   8.851  12.152  0.00  0.00    +0.000 A 
ATOM      5  C   UNL     1      47.047   7.770  12.093  0.00  0.00    +0.000 A 
ATOM      6  C   UNL     1      46.559   6.555  11.572  0.00  0.00    +0.000 A 
ENDROOT
BRANCH   5   7
ATOM      7  C   UNL     1      48.430   7.879  12.609  0.00  0.00    +0.000 A 
ATOM      8  C   UNL     1      49.421   8.580  11.911  0.00  0.00    +0.000 A 
ATOM      9  C   UNL     1      50.685   8.697  12.466  0.00  0.00    +0.000 A 
ATOM     10  N   UNL     1      51.036   8.176  13.660  0.00  0.00    +0.000 NA
ATOM     11  C   UNL     1      50.088   7.508  14.331  0.00  0.00    +0.000 A 
ATOM     12  N   UNL     1      50.425   7.044  15.601  0.00  0.00    +0.000 N 
ATOM     13  C   UNL     1      48.798   7.338  13.849  0.00  0.00    +0.000 A 
ATOM     14  H   UNL     1      51.422   7.206  15.724  0.00  0.00    +0.000 HD
ATOM     15  H   UNL     1      50.168   6.075  15.739  0.00  0.00    +0.000 HD
ENDBRANCH   5   7
BRANCH   1  16
ATOM     16  C   UNL     1      44.719   5.041  10.724  0.00  0.00    +0.000 C 
BRANCH  16  17
ATOM     17  N   UNL     1      44.891   4.886   9.288  0.00  0.00    +0.000 N 
ATOM     18  H   UNL     1      45.255   5.712   8.819  0.00  0.00    +0.000 HD
BRANCH  17  23
ATOM     19  C   UNL     1      46.742   2.319   7.311  0.00  0.00    +0.000 A 
ATOM     20  C   UNL     1      46.232   1.185   7.924  0.00  0.00    +0.000 A 
ATOM     21  N   UNL     1      45.304   1.228   8.904  0.00  0.00    +0.000 NA
ATOM     22  C   UNL     1      44.886   2.464   9.286  0.00  0.00    +0.000 A 
ATOM     23  C   UNL     1      45.313   3.679   8.735  0.00  0.00    +0.000 A 
ATOM     24  C   UNL     1      46.282   3.570   7.732  0.00  0.00    +0.000 A 
BRANCH  19  26
ATOM     25  N   UNL     1      48.528   2.107   5.442  0.00  0.00    +0.000 NA
ATOM     26  C   UNL     1      47.728   2.199   6.280  0.00  0.00    +0.000 C 
ENDBRANCH  19  26
ENDBRANCH  17  23
ENDBRANCH  16  17
ENDBRANCH   1  16
TORSDOF 5
ENDMDL
MODEL 7
REMARK VINA RESULT:    -6.714      3.334      7.412
REMARK INTER + INTRA:          -9.525
REMARK INTER:                  -8.714
REMARK INTRA:                  -0.811
REMARK UNBOUND:                -0.848
REMARK  Name = 
REMARK  5 active torsions:
REMARK  status: ('A' for Active; 'I' for Inactive)
REMARK    1  A    between atoms: C_2  and  C_3
REMARK    2  A    between atoms: C_7  and  N_8
REMARK    3  A    between atoms: N_8  and  C_9
REMARK    4  A    between atoms: C_9  and  C_10
REMARK    5  A    between atoms: C_14  and  C_15
REMARK                            x       y       z     vdW  Elec       q    Type
REMARK                         _______ _______ _______ _____ _____    ______ ____
ROOT
ATOM      1  C   UNL     1      47.748   7.554  12.816  0.00  0.00    +0.000 A 
ATOM      2  C   UNL     1      46.983   8.713  12.982  0.00  0.00    +0.000 A 
ATOM      3  C   UNL     1      45.656   8.744  12.557  0.00  0.00    +0.000 A 
ATOM      4  C   UNL     1      45.082   7.622  11.955  0.00  0.00    +0.000 A 
ATOM      5  C   UNL     1      45.822   6.444  11.754  0.00  0.00    +0.000 A 
ATOM      6  C   UNL     1      47.150   6.427  12.225  0.00  0.00    +0.000 A 
ENDROOT
BRANCH   5   7
ATOM      7  C   UNL     1      45.254   5.287  11.025  0.00  0.00    +0.000 A 
ATOM      8  C   UNL     1      45.469   5.106   9.654  0.00  0.00    +0.000 A 
ATOM      9  C   UNL     1      44.960   3.977   9.031  0.00  0.00    +0.000 A 
ATOM     10  N   UNL     1      44.261   3.016   9.669  0.00  0.00    +0.000 NA
ATOM     11  C   UNL     1      44.057   3.185  10.983  0.00  0.00    +0.000 A 
ATOM     12  N   UNL     1      43.410   2.152  11.657  0.00  0.00    +0.000 N 
ATOM     13  C   UNL     1      44.526   4.287  11.685  0.00  0.00    +0.000 A 
ATOM     14  H   UNL     1      43.091   1.489  10.954  0.00  0.00    +0.000 HD
ATOM     15  H   UNL     1      42.659   2.487  12.246  0.00  0.00    +0.000 HD
ENDBRANCH   5   7
BRANCH   1  16
ATOM     16  C   UNL     1      49.207   7.515  13.215  0.00  0.00    +0.000 C 
BRANCH  16  17
ATOM     17  N   UNL     1      49.369   7.850  14.620  0.00  0.00    +0.000 N 
ATOM     18  H   UNL     1      48.883   8.697  14.906  0.00  0.00    +0.000 HD
BRANCH  17  23
ATOM     19  C   UNL     1      48.561   4.910  16.773  0.00  0.00    +0.000 A 
ATOM     20  C   UNL     1      49.787   4.781  17.406  0.00  0.00    +0.000 A 
ATOM     21  N   UNL     1      50.823   5.618  17.189  0.00  0.00    +0.000 NA
ATOM     22  C   UNL     1      50.616   6.617  16.291  0.00  0.00    +0.000 A 
ATOM     23  C   UNL     1      49.422   6.860  15.600  0.00  0.00    +0.000 A 
ATOM     24  C   UNL     1      48.389   5.953  15.857  0.00  0.00    +0.000 A 
BRANCH  19  26
ATOM     25  N   UNL     1      46.652   3.227  17.269  0.00  0.00    +0.000 NA
ATOM     26  C   UNL     1      47.505   3.983  17.047  0.00  0.00    +0.000 C 
ENDBRANCH  19  26
ENDBRANCH  17  23
ENDBRANCH  16  17
ENDBRANCH   1  16
TORSDOF 5
ENDMDL
MODEL 8
REMARK VINA RESULT:    -6.672      3.984      7.165
REMARK INTER + INTRA:          -9.471
REMARK INTER:                  -8.817
REMARK INTRA:                  -0.654
REMARK UNBOUND:                -0.848
REMARK  Name = 
REMARK  5 active torsions:
REMARK  status: ('A' for Active; 'I' for Inactive)
REMARK    1  A    between atoms: C_2  and  C_3
REMARK    2  A    between atoms: C_7  and  N_8
REMARK    3  A    between atoms: N_8  and  C_9
REMARK    4  A    between atoms: C_9  and  C_10
REMARK    5  A    between atoms: C_14  and  C_15
REMARK                            x       y       z     vdW  Elec       q    Type
REMARK                         _______ _______ _______ _____ _____    ______ ____
ROOT
ATOM      1  C   UNL     1      48.769   7.051  14.010  0.00  0.00    +0.000 A 
ATOM      2  C   UNL     1      49.512   7.676  13.003  0.00  0.00    +0.000 A 
ATOM      3  C   UNL     1      49.006   7.759  11.706  0.00  0.00    +0.000 A 
ATOM      4  C   UNL     1      47.758   7.211  11.401  0.00  0.00    +0.000 A 
ATOM      5  C   UNL     1      46.988   6.559  12.379  0.00  0.00    +0.000 A 
ATOM      6  C   UNL     1      47.506   6.522  13.689  0.00  0.00    +0.000 A 
ENDROOT
BRANCH   5   7
ATOM      7  C   UNL     1      45.713   5.887  12.043  0.00  0.00    +0.000 A 
ATOM      8  C   UNL     1      44.689   5.741  12.986  0.00  0.00    +0.000 A 
ATOM      9  C   UNL     1      43.494   5.152  12.604  0.00  0.00    +0.000 A 
ATOM     10  N   UNL     1      43.241   4.704  11.357  0.00  0.00    +0.000 NA
ATOM     11  C   UNL     1      44.218   4.845  10.451  0.00  0.00    +0.000 A 
ATOM     12  N   UNL     1      43.925   4.461   9.145  0.00  0.00    +0.000 N 
ATOM     13  C   UNL     1      45.447   5.419  10.748  0.00  0.00    +0.000 A 
ATOM     14  H   UNL     1      43.016   4.005   9.163  0.00  0.00    +0.000 HD
ATOM     15  H   UNL     1      44.646   3.874   8.745  0.00  0.00    +0.000 HD
ENDBRANCH   5   7
BRANCH   1  16
ATOM     16  C   UNL     1      49.322   6.898  15.409  0.00  0.00    +0.000 C 
BRANCH  16  17
ATOM     17  N   UNL     1      48.303   6.395  16.317  0.00  0.00    +0.000 N 
ATOM     18  H   UNL     1      47.405   6.866  16.240  0.00  0.00    +0.000 HD
BRANCH  17  23
ATOM     19  C   UNL     1      49.164   2.865  17.173  0.00  0.00    +0.000 A 
ATOM     20  C   UNL     1      47.894   2.423  17.507  0.00  0.00    +0.000 A 
ATOM     21  N   UNL     1      46.795   3.203  17.429  0.00  0.00    +0.000 NA
ATOM     22  C   UNL     1      46.989   4.480  17.006  0.00  0.00    +0.000 A 
ATOM     23  C   UNL     1      48.216   5.039  16.627  0.00  0.00    +0.000 A 
ATOM     24  C   UNL     1      49.320   4.186  16.741  0.00  0.00    +0.000 A 
BRANCH  19  26
ATOM     25  N   UNL     1      51.202   1.273  17.372  0.00  0.00    +0.000 NA
ATOM     26  C   UNL     1      50.288   1.985  17.284  0.00  0.00    +0.000 C 
ENDBRANCH  19  26
ENDBRANCH  17  23
ENDBRANCH  16  17
ENDBRANCH   1  16
TORSDOF 5
ENDMDL
MODEL 9
REMARK VINA RESULT:    -6.080      5.307      8.229
REMARK INTER + INTRA:          -8.705
REMARK INTER:                  -8.066
REMARK INTRA:                  -0.639
REMARK UNBOUND:                -0.848
REMARK  Name = 
REMARK  5 active torsions:
REMARK  status: ('A' for Active; 'I' for Inactive)
REMARK    1  A    between atoms: C_2  and  C_3
REMARK    2  A    between atoms: C_7  and  N_8
REMARK    3  A    between atoms: N_8  and  C_9
REMARK    4  A    between atoms: C_9  and  C_10
REMARK    5  A    between atoms: C_14  and  C_15
REMARK                            x       y       z     vdW  Elec       q    Type
REMARK                         _______ _______ _______ _____ _____    ______ ____
ROOT
ATOM      1  C   UNL     1      47.744   5.108  15.563  0.00  0.00    +0.000 A 
ATOM      2  C   UNL     1      48.560   6.211  15.292  0.00  0.00    +0.000 A 
ATOM      3  C   UNL     1      48.426   6.905  14.090  0.00  0.00    +0.000 A 
ATOM      4  C   UNL     1      47.481   6.499  13.144  0.00  0.00    +0.000 A 
ATOM      5  C   UNL     1      46.654   5.386  13.371  0.00  0.00    +0.000 A 
ATOM      6  C   UNL     1      46.785   4.725  14.608  0.00  0.00    +0.000 A 
ENDROOT
BRANCH   5   7
ATOM      7  C   UNL     1      45.723   4.888  12.333  0.00  0.00    +0.000 A 
ATOM      8  C   UNL     1      45.630   5.498  11.076  0.00  0.00    +0.000 A 
ATOM      9  C   UNL     1      44.781   4.959  10.123  0.00  0.00    +0.000 A 
ATOM     10  N   UNL     1      44.025   3.860  10.322  0.00  0.00    +0.000 NA
ATOM     11  C   UNL     1      44.115   3.272  11.523  0.00  0.00    +0.000 A 
ATOM     12  N   UNL     1      43.400   2.090  11.700  0.00  0.00    +0.000 N 
ATOM     13  C   UNL     1      44.934   3.747  12.538  0.00  0.00    +0.000 A 
ATOM     14  H   UNL     1      42.818   1.965  10.875  0.00  0.00    +0.000 HD
ATOM     15  H   UNL     1      42.864   2.088  12.558  0.00  0.00    +0.000 HD
ENDBRANCH   5   7
BRANCH   1  16
ATOM     16  C   UNL     1      47.911   4.305  16.834  0.00  0.00    +0.000 C 
BRANCH  16  17
ATOM     17  N   UNL     1      49.206   4.562  17.443  0.00  0.00    +0.000 N 
ATOM     18  H   UNL     1      49.164   5.116  18.295  0.00  0.00    +0.000 HD
BRANCH  17  23
ATOM     19  C   UNL     1      52.415   2.749  18.027  0.00  0.00    +0.000 A 
ATOM     20  C   UNL     1      52.030   1.501  17.564  0.00  0.00    +0.000 A 
ATOM     21  N   UNL     1      50.807   1.249  17.048  0.00  0.00    +0.000 NA
ATOM     22  C   UNL     1      49.940   2.295  17.009  0.00  0.00    +0.000 A 
ATOM     23  C   UNL     1      50.216   3.602  17.431  0.00  0.00    +0.000 A 
ATOM     24  C   UNL     1      51.493   3.798  17.967  0.00  0.00    +0.000 A 
BRANCH  19  26
ATOM     25  N   UNL     1      54.790   3.108  19.005  0.00  0.00    +0.000 NA
ATOM     26  C   UNL     1      53.727   2.944  18.567  0.00  0.00    +0.000 C 
ENDBRANCH  19  26
ENDBRANCH  17  23
ENDBRANCH  16  17
ENDBRANCH   1  16
TORSDOF 5
ENDMDL
