MODEL 1
REMARK VINA RESULT:    -6.720      0.000      0.000
REMARK INTER + INTRA:          -9.348
REMARK INTER:                  -8.881
REMARK INTRA:                  -0.467
REMARK UNBOUND:                -0.467
REMARK  Name = 
REMARK  9 active torsions:
REMARK  status: ('A' for Active; 'I' for Inactive)
REMARK    1  A    between atoms: C_1  and  C_2
REMARK    2  A    between atoms: C_2  and  C_3
REMARK    3  A    between atoms: C_2  and  C_4
REMARK    4  A    between atoms: C_2  and  C_5
REMARK    5  A    between atoms: C_7  and  C_8
REMARK    6  A    between atoms: C_8  and  N_9
REMARK    7  A    between atoms: C_14  and  C_15
REMARK    8  A    between atoms: C_23  and  C_24
REMARK    9  A    between atoms: C_24  and  O_26
REMARK                            x       y       z     vdW  Elec       q    Type
REMARK                         _______ _______ _______ _____ _____    ______ ____
ROOT
ATOM      1  C   UNL     1      48.876   6.639  14.474  0.00  0.00    +0.000 C 
ENDROOT
BRANCH   1   2
ATOM      2  N   UNL     1      47.686   7.160  13.816  0.00  0.00    +0.000 N 
ATOM      3  C   UNL     1      47.460   8.512  13.693  0.00  0.00    +0.000 A 
ATOM      4  C   UNL     1      46.361   8.691  12.894  0.00  0.00    +0.000 A 
ATOM      5  C   UNL     1      45.868   7.406  12.551  0.00  0.00    +0.000 A 
ATOM      6  C   UNL     1      44.793   6.989  11.736  0.00  0.00    +0.000 A 
ATOM      7  C   UNL     1      44.530   5.627  11.569  0.00  0.00    +0.000 A 
ATOM      8  C   UNL     1      45.305   4.687  12.249  0.00  0.00    +0.000 A 
ATOM      9  C   UNL     1      46.370   5.075  13.072  0.00  0.00    +0.000 A 
ATOM     10 CL   UNL     1      47.214   3.824  13.895  0.00  0.00    +0.000 Cl
ATOM     11  C   UNL     1      46.673   6.446  13.189  0.00  0.00    +0.000 A 
BRANCH   7  12
ATOM     12  C   UNL     1      43.445   5.109  10.683  0.00  0.00    +0.000 C 
ATOM     13  N   UNL     1      43.776   4.637   9.445  0.00  0.00    +0.000 N 
ATOM     14  O   UNL     1      42.277   5.095  11.048  0.00  0.00    +0.000 OA
ATOM     15  H   UNL     1      44.703   4.604   9.056  0.00  0.00    +0.000 HD
ATOM     16  H   UNL     1      43.016   4.282   8.879  0.00  0.00    +0.000 HD
ENDBRANCH   7  12
ENDBRANCH   1   2
BRANCH   1  19
ATOM     17  C   UNL     1      48.753   6.934  18.232  0.00  0.00    +0.000 A 
ATOM     18  C   UNL     1      48.846   7.292  16.894  0.00  0.00    +0.000 A 
ATOM     19  C   UNL     1      48.621   6.325  15.930  0.00  0.00    +0.000 A 
ATOM     20  N   UNL     1      48.266   5.068  16.262  0.00  0.00    +0.000 NA
ATOM     21  C   UNL     1      48.119   4.819  17.575  0.00  0.00    +0.000 A 
ATOM     22  N   UNL     1      48.359   5.690  18.591  0.00  0.00    +0.000 NA
BRANCH  17  24
ATOM     23  C   UNL     1      47.804   8.689  19.736  0.00  0.00    +0.000 C 
ATOM     24  C   UNL     1      49.090   7.943  19.340  0.00  0.00    +0.000 C 
ATOM     25  C   UNL     1      50.151   8.978  18.898  0.00  0.00    +0.000 C 
ATOM     26  C   UNL     1      49.664   7.219  20.576  0.00  0.00    +0.000 C 
ENDBRANCH  17  24
BRANCH  21  27
ATOM     27  C   UNL     1      47.651   3.444  17.985  0.00  0.00    +0.000 C 
ATOM     28  O   UNL     1      46.780   2.789  17.442  0.00  0.00    +0.000 OA
BRANCH  27  29
ATOM     29  O   UNL     1      48.342   3.006  19.074  0.00  0.00    +0.000 OA
ATOM     30  H   UNL     1      48.928   3.729  19.401  0.00  0.00    +0.000 HD
ENDBRANCH  27  29
ENDBRANCH  21  27
ENDBRANCH   1  19
TORSDOF 6
ENDMDL
MODEL 2
REMARK VINA RESULT:    -6.611      3.045      7.721
REMARK INTER + INTRA:          -9.204
REMARK INTER:                  -8.197
REMARK INTRA:                  -1.007
REMARK UNBOUND:                -0.467
REMARK  Name = 
REMARK  9 active torsions:
REMARK  status: ('A' for Active; 'I' for Inactive)
REMARK    1  A    between atoms: C_1  and  C_2
REMARK    2  A    between atoms: C_2  and  C_3
REMARK    3  A    between atoms: C_2  and  C_4
REMARK    4  A    between atoms: C_2  and  C_5
REMARK    5  A    between atoms: C_7  and  C_8
REMARK    6  A    between atoms: C_8  and  N_9
REMARK    7  A    between atoms: C_14  and  C_15
REMARK    8  A    between atoms: C_23  and  C_24
REMARK    9  A    between atoms: C_24  and  O_26
REMARK                            x       y       z     vdW  Elec       q    Type
REMARK                         _______ _______ _______ _____ _____    ______ ____
ROOT
ATOM      1  C   UNL     1      47.242   4.036  16.742  0.00  0.00    +0.000 C 
ENDROOT
BRANCH   1   2
ATOM      2  N   UNL     1      48.558   3.499  17.055  0.00  0.00    +0.000 N 
ATOM      3  C   UNL     1      48.919   2.218  16.704  0.00  0.00    +0.000 A 
ATOM      4  C   UNL     1      50.253   2.059  16.979  0.00  0.00    +0.000 A 
ATOM      5  C   UNL     1      50.716   3.268  17.560  0.00  0.00    +0.000 A 
ATOM      6  C   UNL     1      51.992   3.679  18.003  0.00  0.00    +0.000 A 
ATOM      7  C   UNL     1      52.166   4.955  18.544  0.00  0.00    +0.000 A 
ATOM      8  C   UNL     1      51.064   5.799  18.686  0.00  0.00    +0.000 A 
ATOM      9  C   UNL     1      49.787   5.412  18.265  0.00  0.00    +0.000 A 
ATOM     10 CL   UNL     1      48.504   6.522  18.543  0.00  0.00    +0.000 Cl
ATOM     11  C   UNL     1      49.625   4.148  17.662  0.00  0.00    +0.000 A 
BRANCH   7  12
ATOM     12  C   UNL     1      53.493   5.480  18.986  0.00  0.00    +0.000 C 
ATOM     13  N   UNL     1      53.634   6.822  19.193  0.00  0.00    +0.000 N 
ATOM     14  O   UNL     1      54.445   4.732  19.168  0.00  0.00    +0.000 OA
ATOM     15  H   UNL     1      52.915   7.515  19.073  0.00  0.00    +0.000 HD
ATOM     16  H   UNL     1      54.544   7.138  19.504  0.00  0.00    +0.000 HD
ENDBRANCH   7  12
ENDBRANCH   1   2
BRANCH   1  19
ATOM     17  C   UNL     1      47.711   6.238  13.716  0.00  0.00    +0.000 A 
ATOM     18  C   UNL     1      47.908   5.682  14.972  0.00  0.00    +0.000 A 
ATOM     19  C   UNL     1      47.173   4.565  15.327  0.00  0.00    +0.000 A 
ATOM     20  N   UNL     1      46.315   3.983  14.466  0.00  0.00    +0.000 NA
ATOM     21  C   UNL     1      46.237   4.532  13.242  0.00  0.00    +0.000 A 
ATOM     22  N   UNL     1      46.886   5.649  12.819  0.00  0.00    +0.000 NA
BRANCH  17  24
ATOM     23  C   UNL     1      47.567   8.733  13.743  0.00  0.00    +0.000 C 
ATOM     24  C   UNL     1      48.429   7.534  13.310  0.00  0.00    +0.000 C 
ATOM     25  C   UNL     1      48.676   7.623  11.785  0.00  0.00    +0.000 C 
ATOM     26  C   UNL     1      49.812   7.625  13.989  0.00  0.00    +0.000 C 
ENDBRANCH  17  24
BRANCH  21  27
ATOM     27  C   UNL     1      45.344   3.867  12.224  0.00  0.00    +0.000 C 
ATOM     28  O   UNL     1      44.828   4.402  11.260  0.00  0.00    +0.000 OA
BRANCH  27  29
ATOM     29  O   UNL     1      45.175   2.547  12.521  0.00  0.00    +0.000 OA
ATOM     30  H   UNL     1      45.543   1.999  11.788  0.00  0.00    +0.000 HD
ENDBRANCH  27  29
ENDBRANCH  21  27
ENDBRANCH   1  19
TORSDOF 6
ENDMDL
MODEL 3
REMARK VINA RESULT:    -6.464      3.415      7.537
REMARK INTER + INTRA:          -9.010
REMARK INTER:                  -8.325
REMARK INTRA:                  -0.684
REMARK UNBOUND:                -0.467
REMARK  Name = 
REMARK  9 active torsions:
REMARK  status: ('A' for Active; 'I' for Inactive)
REMARK    1  A    between atoms: C_1  and  C_2
REMARK    2  A    between atoms: C_2  and  C_3
REMARK    3  A    between atoms: C_2  and  C_4
REMARK    4  A    between atoms: C_2  and  C_5
REMARK    5  A    between atoms: C_7  and  C_8
REMARK    6  A    between atoms: C_8  and  N_9
REMARK    7  A    between atoms: C_14  and  C_15
REMARK    8  A    between atoms: C_23  and  C_24
REMARK    9  A    between atoms: C_24  and  O_26
REMARK                            x       y       z     vdW  Elec       q    Type
REMARK                         _______ _______ _______ _____ _____    ______ ____
ROOT
ATOM      1  C   UNL     1      48.018   4.835  17.291  0.00  0.00    +0.000 C 
ENDROOT
BRANCH   1   2
ATOM      2  N   UNL     1      49.446   4.801  17.576  0.00  0.00    +0.000 N 
ATOM      3  C   UNL     1      50.122   5.914  18.020  0.00  0.00    +0.000 A 
ATOM      4  C   UNL     1      51.395   5.535  18.356  0.00  0.00    +0.000 A 
ATOM      5  C   UNL     1      51.519   4.152  18.068  0.00  0.00    +0.000 A 
ATOM      6  C   UNL     1      52.583   3.238  18.242  0.00  0.00    +0.000 A 
ATOM      7  C   UNL     1      52.425   1.903  17.863  0.00  0.00    +0.000 A 
ATOM      8  C   UNL     1      51.231   1.491  17.271  0.00  0.00    +0.000 A 
ATOM      9  C   UNL     1      50.166   2.379  17.077  0.00  0.00    +0.000 A 
ATOM     10 CL   UNL     1      48.769   1.760  16.289  0.00  0.00    +0.000 Cl
ATOM     11  C   UNL     1      50.303   3.711  17.517  0.00  0.00    +0.000 A 
BRANCH   7  12
ATOM     12  C   UNL     1      53.483   0.868  18.064  0.00  0.00    +0.000 C 
ATOM     13  N   UNL     1      53.106  -0.410  18.359  0.00  0.00    +0.000 N 
ATOM     14  O   UNL     1      54.671   1.145  17.962  0.00  0.00    +0.000 OA
ATOM     15  H   UNL     1      52.159  -0.736  18.462  0.00  0.00    +0.000 HD
ATOM     16  H   UNL     1      53.851  -1.086  18.476  0.00  0.00    +0.000 HD
ENDBRANCH   7  12
ENDBRANCH   1   2
BRANCH   1  19
ATOM     17  C   UNL     1      48.017   6.603  13.959  0.00  0.00    +0.000 A 
ATOM     18  C   UNL     1      48.398   6.225  15.239  0.00  0.00    +0.000 A 
ATOM     19  C   UNL     1      47.743   5.166  15.841  0.00  0.00    +0.000 A 
ATOM     20  N   UNL     1      46.787   4.469  15.196  0.00  0.00    +0.000 NA
ATOM     21  C   UNL     1      46.528   4.845  13.932  0.00  0.00    +0.000 A 
ATOM     22  N   UNL     1      47.088   5.895  13.274  0.00  0.00    +0.000 NA
BRANCH  17  24
ATOM     23  C   UNL     1      47.983   9.099  13.854  0.00  0.00    +0.000 C 
ATOM     24  C   UNL     1      48.644   7.833  13.284  0.00  0.00    +0.000 C 
ATOM     25  C   UNL     1      48.464   7.824  11.748  0.00  0.00    +0.000 C 
ATOM     26  C   UNL     1      50.163   7.883  13.552  0.00  0.00    +0.000 C 
ENDBRANCH  17  24
BRANCH  21  27
ATOM     27  C   UNL     1      45.517   4.045  13.149  0.00  0.00    +0.000 C 
ATOM     28  O   UNL     1      44.442   4.446  12.742  0.00  0.00    +0.000 OA
BRANCH  27  29
ATOM     29  O   UNL     1      45.963   2.774  12.944  0.00  0.00    +0.000 OA
ATOM     30  H   UNL     1      45.584   2.180  13.635  0.00  0.00    +0.000 HD
ENDBRANCH  27  29
ENDBRANCH  21  27
ENDBRANCH   1  19
TORSDOF 6
ENDMDL
MODEL 4
REMARK VINA RESULT:    -6.183      3.537      7.423
REMARK INTER + INTRA:          -8.639
REMARK INTER:                  -7.794
REMARK INTRA:                  -0.845
REMARK UNBOUND:                -0.467
REMARK  Name = 
REMARK  9 active torsions:
REMARK  status: ('A' for Active; 'I' for Inactive)
REMARK    1  A    between atoms: C_1  and  C_2
REMARK    2  A    between atoms: C_2  and  C_3
REMARK    3  A    between atoms: C_2  and  C_4
REMARK    4  A    between atoms: C_2  and  C_5
REMARK    5  A    between atoms: C_7  and  C_8
REMARK    6  A    between atoms: C_8  and  N_9
REMARK    7  A    between atoms: C_14  and  C_15
REMARK    8  A    between atoms: C_23  and  C_24
REMARK    9  A    between atoms: C_24  and  O_26
REMARK                            x       y       z     vdW  Elec       q    Type
REMARK                         _______ _______ _______ _____ _____    ______ ____
ROOT
ATOM      1  C   UNL     1      47.100   8.047  12.731  0.00  0.00    +0.000 C 
ENDROOT
BRANCH   1   2
ATOM      2  N   UNL     1      48.543   8.050  12.536  0.00  0.00    +0.000 N 
ATOM      3  C   UNL     1      49.116   7.600  11.369  0.00  0.00    +0.000 A 
ATOM      4  C   UNL     1      50.458   7.879  11.417  0.00  0.00    +0.000 A 
ATOM      5  C   UNL     1      50.724   8.479  12.674  0.00  0.00    +0.000 A 
ATOM      6  C   UNL     1      51.909   8.993  13.248  0.00  0.00    +0.000 A 
ATOM      7  C   UNL     1      51.881   9.542  14.532  0.00  0.00    +0.000 A 
ATOM      8  C   UNL     1      50.690   9.536  15.259  0.00  0.00    +0.000 A 
ATOM      9  C   UNL     1      49.506   9.022  14.718  0.00  0.00    +0.000 A 
ATOM     10 CL   UNL     1      48.120   9.024  15.735  0.00  0.00    +0.000 Cl
ATOM     11  C   UNL     1      49.521   8.526  13.399  0.00  0.00    +0.000 A 
BRANCH   7  12
ATOM     12  C   UNL     1      53.079  10.152  15.183  0.00  0.00    +0.000 C 
ATOM     13  N   UNL     1      52.906  11.238  15.993  0.00  0.00    +0.000 N 
ATOM     14  O   UNL     1      54.201   9.695  15.009  0.00  0.00    +0.000 OA
ATOM     15  H   UNL     1      52.028  11.685  16.200  0.00  0.00    +0.000 HD
ATOM     16  H   UNL     1      53.739  11.616  16.427  0.00  0.00    +0.000 HD
ENDBRANCH   7  12
ENDBRANCH   1   2
BRANCH   1  19
ATOM     17  C   UNL     1      44.982   4.941  12.422  0.00  0.00    +0.000 A 
ATOM     18  C   UNL     1      45.564   6.164  12.116  0.00  0.00    +0.000 A 
ATOM     19  C   UNL     1      46.563   6.649  12.940  0.00  0.00    +0.000 A 
ATOM     20  N   UNL     1      47.015   5.941  13.993  0.00  0.00    +0.000 NA
ATOM     21  C   UNL     1      46.458   4.731  14.179  0.00  0.00    +0.000 A 
ATOM     22  N   UNL     1      45.445   4.192  13.450  0.00  0.00    +0.000 NA
BRANCH  17  24
ATOM     23  C   UNL     1      42.573   5.289  11.861  0.00  0.00    +0.000 C 
ATOM     24  C   UNL     1      43.802   4.404  11.598  0.00  0.00    +0.000 C 
ATOM     25  C   UNL     1      43.449   2.940  11.951  0.00  0.00    +0.000 C 
ATOM     26  C   UNL     1      44.138   4.427  10.091  0.00  0.00    +0.000 C 
ENDBRANCH  17  24
BRANCH  21  27
ATOM     27  C   UNL     1      46.986   3.875  15.303  0.00  0.00    +0.000 C 
ATOM     28  O   UNL     1      46.782   4.043  16.492  0.00  0.00    +0.000 OA
BRANCH  27  29
ATOM     29  O   UNL     1      47.747   2.855  14.816  0.00  0.00    +0.000 OA
ATOM     30  H   UNL     1      47.618   2.055  15.378  0.00  0.00    +0.000 HD
ENDBRANCH  27  29
ENDBRANCH  21  27
ENDBRANCH   1  19
TORSDOF 6
ENDMDL
MODEL 5
REMARK VINA RESULT:    -6.129      3.468      7.369
REMARK INTER + INTRA:          -8.566
REMARK INTER:                  -7.988
REMARK INTRA:                  -0.578
REMARK UNBOUND:                -0.467
REMARK  Name = 
REMARK  9 active torsions:
REMARK  status: ('A' for Active; 'I' for Inactive)
REMARK    1  A    between atoms: C_1  and  C_2
REMARK    2  A    between atoms: C_2  and  C_3
REMARK    3  A    between atoms: C_2  and  C_4
REMARK    4  A    between atoms: C_2  and  C_5
REMARK    5  A    between atoms: C_7  and  C_8
REMARK    6  A    between atoms: C_8  and  N_9
REMARK    7  A    between atoms: C_14  and  C_15
REMARK    8  A    between atoms: C_23  and  C_24
REMARK    9  A    between atoms: C_24  and  O_26
REMARK                            x       y       z     vdW  Elec       q    Type
REMARK                         _______ _______ _______ _____ _____    ______ ____
ROOT
ATOM      1  C   UNL     1      47.824   7.446  11.850  0.00  0.00    +0.000 C 
ENDROOT
BRANCH   1   2
ATOM      2  N   UNL     1      48.354   8.225  12.960  0.00  0.00    +0.000 N 
ATOM      3  C   UNL     1      47.535   8.740  13.938  0.00  0.00    +0.000 A 
ATOM      4  C   UNL     1      48.328   9.274  14.921  0.00  0.00    +0.000 A 
ATOM      5  C   UNL     1      49.677   9.122  14.511  0.00  0.00    +0.000 A 
ATOM      6  C   UNL     1      50.901   9.454  15.135  0.00  0.00    +0.000 A 
ATOM      7  C   UNL     1      52.109   9.183  14.489  0.00  0.00    +0.000 A 
ATOM      8  C   UNL     1      52.098   8.627  13.209  0.00  0.00    +0.000 A 
ATOM      9  C   UNL     1      50.899   8.299  12.565  0.00  0.00    +0.000 A 
ATOM     10 CL   UNL     1      51.018   7.669  10.970  0.00  0.00    +0.000 Cl
ATOM     11  C   UNL     1      49.682   8.515  13.243  0.00  0.00    +0.000 A 
BRANCH   7  12
ATOM     12  C   UNL     1      53.442   9.456  15.105  0.00  0.00    +0.000 C 
ATOM     13  N   UNL     1      54.567   9.064  14.439  0.00  0.00    +0.000 N 
ATOM     14  O   UNL     1      53.540  10.026  16.184  0.00  0.00    +0.000 OA
ATOM     15  H   UNL     1      54.592   8.593  13.550  0.00  0.00    +0.000 HD
ATOM     16  H   UNL     1      55.453   9.278  14.882  0.00  0.00    +0.000 HD
ENDBRANCH   7  12
ENDBRANCH   1   2
BRANCH   1  19
ATOM     17  C   UNL     1      45.176   4.787  12.232  0.00  0.00    +0.000 A 
ATOM     18  C   UNL     1      45.924   5.820  11.683  0.00  0.00    +0.000 A 
ATOM     19  C   UNL     1      47.079   6.221  12.329  0.00  0.00    +0.000 A 
ATOM     20  N   UNL     1      47.516   5.600  13.443  0.00  0.00    +0.000 NA
ATOM     21  C   UNL     1      46.781   4.559  13.870  0.00  0.00    +0.000 A 
ATOM     22  N   UNL     1      45.613   4.121  13.327  0.00  0.00    +0.000 NA
BRANCH  17  24
ATOM     23  C   UNL     1      43.960   4.438  10.077  0.00  0.00    +0.000 C 
ATOM     24  C   UNL     1      43.835   4.370  11.609  0.00  0.00    +0.000 C 
ATOM     25  C   UNL     1      42.665   5.279  12.054  0.00  0.00    +0.000 C 
ATOM     26  C   UNL     1      43.465   2.932  12.030  0.00  0.00    +0.000 C 
ENDBRANCH  17  24
BRANCH  21  27
ATOM     27  C   UNL     1      47.274   3.790  15.071  0.00  0.00    +0.000 C 
ATOM     28  O   UNL     1      48.063   2.863  15.057  0.00  0.00    +0.000 OA
BRANCH  27  29
ATOM     29  O   UNL     1      46.713   4.273  16.215  0.00  0.00    +0.000 OA
ATOM     30  H   UNL     1      46.452   5.214  16.078  0.00  0.00    +0.000 HD
ENDBRANCH  27  29
ENDBRANCH  21  27
ENDBRANCH   1  19
TORSDOF 6
ENDMDL
MODEL 6
REMARK VINA RESULT:    -6.101      3.765      8.042
REMARK INTER + INTRA:          -8.530
REMARK INTER:                  -7.978
REMARK INTRA:                  -0.553
REMARK UNBOUND:                -0.467
REMARK  Name = 
REMARK  9 active torsions:
REMARK  status: ('A' for Active; 'I' for Inactive)
REMARK    1  A    between atoms: C_1  and  C_2
REMARK    2  A    between atoms: C_2  and  C_3
REMARK    3  A    between atoms: C_2  and  C_4
REMARK    4  A    between atoms: C_2  and  C_5
REMARK    5  A    between atoms: C_7  and  C_8
REMARK    6  A    between atoms: C_8  and  N_9
REMARK    7  A    between atoms: C_14  and  C_15
REMARK    8  A    between atoms: C_23  and  C_24
REMARK    9  A    between atoms: C_24  and  O_26
REMARK                            x       y       z     vdW  Elec       q    Type
REMARK                         _______ _______ _______ _____ _____    ______ ____
ROOT
ATOM      1  C   UNL     1      48.245   5.345  16.781  0.00  0.00    +0.000 C 
ENDROOT
BRANCH   1   2
ATOM      2  N   UNL     1      49.667   5.199  17.061  0.00  0.00    +0.000 N 
ATOM      3  C   UNL     1      50.468   6.287  17.321  0.00  0.00    +0.000 A 
ATOM      4  C   UNL     1      51.701   5.827  17.706  0.00  0.00    +0.000 A 
ATOM      5  C   UNL     1      51.669   4.410  17.639  0.00  0.00    +0.000 A 
ATOM      6  C   UNL     1      52.631   3.424  17.948  0.00  0.00    +0.000 A 
ATOM      7  C   UNL     1      52.321   2.072  17.786  0.00  0.00    +0.000 A 
ATOM      8  C   UNL     1      51.077   1.706  17.272  0.00  0.00    +0.000 A 
ATOM      9  C   UNL     1      50.110   2.664  16.946  0.00  0.00    +0.000 A 
ATOM     10 CL   UNL     1      48.637   2.088  16.273  0.00  0.00    +0.000 Cl
ATOM     11  C   UNL     1      50.400   4.025  17.170  0.00  0.00    +0.000 A 
BRANCH   7  12
ATOM     12  C   UNL     1      53.266   0.970  18.141  0.00  0.00    +0.000 C 
ATOM     13  N   UNL     1      53.414  -0.075  17.276  0.00  0.00    +0.000 N 
ATOM     14  O   UNL     1      53.908   0.994  19.183  0.00  0.00    +0.000 OA
ATOM     15  H   UNL     1      52.935  -0.185  16.398  0.00  0.00    +0.000 HD
ATOM     16  H   UNL     1      54.072  -0.796  17.545  0.00  0.00    +0.000 HD
ENDBRANCH   7  12
ENDBRANCH   1   2
BRANCH   1  19
ATOM     17  C   UNL     1      46.752   5.433  13.319  0.00  0.00    +0.000 A 
ATOM     18  C   UNL     1      46.882   5.209  14.682  0.00  0.00    +0.000 A 
ATOM     19  C   UNL     1      47.992   5.711  15.337  0.00  0.00    +0.000 A 
ATOM     20  N   UNL     1      48.915   6.452  14.692  0.00  0.00    +0.000 NA
ATOM     21  C   UNL     1      48.681   6.693  13.390  0.00  0.00    +0.000 A 
ATOM     22  N   UNL     1      47.644   6.207  12.656  0.00  0.00    +0.000 NA
BRANCH  17  24
ATOM     23  C   UNL     1      44.265   5.252  13.171  0.00  0.00    +0.000 C 
ATOM     24  C   UNL     1      45.591   4.814  12.527  0.00  0.00    +0.000 C 
ATOM     25  C   UNL     1      45.647   3.268  12.502  0.00  0.00    +0.000 C 
ATOM     26  C   UNL     1      45.626   5.282  11.057  0.00  0.00    +0.000 C 
ENDBRANCH  17  24
BRANCH  21  27
ATOM     27  C   UNL     1      49.652   7.578  12.650  0.00  0.00    +0.000 C 
ATOM     28  O   UNL     1      49.457   8.118  11.576  0.00  0.00    +0.000 OA
BRANCH  27  29
ATOM     29  O   UNL     1      50.815   7.708  13.348  0.00  0.00    +0.000 OA
ATOM     30  H   UNL     1      51.316   8.486  13.005  0.00  0.00    +0.000 HD
ENDBRANCH  27  29
ENDBRANCH  21  27
ENDBRANCH   1  19
TORSDOF 6
ENDMDL
MODEL 7
REMARK VINA RESULT:    -6.085      3.420      7.590
REMARK INTER + INTRA:          -8.509
REMARK INTER:                  -7.757
REMARK INTRA:                  -0.752
REMARK UNBOUND:                -0.467
REMARK  Name = 
REMARK  9 active torsions:
REMARK  status: ('A' for Active; 'I' for Inactive)
REMARK    1  A    between atoms: C_1  and  C_2
REMARK    2  A    between atoms: C_2  and  C_3
REMARK    3  A    between atoms: C_2  and  C_4
REMARK    4  A    between atoms: C_2  and  C_5
REMARK    5  A    between atoms: C_7  and  C_8
REMARK    6  A    between atoms: C_8  and  N_9
REMARK    7  A    between atoms: C_14  and  C_15
REMARK    8  A    between atoms: C_23  and  C_24
REMARK    9  A    between atoms: C_24  and  O_26
REMARK                            x       y       z     vdW  Elec       q    Type
REMARK                         _______ _______ _______ _____ _____    ______ ____
ROOT
ATOM      1  C   UNL     1      48.638   6.437  16.531  0.00  0.00    +0.000 C 
ENDROOT
BRANCH   1   2
ATOM      2  N   UNL     1      48.712   5.034  16.910  0.00  0.00    +0.000 N 
ATOM      3  C   UNL     1      47.592   4.234  16.947  0.00  0.00    +0.000 A 
ATOM      4  C   UNL     1      47.996   2.944  17.173  0.00  0.00    +0.000 A 
ATOM      5  C   UNL     1      49.407   2.958  17.323  0.00  0.00    +0.000 A 
ATOM      6  C   UNL     1      50.348   1.926  17.538  0.00  0.00    +0.000 A 
ATOM      7  C   UNL     1      51.706   2.233  17.648  0.00  0.00    +0.000 A 
ATOM      8  C   UNL     1      52.119   3.564  17.593  0.00  0.00    +0.000 A 
ATOM      9  C   UNL     1      51.205   4.606  17.393  0.00  0.00    +0.000 A 
ATOM     10 CL   UNL     1      51.834   6.206  17.397  0.00  0.00    +0.000 Cl
ATOM     11  C   UNL     1      49.843   4.290  17.219  0.00  0.00    +0.000 A 
BRANCH   7  12
ATOM     12  C   UNL     1      52.765   1.193  17.822  0.00  0.00    +0.000 C 
ATOM     13  N   UNL     1      52.397  -0.060  18.219  0.00  0.00    +0.000 N 
ATOM     14  O   UNL     1      53.944   1.444  17.611  0.00  0.00    +0.000 OA
ATOM     15  H   UNL     1      51.458  -0.365  18.415  0.00  0.00    +0.000 HD
ATOM     16  H   UNL     1      53.141  -0.741  18.313  0.00  0.00    +0.000 HD
ENDBRANCH   7  12
ENDBRANCH   1   2
BRANCH   1  19
ATOM     17  C   UNL     1      49.554   7.586  13.057  0.00  0.00    +0.000 A 
ATOM     18  C   UNL     1      49.659   7.305  14.412  0.00  0.00    +0.000 A 
ATOM     19  C   UNL     1      48.631   6.614  15.029  0.00  0.00    +0.000 A 
ATOM     20  N   UNL     1      47.565   6.170  14.337  0.00  0.00    +0.000 NA
ATOM     21  C   UNL     1      47.571   6.412  13.014  0.00  0.00    +0.000 A 
ATOM     22  N   UNL     1      48.513   7.116  12.330  0.00  0.00    +0.000 NA
BRANCH  17  24
ATOM     23  C   UNL     1      51.824   8.604  13.286  0.00  0.00    +0.000 C 
ATOM     24  C   UNL     1      50.619   8.434  12.346  0.00  0.00    +0.000 C 
ATOM     25  C   UNL     1      50.095   9.834  11.948  0.00  0.00    +0.000 C 
ATOM     26  C   UNL     1      51.079   7.746  11.043  0.00  0.00    +0.000 C 
ENDBRANCH  17  24
BRANCH  21  27
ATOM     27  C   UNL     1      46.431   5.868  12.190  0.00  0.00    +0.000 C 
ATOM     28  O   UNL     1      46.248   6.058  11.001  0.00  0.00    +0.000 OA
BRANCH  27  29
ATOM     29  O   UNL     1      45.600   5.110  12.959  0.00  0.00    +0.000 OA
ATOM     30  H   UNL     1      45.310   4.319  12.444  0.00  0.00    +0.000 HD
ENDBRANCH  27  29
ENDBRANCH  21  27
ENDBRANCH   1  19
TORSDOF 6
ENDMDL
MODEL 8
REMARK VINA RESULT:    -6.026      1.825      2.256
REMARK INTER + INTRA:          -8.430
REMARK INTER:                  -7.774
REMARK INTRA:                  -0.656
REMARK UNBOUND:                -0.467
REMARK  Name = 
REMARK  9 active torsions:
REMARK  status: ('A' for Active; 'I' for Inactive)
REMARK    1  A    between atoms: C_1  and  C_2
REMARK    2  A    between atoms: C_2  and  C_3
REMARK    3  A    between atoms: C_2  and  C_4
REMARK    4  A    between atoms: C_2  and  C_5
REMARK    5  A    between atoms: C_7  and  C_8
REMARK    6  A    between atoms: C_8  and  N_9
REMARK    7  A    between atoms: C_14  and  C_15
REMARK    8  A    between atoms: C_23  and  C_24
REMARK    9  A    between atoms: C_24  and  O_26
REMARK                            x       y       z     vdW  Elec       q    Type
REMARK                         _______ _______ _______ _____ _____    ______ ____
ROOT
ATOM      1  C   UNL     1      49.351   6.835  15.085  0.00  0.00    +0.000 C 
ENDROOT
BRANCH   1   2
ATOM      2  N   UNL     1      48.525   7.191  13.940  0.00  0.00    +0.000 N 
ATOM      3  C   UNL     1      48.738   8.349  13.227  0.00  0.00    +0.000 A 
ATOM      4  C   UNL     1      47.924   8.328  12.124  0.00  0.00    +0.000 A 
ATOM      5  C   UNL     1      47.153   7.138  12.185  0.00  0.00    +0.000 A 
ATOM      6  C   UNL     1      46.190   6.587  11.312  0.00  0.00    +0.000 A 
ATOM      7  C   UNL     1      45.577   5.372  11.627  0.00  0.00    +0.000 A 
ATOM      8  C   UNL     1      45.887   4.734  12.828  0.00  0.00    +0.000 A 
ATOM      9  C   UNL     1      46.830   5.265  13.716  0.00  0.00    +0.000 A 
ATOM     10 CL   UNL     1      47.085   4.410  15.186  0.00  0.00    +0.000 Cl
ATOM     11  C   UNL     1      47.494   6.458  13.368  0.00  0.00    +0.000 A 
BRANCH   7  12
ATOM     12  C   UNL     1      44.588   4.701  10.730  0.00  0.00    +0.000 C 
ATOM     13  N   UNL     1      44.778   4.762   9.380  0.00  0.00    +0.000 N 
ATOM     14  O   UNL     1      43.624   4.098  11.183  0.00  0.00    +0.000 OA
ATOM     15  H   UNL     1      45.537   5.229   8.912  0.00  0.00    +0.000 HD
ATOM     16  H   UNL     1      44.095   4.284   8.805  0.00  0.00    +0.000 HD
ENDBRANCH   7  12
ENDBRANCH   1   2
BRANCH   1  19
ATOM     17  C   UNL     1      48.403   9.166  17.894  0.00  0.00    +0.000 A 
ATOM     18  C   UNL     1      48.795   8.721  16.640  0.00  0.00    +0.000 A 
ATOM     19  C   UNL     1      48.776   7.363  16.379  0.00  0.00    +0.000 A 
ATOM     20  N   UNL     1      48.339   6.476  17.295  0.00  0.00    +0.000 NA
ATOM     21  C   UNL     1      47.901   6.989  18.458  0.00  0.00    +0.000 A 
ATOM     22  N   UNL     1      47.922   8.300  18.818  0.00  0.00    +0.000 NA
BRANCH  17  24
ATOM     23  C   UNL     1      48.701  11.472  16.981  0.00  0.00    +0.000 C 
ATOM     24  C   UNL     1      48.500  10.653  18.267  0.00  0.00    +0.000 C 
ATOM     25  C   UNL     1      49.670  10.948  19.234  0.00  0.00    +0.000 C 
ATOM     26  C   UNL     1      47.211  11.120  18.976  0.00  0.00    +0.000 C 
ENDBRANCH  17  24
BRANCH  21  27
ATOM     27  C   UNL     1      47.335   6.036  19.482  0.00  0.00    +0.000 C 
ATOM     28  O   UNL     1      47.639   5.984  20.660  0.00  0.00    +0.000 OA
BRANCH  27  29
ATOM     29  O   UNL     1      46.412   5.211  18.914  0.00  0.00    +0.000 OA
ATOM     30  H   UNL     1      45.523   5.637  18.957  0.00  0.00    +0.000 HD
ENDBRANCH  27  29
ENDBRANCH  21  27
ENDBRANCH   1  19
TORSDOF 6
ENDMDL
MODEL 9
REMARK VINA RESULT:    -5.855      2.237      2.976
REMARK INTER + INTRA:          -8.205
REMARK INTER:                  -7.498
REMARK INTRA:                  -0.707
REMARK UNBOUND:                -0.467
REMARK  Name = 
REMARK  9 active torsions:
REMARK  status: ('A' for Active; 'I' for Inactive)
REMARK    1  A    between atoms: C_1  and  C_2
REMARK    2  A    between atoms: C_2  and  C_3
REMARK    3  A    between atoms: C_2  and  C_4
REMARK    4  A    between atoms: C_2  and  C_5
REMARK    5  A    between atoms: C_7  and  C_8
REMARK    6  A    between atoms: C_8  and  N_9
REMARK    7  A    between atoms: C_14  and  C_15
REMARK    8  A    between atoms: C_23  and  C_24
REMARK    9  A    between atoms: C_24  and  O_26
REMARK                            x       y       z     vdW  Elec       q    Type
REMARK                         _______ _______ _______ _____ _____    ______ ____
ROOT
ATOM      1  C   UNL     1      49.214   7.026  14.318  0.00  0.00    +0.000 C 
ENDROOT
BRANCH   1   2
ATOM      2  N   UNL     1      48.011   7.569  13.702  0.00  0.00    +0.000 N 
ATOM      3  C   UNL     1      47.888   8.909  13.414  0.00  0.00    +0.000 A 
ATOM      4  C   UNL     1      46.733   9.088  12.697  0.00  0.00    +0.000 A 
ATOM      5  C   UNL     1      46.104   7.822  12.579  0.00  0.00    +0.000 A 
ATOM      6  C   UNL     1      44.922   7.408  11.926  0.00  0.00    +0.000 A 
ATOM      7  C   UNL     1      44.532   6.068  11.972  0.00  0.00    +0.000 A 
ATOM      8  C   UNL     1      45.290   5.154  12.704  0.00  0.00    +0.000 A 
ATOM      9  C   UNL     1      46.460   5.540  13.369  0.00  0.00    +0.000 A 
ATOM     10 CL   UNL     1      47.275   4.331  14.279  0.00  0.00    +0.000 Cl
ATOM     11  C   UNL     1      46.886   6.880  13.270  0.00  0.00    +0.000 A 
BRANCH   7  12
ATOM     12  C   UNL     1      43.325   5.545  11.264  0.00  0.00    +0.000 C 
ATOM     13  N   UNL     1      43.489   4.902  10.071  0.00  0.00    +0.000 N 
ATOM     14  O   UNL     1      42.203   5.678  11.735  0.00  0.00    +0.000 OA
ATOM     15  H   UNL     1      44.366   4.742   9.604  0.00  0.00    +0.000 HD
ATOM     16  H   UNL     1      42.649   4.551   9.627  0.00  0.00    +0.000 HD
ENDBRANCH   7  12
ENDBRANCH   1   2
BRANCH   1  19
ATOM     17  C   UNL     1      49.291   5.865  17.906  0.00  0.00    +0.000 A 
ATOM     18  C   UNL     1      49.530   5.907  16.539  0.00  0.00    +0.000 A 
ATOM     19  C   UNL     1      49.118   7.020  15.827  0.00  0.00    +0.000 A 
ATOM     20  N   UNL     1      48.542   8.074  16.437  0.00  0.00    +0.000 NA
ATOM     21  C   UNL     1      48.416   7.992  17.773  0.00  0.00    +0.000 A 
ATOM     22  N   UNL     1      48.750   6.927  18.548  0.00  0.00    +0.000 NA
BRANCH  17  24
ATOM     23  C   UNL     1      51.072   4.756  19.263  0.00  0.00    +0.000 C 
ATOM     24  C   UNL     1      49.638   4.613  18.725  0.00  0.00    +0.000 C 
ATOM     25  C   UNL     1      49.546   3.313  17.892  0.00  0.00    +0.000 C 
ATOM     26  C   UNL     1      48.661   4.451  19.909  0.00  0.00    +0.000 C 
ENDBRANCH  17  24
BRANCH  21  27
ATOM     27  C   UNL     1      47.842   9.181  18.503  0.00  0.00    +0.000 C 
ATOM     28  O   UNL     1      47.921  10.345  18.154  0.00  0.00    +0.000 OA
BRANCH  27  29
ATOM     29  O   UNL     1      47.204   8.786  19.640  0.00  0.00    +0.000 OA
ATOM     30  H   UNL     1      47.365   7.824  19.787  0.00  0.00    +0.000 HD
ENDBRANCH  27  29
ENDBRANCH  21  27
ENDBRANCH   1  19
TORSDOF 6
ENDMDL
