MODEL 1
REMARK VINA RESULT:    -8.262      0.000      0.000
REMARK INTER + INTRA:         -12.881
REMARK INTER:                 -11.643
REMARK INTRA:                  -1.238
REMARK UNBOUND:                -1.238
REMARK  Name = 
REMARK  7 active torsions:
REMARK  status: ('A' for Active; 'I' for Inactive)
REMARK    1  A    between atoms: C_2  and  C_3
REMARK    2  A    between atoms: C_6  and  N_7
REMARK    3  A    between atoms: N_7  and  C_8
REMARK    4  A    between atoms: C_8  and  C_9
REMARK    5  A    between atoms: C_14  and  C_15
REMARK    6  A    between atoms: C_19  and  O_20
REMARK    7  A    between atoms: O_20  and  C_21
REMARK                            x       y       z     vdW  Elec       q    Type
REMARK                         _______ _______ _______ _____ _____    ______ ____
ROOT
ATOM      1  C   UNL     1      45.047   5.415  12.167  0.00  0.00    +0.000 A 
ATOM      2  C   UNL     1      45.510   4.528  13.150  0.00  0.00    +0.000 A 
ATOM      3  C   UNL     1      46.722   4.752  13.782  0.00  0.00    +0.000 A 
ATOM      4  F   UNL     1      47.195   3.836  14.638  0.00  0.00    +0.000 F 
ATOM      5  C   UNL     1      47.489   5.874  13.487  0.00  0.00    +0.000 A 
ATOM      6  C   UNL     1      47.029   6.829  12.569  0.00  0.00    +0.000 A 
ATOM      7  C   UNL     1      45.790   6.588  11.947  0.00  0.00    +0.000 A 
ENDROOT
BRANCH   6   8
ATOM      8  C   UNL     1      47.848   7.993  12.172  0.00  0.00    +0.000 A 
ATOM      9  C   UNL     1      47.308   9.290  12.136  0.00  0.00    +0.000 A 
ATOM     10  C   UNL     1      48.055  10.371  11.665  0.00  0.00    +0.000 A 
ATOM     11  C   UNL     1      49.369  10.178  11.249  0.00  0.00    +0.000 A 
ATOM     12  C   UNL     1      49.947   8.911  11.317  0.00  0.00    +0.000 A 
ATOM     13  C   UNL     1      49.181   7.826  11.749  0.00  0.00    +0.000 A 
BRANCH  12  14
ATOM     14  O   UNL     1      51.246   8.835  10.896  0.00  0.00    +0.000 OA
BRANCH  14  15
ATOM     15  C   UNL     1      51.768   7.520  10.789  0.00  0.00    +0.000 C 
ATOM     16  F   UNL     1      51.576   7.071   9.524  0.00  0.00    +0.000 F 
ATOM     17  F   UNL     1      53.110   7.599  10.974  0.00  0.00    +0.000 F 
ENDBRANCH  14  15
ENDBRANCH  12  14
ENDBRANCH   6   8
BRANCH   1  18
ATOM     18  C   UNL     1      43.901   5.020  11.244  0.00  0.00    +0.000 C 
ATOM     19  C   UNL     1      42.761   4.183  11.794  0.00  0.00    +0.000 C 
ATOM     20  C   UNL     1      42.567   5.655  11.647  0.00  0.00    +0.000 C 
BRANCH  18  21
ATOM     21  N   UNL     1      44.203   5.060   9.820  0.00  0.00    +0.000 N 
ATOM     22  H   UNL     1      44.008   5.900   9.286  0.00  0.00    +0.000 HD
BRANCH  21  26
ATOM     23  C   UNL     1      46.730   2.808   7.506  0.00  0.00    +0.000 A 
ATOM     24  C   UNL     1      46.729   4.192   7.490  0.00  0.00    +0.000 A 
ATOM     25  N   UNL     1      45.902   4.926   8.279  0.00  0.00    +0.000 NA
ATOM     26  C   UNL     1      45.056   4.250   9.090  0.00  0.00    +0.000 A 
ATOM     27  C   UNL     1      45.074   2.855   9.098  0.00  0.00    +0.000 A 
ATOM     28  N   UNL     1      45.903   2.104   8.317  0.00  0.00    +0.000 NA
BRANCH  23  30
ATOM     29  N   UNL     1      48.366   1.545   5.934  0.00  0.00    +0.000 NA
ATOM     30  C   UNL     1      47.614   2.081   6.643  0.00  0.00    +0.000 C 
ENDBRANCH  23  30
ENDBRANCH  21  26
ENDBRANCH  18  21
ENDBRANCH   1  18
TORSDOF 7
ENDMDL
MODEL 2
REMARK VINA RESULT:    -8.104      3.007      5.059
REMARK INTER + INTRA:         -12.658
REMARK INTER:                 -11.692
REMARK INTRA:                  -0.966
REMARK UNBOUND:                -1.238
REMARK  Name = 
REMARK  7 active torsions:
REMARK  status: ('A' for Active; 'I' for Inactive)
REMARK    1  A    between atoms: C_2  and  C_3
REMARK    2  A    between atoms: C_6  and  N_7
REMARK    3  A    between atoms: N_7  and  C_8
REMARK    4  A    between atoms: C_8  and  C_9
REMARK    5  A    between atoms: C_14  and  C_15
REMARK    6  A    between atoms: C_19  and  O_20
REMARK    7  A    between atoms: O_20  and  C_21
REMARK                            x       y       z     vdW  Elec       q    Type
REMARK                         _______ _______ _______ _____ _____    ______ ____
ROOT
ATOM      1  C   UNL     1      45.513   5.087  12.111  0.00  0.00    +0.000 A 
ATOM      2  C   UNL     1      46.046   6.271  11.580  0.00  0.00    +0.000 A 
ATOM      3  C   UNL     1      47.036   6.962  12.261  0.00  0.00    +0.000 A 
ATOM      4  F   UNL     1      47.453   8.145  11.790  0.00  0.00    +0.000 F 
ATOM      5  C   UNL     1      47.548   6.485  13.462  0.00  0.00    +0.000 A 
ATOM      6  C   UNL     1      47.102   5.265  13.991  0.00  0.00    +0.000 A 
ATOM      7  C   UNL     1      46.105   4.573  13.278  0.00  0.00    +0.000 A 
ENDROOT
BRANCH   6   8
ATOM      8  C   UNL     1      47.566   4.763  15.301  0.00  0.00    +0.000 A 
ATOM      9  C   UNL     1      47.507   3.396  15.623  0.00  0.00    +0.000 A 
ATOM     10  C   UNL     1      47.851   2.938  16.897  0.00  0.00    +0.000 A 
ATOM     11  C   UNL     1      48.290   3.839  17.863  0.00  0.00    +0.000 A 
ATOM     12  C   UNL     1      48.402   5.194  17.558  0.00  0.00    +0.000 A 
ATOM     13  C   UNL     1      48.016   5.652  16.296  0.00  0.00    +0.000 A 
BRANCH  12  14
ATOM     14  O   UNL     1      48.856   5.989  18.575  0.00  0.00    +0.000 OA
BRANCH  14  15
ATOM     15  C   UNL     1      47.853   6.734  19.248  0.00  0.00    +0.000 C 
ATOM     16  F   UNL     1      47.559   7.838  18.518  0.00  0.00    +0.000 F 
ATOM     17  F   UNL     1      46.730   5.974  19.274  0.00  0.00    +0.000 F 
ENDBRANCH  14  15
ENDBRANCH  12  14
ENDBRANCH   6   8
BRANCH   1  18
ATOM     18  C   UNL     1      44.222   4.502  11.556  0.00  0.00    +0.000 C 
ATOM     19  C   UNL     1      43.337   3.665  12.462  0.00  0.00    +0.000 C 
ATOM     20  C   UNL     1      42.971   5.090  12.215  0.00  0.00    +0.000 C 
BRANCH  18  21
ATOM     21  N   UNL     1      44.161   4.382  10.106  0.00  0.00    +0.000 N 
ATOM     22  H   UNL     1      43.601   5.034   9.568  0.00  0.00    +0.000 HD
BRANCH  21  26
ATOM     23  C   UNL     1      46.700   2.588   7.431  0.00  0.00    +0.000 A 
ATOM     24  C   UNL     1      46.499   3.957   7.474  0.00  0.00    +0.000 A 
ATOM     25  N   UNL     1      45.672   4.540   8.381  0.00  0.00    +0.000 NA
ATOM     26  C   UNL     1      45.032   3.726   9.252  0.00  0.00    +0.000 A 
ATOM     27  C   UNL     1      45.250   2.349   9.198  0.00  0.00    +0.000 A 
ATOM     28  N   UNL     1      46.082   1.749   8.299  0.00  0.00    +0.000 NA
BRANCH  23  30
ATOM     29  N   UNL     1      48.303   1.622   5.632  0.00  0.00    +0.000 NA
ATOM     30  C   UNL     1      47.573   2.022   6.446  0.00  0.00    +0.000 C 
ENDBRANCH  23  30
ENDBRANCH  21  26
ENDBRANCH  18  21
ENDBRANCH   1  18
TORSDOF 7
ENDMDL
MODEL 3
REMARK VINA RESULT:    -8.091      3.073      4.463
REMARK INTER + INTRA:         -12.639
REMARK INTER:                 -11.595
REMARK INTRA:                  -1.044
REMARK UNBOUND:                -1.238
REMARK  Name = 
REMARK  7 active torsions:
REMARK  status: ('A' for Active; 'I' for Inactive)
REMARK    1  A    between atoms: C_2  and  C_3
REMARK    2  A    between atoms: C_6  and  N_7
REMARK    3  A    between atoms: N_7  and  C_8
REMARK    4  A    between atoms: C_8  and  C_9
REMARK    5  A    between atoms: C_14  and  C_15
REMARK    6  A    between atoms: C_19  and  O_20
REMARK    7  A    between atoms: O_20  and  C_21
REMARK                            x       y       z     vdW  Elec       q    Type
REMARK                         _______ _______ _______ _____ _____    ______ ____
ROOT
ATOM      1  C   UNL     1      45.126   5.889  11.862  0.00  0.00    +0.000 A 
ATOM      2  C   UNL     1      44.953   7.184  11.354  0.00  0.00    +0.000 A 
ATOM      3  C   UNL     1      45.688   8.242  11.864  0.00  0.00    +0.000 A 
ATOM      4  F   UNL     1      45.429   9.486  11.440  0.00  0.00    +0.000 F 
ATOM      5  C   UNL     1      46.636   8.042  12.861  0.00  0.00    +0.000 A 
ATOM      6  C   UNL     1      46.900   6.752  13.343  0.00  0.00    +0.000 A 
ATOM      7  C   UNL     1      46.150   5.690  12.804  0.00  0.00    +0.000 A 
ENDROOT
BRANCH   6   8
ATOM      8  C   UNL     1      47.843   6.509  14.454  0.00  0.00    +0.000 A 
ATOM      9  C   UNL     1      48.999   7.292  14.619  0.00  0.00    +0.000 A 
ATOM     10  C   UNL     1      49.938   6.996  15.608  0.00  0.00    +0.000 A 
ATOM     11  C   UNL     1      49.723   5.926  16.471  0.00  0.00    +0.000 A 
ATOM     12  C   UNL     1      48.564   5.159  16.362  0.00  0.00    +0.000 A 
ATOM     13  C   UNL     1      47.648   5.434  15.344  0.00  0.00    +0.000 A 
BRANCH  12  14
ATOM     14  O   UNL     1      48.446   4.141  17.268  0.00  0.00    +0.000 OA
BRANCH  14  15
ATOM     15  C   UNL     1      47.914   2.932  16.749  0.00  0.00    +0.000 C 
ATOM     16  F   UNL     1      48.917   2.030  16.613  0.00  0.00    +0.000 F 
ATOM     17  F   UNL     1      47.064   2.430  17.679  0.00  0.00    +0.000 F 
ENDBRANCH  14  15
ENDBRANCH  12  14
ENDBRANCH   6   8
BRANCH   1  18
ATOM     18  C   UNL     1      44.114   4.793  11.552  0.00  0.00    +0.000 C 
ATOM     19  C   UNL     1      43.690   3.842  12.656  0.00  0.00    +0.000 C 
ATOM     20  C   UNL     1      42.790   4.978  12.300  0.00  0.00    +0.000 C 
BRANCH  18  21
ATOM     21  N   UNL     1      43.988   4.437  10.146  0.00  0.00    +0.000 N 
ATOM     22  H   UNL     1      43.320   4.926   9.559  0.00  0.00    +0.000 HD
BRANCH  21  26
ATOM     23  C   UNL     1      46.610   2.572   7.604  0.00  0.00    +0.000 A 
ATOM     24  C   UNL     1      46.420   3.943   7.614  0.00  0.00    +0.000 A 
ATOM     25  N   UNL     1      45.564   4.550   8.478  0.00  0.00    +0.000 NA
ATOM     26  C   UNL     1      44.884   3.758   9.338  0.00  0.00    +0.000 A 
ATOM     27  C   UNL     1      45.092   2.378   9.318  0.00  0.00    +0.000 A 
ATOM     28  N   UNL     1      45.952   1.754   8.462  0.00  0.00    +0.000 NA
BRANCH  23  30
ATOM     29  N   UNL     1      48.268   1.558   5.882  0.00  0.00    +0.000 NA
ATOM     30  C   UNL     1      47.515   1.980   6.663  0.00  0.00    +0.000 C 
ENDBRANCH  23  30
ENDBRANCH  21  26
ENDBRANCH  18  21
ENDBRANCH   1  18
TORSDOF 7
ENDMDL
MODEL 4
REMARK VINA RESULT:    -7.627      2.959      4.935
REMARK INTER + INTRA:         -11.986
REMARK INTER:                 -11.426
REMARK INTRA:                  -0.560
REMARK UNBOUND:                -1.238
REMARK  Name = 
REMARK  7 active torsions:
REMARK  status: ('A' for Active; 'I' for Inactive)
REMARK    1  A    between atoms: C_2  and  C_3
REMARK    2  A    between atoms: C_6  and  N_7
REMARK    3  A    between atoms: N_7  and  C_8
REMARK    4  A    between atoms: C_8  and  C_9
REMARK    5  A    between atoms: C_14  and  C_15
REMARK    6  A    between atoms: C_19  and  O_20
REMARK    7  A    between atoms: O_20  and  C_21
REMARK                            x       y       z     vdW  Elec       q    Type
REMARK                         _______ _______ _______ _____ _____    ______ ____
ROOT
ATOM      1  C   UNL     1      45.237   5.204  11.859  0.00  0.00    +0.000 A 
ATOM      2  C   UNL     1      46.087   6.184  11.328  0.00  0.00    +0.000 A 
ATOM      3  C   UNL     1      47.254   6.534  11.988  0.00  0.00    +0.000 A 
ATOM      4  F   UNL     1      47.995   7.547  11.520  0.00  0.00    +0.000 F 
ATOM      5  C   UNL     1      47.628   5.901  13.168  0.00  0.00    +0.000 A 
ATOM      6  C   UNL     1      46.850   4.861  13.695  0.00  0.00    +0.000 A 
ATOM      7  C   UNL     1      45.675   4.513  13.002  0.00  0.00    +0.000 A 
ENDROOT
BRANCH   6   8
ATOM      8  C   UNL     1      47.173   4.216  14.985  0.00  0.00    +0.000 A 
ATOM      9  C   UNL     1      46.704   4.740  16.202  0.00  0.00    +0.000 A 
ATOM     10  C   UNL     1      47.093   4.188  17.424  0.00  0.00    +0.000 A 
ATOM     11  C   UNL     1      47.937   3.081  17.448  0.00  0.00    +0.000 A 
ATOM     12  C   UNL     1      48.381   2.512  16.256  0.00  0.00    +0.000 A 
ATOM     13  C   UNL     1      48.022   3.094  15.038  0.00  0.00    +0.000 A 
BRANCH  12  14
ATOM     14  O   UNL     1      49.195   1.420  16.394  0.00  0.00    +0.000 OA
BRANCH  14  15
ATOM     15  C   UNL     1      50.555   1.715  16.669  0.00  0.00    +0.000 C 
ATOM     16  F   UNL     1      50.656   3.010  17.058  0.00  0.00    +0.000 F 
ATOM     17  F   UNL     1      50.927   0.960  17.733  0.00  0.00    +0.000 F 
ENDBRANCH  14  15
ENDBRANCH  12  14
ENDBRANCH   6   8
BRANCH   1  18
ATOM     18  C   UNL     1      43.817   5.043  11.334  0.00  0.00    +0.000 C 
ATOM     19  C   UNL     1      42.655   5.087  12.311  0.00  0.00    +0.000 C 
ATOM     20  C   UNL     1      42.970   6.306  11.511  0.00  0.00    +0.000 C 
BRANCH  18  21
ATOM     21  N   UNL     1      43.699   4.394  10.036  0.00  0.00    +0.000 N 
ATOM     22  H   UNL     1      42.930   4.633   9.420  0.00  0.00    +0.000 HD
BRANCH  21  26
ATOM     23  C   UNL     1      46.536   2.556   7.714  0.00  0.00    +0.000 A 
ATOM     24  C   UNL     1      46.237   3.904   7.610  0.00  0.00    +0.000 A 
ATOM     25  N   UNL     1      45.311   4.504   8.402  0.00  0.00    +0.000 NA
ATOM     26  C   UNL     1      44.671   3.729   9.307  0.00  0.00    +0.000 A 
ATOM     27  C   UNL     1      44.987   2.373   9.402  0.00  0.00    +0.000 A 
ATOM     28  N   UNL     1      45.919   1.757   8.620  0.00  0.00    +0.000 NA
BRANCH  23  30
ATOM     29  N   UNL     1      48.259   1.480   6.096  0.00  0.00    +0.000 NA
ATOM     30  C   UNL     1      47.513   1.968   6.845  0.00  0.00    +0.000 C 
ENDBRANCH  23  30
ENDBRANCH  21  26
ENDBRANCH  18  21
ENDBRANCH   1  18
TORSDOF 7
ENDMDL
MODEL 5
REMARK VINA RESULT:    -7.171      4.648      7.782
REMARK INTER + INTRA:         -11.343
REMARK INTER:                 -10.411
REMARK INTRA:                  -0.932
REMARK UNBOUND:                -1.238
REMARK  Name = 
REMARK  7 active torsions:
REMARK  status: ('A' for Active; 'I' for Inactive)
REMARK    1  A    between atoms: C_2  and  C_3
REMARK    2  A    between atoms: C_6  and  N_7
REMARK    3  A    between atoms: N_7  and  C_8
REMARK    4  A    between atoms: C_8  and  C_9
REMARK    5  A    between atoms: C_14  and  C_15
REMARK    6  A    between atoms: C_19  and  O_20
REMARK    7  A    between atoms: O_20  and  C_21
REMARK                            x       y       z     vdW  Elec       q    Type
REMARK                         _______ _______ _______ _____ _____    ______ ____
ROOT
ATOM      1  C   UNL     1      47.221   7.740  12.560  0.00  0.00    +0.000 A 
ATOM      2  C   UNL     1      46.272   8.764  12.683  0.00  0.00    +0.000 A 
ATOM      3  C   UNL     1      45.036   8.654  12.066  0.00  0.00    +0.000 A 
ATOM      4  F   UNL     1      44.187   9.689  12.106  0.00  0.00    +0.000 F 
ATOM      5  C   UNL     1      44.694   7.516  11.344  0.00  0.00    +0.000 A 
ATOM      6  C   UNL     1      45.581   6.433  11.260  0.00  0.00    +0.000 A 
ATOM      7  C   UNL     1      46.826   6.561  11.903  0.00  0.00    +0.000 A 
ENDROOT
BRANCH   6   8
ATOM      8  C   UNL     1      45.286   5.240  10.440  0.00  0.00    +0.000 A 
ATOM      9  C   UNL     1      44.641   4.117  10.987  0.00  0.00    +0.000 A 
ATOM     10  C   UNL     1      44.455   2.954  10.237  0.00  0.00    +0.000 A 
ATOM     11  C   UNL     1      44.883   2.905   8.914  0.00  0.00    +0.000 A 
ATOM     12  C   UNL     1      45.484   4.019   8.330  0.00  0.00    +0.000 A 
ATOM     13  C   UNL     1      45.706   5.165   9.098  0.00  0.00    +0.000 A 
BRANCH  12  14
ATOM     14  O   UNL     1      45.855   3.868   7.022  0.00  0.00    +0.000 OA
BRANCH  14  15
ATOM     15  C   UNL     1      46.656   2.729   6.751  0.00  0.00    +0.000 C 
ATOM     16  F   UNL     1      46.774   2.581   5.408  0.00  0.00    +0.000 F 
ATOM     17  F   UNL     1      47.902   2.987   7.224  0.00  0.00    +0.000 F 
ENDBRANCH  14  15
ENDBRANCH  12  14
ENDBRANCH   6   8
BRANCH   1  18
ATOM     18  C   UNL     1      48.675   7.980  12.945  0.00  0.00    +0.000 C 
ATOM     19  C   UNL     1      49.777   7.371  12.098  0.00  0.00    +0.000 C 
ATOM     20  C   UNL     1      49.436   8.810  11.906  0.00  0.00    +0.000 C 
BRANCH  18  21
ATOM     21  N   UNL     1      48.900   8.364  14.331  0.00  0.00    +0.000 N 
ATOM     22  H   UNL     1      48.810   9.335  14.608  0.00  0.00    +0.000 HD
BRANCH  21  26
ATOM     23  C   UNL     1      48.713   5.882  17.590  0.00  0.00    +0.000 A 
ATOM     24  C   UNL     1      48.601   5.423  16.289  0.00  0.00    +0.000 A 
ATOM     25  N   UNL     1      48.688   6.254  15.218  0.00  0.00    +0.000 NA
ATOM     26  C   UNL     1      48.882   7.570  15.466  0.00  0.00    +0.000 A 
ATOM     27  C   UNL     1      48.998   8.014  16.783  0.00  0.00    +0.000 A 
ATOM     28  N   UNL     1      48.920   7.193  17.869  0.00  0.00    +0.000 NA
BRANCH  23  30
ATOM     29  N   UNL     1      48.462   4.191  19.545  0.00  0.00    +0.000 NA
ATOM     30  C   UNL     1      48.601   4.965  18.687  0.00  0.00    +0.000 C 
ENDBRANCH  23  30
ENDBRANCH  21  26
ENDBRANCH  18  21
ENDBRANCH   1  18
TORSDOF 7
ENDMDL
MODEL 6
REMARK VINA RESULT:    -7.092      4.847      7.726
REMARK INTER + INTRA:         -11.232
REMARK INTER:                 -10.317
REMARK INTRA:                  -0.915
REMARK UNBOUND:                -1.238
REMARK  Name = 
REMARK  7 active torsions:
REMARK  status: ('A' for Active; 'I' for Inactive)
REMARK    1  A    between atoms: C_2  and  C_3
REMARK    2  A    between atoms: C_6  and  N_7
REMARK    3  A    between atoms: N_7  and  C_8
REMARK    4  A    between atoms: C_8  and  C_9
REMARK    5  A    between atoms: C_14  and  C_15
REMARK    6  A    between atoms: C_19  and  O_20
REMARK    7  A    between atoms: O_20  and  C_21
REMARK                            x       y       z     vdW  Elec       q    Type
REMARK                         _______ _______ _______ _____ _____    ______ ____
ROOT
ATOM      1  C   UNL     1      47.325   7.799  12.455  0.00  0.00    +0.000 A 
ATOM      2  C   UNL     1      46.441   8.886  12.509  0.00  0.00    +0.000 A 
ATOM      3  C   UNL     1      45.173   8.787  11.960  0.00  0.00    +0.000 A 
ATOM      4  F   UNL     1      44.386   9.871  11.927  0.00  0.00    +0.000 F 
ATOM      5  C   UNL     1      44.733   7.604  11.378  0.00  0.00    +0.000 A 
ATOM      6  C   UNL     1      45.553   6.466  11.372  0.00  0.00    +0.000 A 
ATOM      7  C   UNL     1      46.833   6.585  11.945  0.00  0.00    +0.000 A 
ENDROOT
BRANCH   6   8
ATOM      8  C   UNL     1      45.152   5.215  10.696  0.00  0.00    +0.000 A 
ATOM      9  C   UNL     1      44.517   4.175  11.397  0.00  0.00    +0.000 A 
ATOM     10  C   UNL     1      44.230   2.956  10.780  0.00  0.00    +0.000 A 
ATOM     11  C   UNL     1      44.548   2.766   9.438  0.00  0.00    +0.000 A 
ATOM     12  C   UNL     1      45.137   3.795   8.705  0.00  0.00    +0.000 A 
ATOM     13  C   UNL     1      45.459   4.998   9.339  0.00  0.00    +0.000 A 
BRANCH  12  14
ATOM     14  O   UNL     1      45.395   3.507   7.393  0.00  0.00    +0.000 OA
BRANCH  14  15
ATOM     15  C   UNL     1      46.771   3.421   7.056  0.00  0.00    +0.000 C 
ATOM     16  F   UNL     1      47.282   2.278   7.575  0.00  0.00    +0.000 F 
ATOM     17  F   UNL     1      46.852   3.305   5.707  0.00  0.00    +0.000 F 
ENDBRANCH  14  15
ENDBRANCH  12  14
ENDBRANCH   6   8
BRANCH   1  18
ATOM     18  C   UNL     1      48.807   7.989  12.750  0.00  0.00    +0.000 C 
ATOM     19  C   UNL     1      49.834   7.445  11.774  0.00  0.00    +0.000 C 
ATOM     20  C   UNL     1      49.504   8.899  11.735  0.00  0.00    +0.000 C 
BRANCH  18  21
ATOM     21  N   UNL     1      49.140   8.246  14.144  0.00  0.00    +0.000 N 
ATOM     22  H   UNL     1      48.795   9.084  14.600  0.00  0.00    +0.000 HD
BRANCH  21  26
ATOM     23  C   UNL     1      50.625   5.615  16.917  0.00  0.00    +0.000 A 
ATOM     24  C   UNL     1      51.395   6.607  16.335  0.00  0.00    +0.000 A 
ATOM     25  N   UNL     1      50.883   7.487  15.435  0.00  0.00    +0.000 NA
ATOM     26  C   UNL     1      49.576   7.355  15.111  0.00  0.00    +0.000 A 
ATOM     27  C   UNL     1      48.814   6.353  15.711  0.00  0.00    +0.000 A 
ATOM     28  N   UNL     1      49.310   5.467  16.622  0.00  0.00    +0.000 NA
BRANCH  23  30
ATOM     29  N   UNL     1      51.729   3.938  18.563  0.00  0.00    +0.000 NA
ATOM     30  C   UNL     1      51.216   4.704  17.853  0.00  0.00    +0.000 C 
ENDBRANCH  23  30
ENDBRANCH  21  26
ENDBRANCH  18  21
ENDBRANCH   1  18
TORSDOF 7
ENDMDL
MODEL 7
REMARK VINA RESULT:    -6.923      2.644      3.474
REMARK INTER + INTRA:         -10.994
REMARK INTER:                  -9.987
REMARK INTRA:                  -1.007
REMARK UNBOUND:                -1.238
REMARK  Name = 
REMARK  7 active torsions:
REMARK  status: ('A' for Active; 'I' for Inactive)
REMARK    1  A    between atoms: C_2  and  C_3
REMARK    2  A    between atoms: C_6  and  N_7
REMARK    3  A    between atoms: N_7  and  C_8
REMARK    4  A    between atoms: C_8  and  C_9
REMARK    5  A    between atoms: C_14  and  C_15
REMARK    6  A    between atoms: C_19  and  O_20
REMARK    7  A    between atoms: O_20  and  C_21
REMARK                            x       y       z     vdW  Elec       q    Type
REMARK                         _______ _______ _______ _____ _____    ______ ____
ROOT
ATOM      1  C   UNL     1      45.134   6.049  11.926  0.00  0.00    +0.000 A 
ATOM      2  C   UNL     1      44.801   7.333  11.473  0.00  0.00    +0.000 A 
ATOM      3  C   UNL     1      45.520   8.438  11.902  0.00  0.00    +0.000 A 
ATOM      4  F   UNL     1      45.117   9.663  11.542  0.00  0.00    +0.000 F 
ATOM      5  C   UNL     1      46.605   8.298  12.758  0.00  0.00    +0.000 A 
ATOM      6  C   UNL     1      47.024   7.026  13.175  0.00  0.00    +0.000 A 
ATOM      7  C   UNL     1      46.288   5.917  12.718  0.00  0.00    +0.000 A 
ENDROOT
BRANCH   6   8
ATOM      8  C   UNL     1      48.124   6.842  14.144  0.00  0.00    +0.000 A 
ATOM      9  C   UNL     1      47.971   6.026  15.279  0.00  0.00    +0.000 A 
ATOM     10  C   UNL     1      48.976   5.934  16.244  0.00  0.00    +0.000 A 
ATOM     11  C   UNL     1      50.166   6.635  16.075  0.00  0.00    +0.000 A 
ATOM     12  C   UNL     1      50.365   7.416  14.938  0.00  0.00    +0.000 A 
ATOM     13  C   UNL     1      49.340   7.538  13.997  0.00  0.00    +0.000 A 
BRANCH  12  14
ATOM     14  O   UNL     1      51.574   8.052  14.866  0.00  0.00    +0.000 OA
BRANCH  14  15
ATOM     15  C   UNL     1      51.513   9.468  14.916  0.00  0.00    +0.000 C 
ATOM     16  F   UNL     1      51.187   9.852  16.175  0.00  0.00    +0.000 F 
ATOM     17  F   UNL     1      52.763   9.938  14.678  0.00  0.00    +0.000 F 
ENDBRANCH  14  15
ENDBRANCH  12  14
ENDBRANCH   6   8
BRANCH   1  18
ATOM     18  C   UNL     1      44.172   4.884  11.732  0.00  0.00    +0.000 C 
ATOM     19  C   UNL     1      43.949   3.908  12.873  0.00  0.00    +0.000 C 
ATOM     20  C   UNL     1      42.937   4.977  12.633  0.00  0.00    +0.000 C 
BRANCH  18  21
ATOM     21  N   UNL     1      43.904   4.517  10.349  0.00  0.00    +0.000 N 
ATOM     22  H   UNL     1      43.102   4.910   9.868  0.00  0.00    +0.000 HD
BRANCH  21  26
ATOM     23  C   UNL     1      46.495   2.739   7.714  0.00  0.00    +0.000 A 
ATOM     24  C   UNL     1      45.716   2.019   8.603  0.00  0.00    +0.000 A 
ATOM     25  N   UNL     1      44.845   2.620   9.455  0.00  0.00    +0.000 NA
ATOM     26  C   UNL     1      44.766   3.970   9.413  0.00  0.00    +0.000 A 
ATOM     27  C   UNL     1      45.555   4.680   8.507  0.00  0.00    +0.000 A 
ATOM     28  N   UNL     1      46.429   4.092   7.640  0.00  0.00    +0.000 NA
BRANCH  23  30
ATOM     29  N   UNL     1      48.127   1.447   6.162  0.00  0.00    +0.000 NA
ATOM     30  C   UNL     1      47.408   2.057   6.845  0.00  0.00    +0.000 C 
ENDBRANCH  23  30
ENDBRANCH  21  26
ENDBRANCH  18  21
ENDBRANCH   1  18
TORSDOF 7
ENDMDL
MODEL 8
REMARK VINA RESULT:    -6.845      4.119      7.258
REMARK INTER + INTRA:         -10.884
REMARK INTER:                 -10.670
REMARK INTRA:                  -0.214
REMARK UNBOUND:                -1.238
REMARK  Name = 
REMARK  7 active torsions:
REMARK  status: ('A' for Active; 'I' for Inactive)
REMARK    1  A    between atoms: C_2  and  C_3
REMARK    2  A    between atoms: C_6  and  N_7
REMARK    3  A    between atoms: N_7  and  C_8
REMARK    4  A    between atoms: C_8  and  C_9
REMARK    5  A    between atoms: C_14  and  C_15
REMARK    6  A    between atoms: C_19  and  O_20
REMARK    7  A    between atoms: O_20  and  C_21
REMARK                            x       y       z     vdW  Elec       q    Type
REMARK                         _______ _______ _______ _____ _____    ______ ____
ROOT
ATOM      1  C   UNL     1      45.489   6.448  12.034  0.00  0.00    +0.000 A 
ATOM      2  C   UNL     1      44.152   6.798  12.272  0.00  0.00    +0.000 A 
ATOM      3  C   UNL     1      43.128   6.168  11.582  0.00  0.00    +0.000 A 
ATOM      4  F   UNL     1      41.868   6.593  11.746  0.00  0.00    +0.000 F 
ATOM      5  C   UNL     1      43.396   5.155  10.670  0.00  0.00    +0.000 A 
ATOM      6  C   UNL     1      44.711   4.717  10.457  0.00  0.00    +0.000 A 
ATOM      7  C   UNL     1      45.735   5.362  11.176  0.00  0.00    +0.000 A 
ENDROOT
BRANCH   6   8
ATOM      8  C   UNL     1      45.043   3.697   9.441  0.00  0.00    +0.000 A 
ATOM      9  C   UNL     1      44.752   2.337   9.646  0.00  0.00    +0.000 A 
ATOM     10  C   UNL     1      45.157   1.365   8.730  0.00  0.00    +0.000 A 
ATOM     11  C   UNL     1      45.836   1.740   7.574  0.00  0.00    +0.000 A 
ATOM     12  C   UNL     1      46.099   3.086   7.321  0.00  0.00    +0.000 A 
ATOM     13  C   UNL     1      45.728   4.050   8.262  0.00  0.00    +0.000 A 
BRANCH  12  14
ATOM     14  O   UNL     1      46.760   3.345   6.152  0.00  0.00    +0.000 OA
BRANCH  14  15
ATOM     15  C   UNL     1      47.744   2.389   5.792  0.00  0.00    +0.000 C 
ATOM     16  F   UNL     1      48.170   2.647   4.531  0.00  0.00    +0.000 F 
ATOM     17  F   UNL     1      48.811   2.576   6.609  0.00  0.00    +0.000 F 
ENDBRANCH  14  15
ENDBRANCH  12  14
ENDBRANCH   6   8
BRANCH   1  18
ATOM     18  C   UNL     1      46.623   7.338  12.527  0.00  0.00    +0.000 C 
ATOM     19  C   UNL     1      46.764   8.740  11.963  0.00  0.00    +0.000 C 
ATOM     20  C   UNL     1      46.124   8.563  13.299  0.00  0.00    +0.000 C 
BRANCH  18  21
ATOM     21  N   UNL     1      47.748   6.640  13.131  0.00  0.00    +0.000 N 
ATOM     22  H   UNL     1      48.697   6.900  12.881  0.00  0.00    +0.000 HD
BRANCH  21  26
ATOM     23  C   UNL     1      48.043   4.455  16.589  0.00  0.00    +0.000 A 
ATOM     24  C   UNL     1      48.739   5.633  16.383  0.00  0.00    +0.000 A 
ATOM     25  N   UNL     1      48.614   6.359  15.241  0.00  0.00    +0.000 NA
ATOM     26  C   UNL     1      47.780   5.882  14.290  0.00  0.00    +0.000 A 
ATOM     27  C   UNL     1      47.081   4.695  14.515  0.00  0.00    +0.000 A 
ATOM     28  N   UNL     1      47.190   3.958  15.658  0.00  0.00    +0.000 NA
BRANCH  23  30
ATOM     29  N   UNL     1      48.371   3.179  18.826  0.00  0.00    +0.000 NA
ATOM     30  C   UNL     1      48.220   3.719  17.806  0.00  0.00    +0.000 C 
ENDBRANCH  23  30
ENDBRANCH  21  26
ENDBRANCH  18  21
ENDBRANCH   1  18
TORSDOF 7
ENDMDL
MODEL 9
REMARK VINA RESULT:    -6.840      4.867      7.678
REMARK INTER + INTRA:         -10.877
REMARK INTER:                  -9.753
REMARK INTRA:                  -1.124
REMARK UNBOUND:                -1.238
REMARK  Name = 
REMARK  7 active torsions:
REMARK  status: ('A' for Active; 'I' for Inactive)
REMARK    1  A    between atoms: C_2  and  C_3
REMARK    2  A    between atoms: C_6  and  N_7
REMARK    3  A    between atoms: N_7  and  C_8
REMARK    4  A    between atoms: C_8  and  C_9
REMARK    5  A    between atoms: C_14  and  C_15
REMARK    6  A    between atoms: C_19  and  O_20
REMARK    7  A    between atoms: O_20  and  C_21
REMARK                            x       y       z     vdW  Elec       q    Type
REMARK                         _______ _______ _______ _____ _____    ______ ____
ROOT
ATOM      1  C   UNL     1      48.404   7.837  14.193  0.00  0.00    +0.000 A 
ATOM      2  C   UNL     1      49.345   8.141  13.199  0.00  0.00    +0.000 A 
ATOM      3  C   UNL     1      49.146   7.722  11.892  0.00  0.00    +0.000 A 
ATOM      4  F   UNL     1      50.108   7.929  10.983  0.00  0.00    +0.000 F 
ATOM      5  C   UNL     1      47.999   7.026  11.529  0.00  0.00    +0.000 A 
ATOM      6  C   UNL     1      46.994   6.769  12.472  0.00  0.00    +0.000 A 
ATOM      7  C   UNL     1      47.210   7.213  13.790  0.00  0.00    +0.000 A 
ENDROOT
BRANCH   6   8
ATOM      8  C   UNL     1      45.797   5.966  12.143  0.00  0.00    +0.000 A 
ATOM      9  C   UNL     1      44.914   5.525  13.144  0.00  0.00    +0.000 A 
ATOM     10  C   UNL     1      43.842   4.684  12.842  0.00  0.00    +0.000 A 
ATOM     11  C   UNL     1      43.616   4.293  11.525  0.00  0.00    +0.000 A 
ATOM     12  C   UNL     1      44.448   4.752  10.505  0.00  0.00    +0.000 A 
ATOM     13  C   UNL     1      45.544   5.559  10.819  0.00  0.00    +0.000 A 
BRANCH  12  14
ATOM     14  O   UNL     1      44.129   4.318   9.247  0.00  0.00    +0.000 OA
BRANCH  14  15
ATOM     15  C   UNL     1      45.176   3.655   8.556  0.00  0.00    +0.000 C 
ATOM     16  F   UNL     1      45.458   2.492   9.194  0.00  0.00    +0.000 F 
ATOM     17  F   UNL     1      44.705   3.321   7.329  0.00  0.00    +0.000 F 
ENDBRANCH  14  15
ENDBRANCH  12  14
ENDBRANCH   6   8
BRANCH   1  18
ATOM     18  C   UNL     1      48.754   7.997  15.666  0.00  0.00    +0.000 C 
ATOM     19  C   UNL     1      49.921   8.885  16.059  0.00  0.00    +0.000 C 
ATOM     20  C   UNL     1      48.535   9.424  16.178  0.00  0.00    +0.000 C 
BRANCH  18  21
ATOM     21  N   UNL     1      48.267   6.942  16.543  0.00  0.00    +0.000 N 
ATOM     22  H   UNL     1      47.308   6.960  16.872  0.00  0.00    +0.000 HD
BRANCH  21  26
ATOM     23  C   UNL     1      50.010   3.276  17.126  0.00  0.00    +0.000 A 
ATOM     24  C   UNL     1      50.649   4.467  17.424  0.00  0.00    +0.000 A 
ATOM     25  N   UNL     1      50.050   5.674  17.247  0.00  0.00    +0.000 NA
ATOM     26  C   UNL     1      48.791   5.677  16.754  0.00  0.00    +0.000 A 
ATOM     27  C   UNL     1      48.160   4.467  16.464  0.00  0.00    +0.000 A 
ATOM     28  N   UNL     1      48.743   3.247  16.643  0.00  0.00    +0.000 NA
BRANCH  23  30
ATOM     29  N   UNL     1      51.208   0.992  17.427  0.00  0.00    +0.000 NA
ATOM     30  C   UNL     1      50.690   2.029  17.319  0.00  0.00    +0.000 C 
ENDBRANCH  23  30
ENDBRANCH  21  26
ENDBRANCH  18  21
ENDBRANCH   1  18
TORSDOF 7
ENDMDL
