MODEL 1
REMARK VINA RESULT:    -7.820      0.000      0.000
REMARK INTER + INTRA:         -12.623
REMARK INTER:                 -11.248
REMARK INTRA:                  -1.375
REMARK UNBOUND:                -1.375
REMARK  Name = 
REMARK  8 active torsions:
REMARK  status: ('A' for Active; 'I' for Inactive)
REMARK    1  A    between atoms: N_1  and  C_2
REMARK    2  A    between atoms: C_2  and  C_3
REMARK    3  A    between atoms: C_2  and  C_17
REMARK    4  A    between atoms: C_3  and  N_4
REMARK    5  A    between atoms: C_5  and  C_7
REMARK    6  A    between atoms: C_20  and  C_21
REMARK    7  A    between atoms: C_21  and  N_22
REMARK    8  A    between atoms: C_23  and  C_25
REMARK                            x       y       z     vdW  Elec       q    Type
REMARK                         _______ _______ _______ _____ _____    ______ ____
ROOT
ATOM      1  C   UNL     1      47.575   4.435  15.778  0.00  0.00    +0.000 C 
ENDROOT
BRANCH   1   2
ATOM      2  C   UNL     1      47.026   4.842  14.408  0.00  0.00    +0.000 A 
ATOM      3  C   UNL     1      45.886   4.215  13.863  0.00  0.00    +0.000 A 
ATOM      4  C   UNL     1      45.306   4.646  12.667  0.00  0.00    +0.000 A 
ATOM      5  C   UNL     1      45.847   5.732  11.971  0.00  0.00    +0.000 A 
ATOM      6  C   UNL     1      46.976   6.362  12.499  0.00  0.00    +0.000 A 
ATOM      7  C   UNL     1      47.558   5.924  13.694  0.00  0.00    +0.000 A 
BRANCH   5   8
ATOM      8  C   UNL     1      45.209   6.255  10.717  0.00  0.00    +0.000 C 
BRANCH   8   9
ATOM      9  N   UNL     1      44.756   5.180   9.864  0.00  0.00    +0.000 N 
ATOM     10  C   UNL     1      45.483   4.780   8.769  0.00  0.00    +0.000 C 
ATOM     11  O   UNL     1      46.525   5.337   8.433  0.00  0.00    +0.000 OA
ATOM     12  H   UNL     1      43.831   4.794  10.027  0.00  0.00    +0.000 HD
BRANCH  10  13
ATOM     13  C   UNL     1      44.890   3.652   7.928  0.00  0.00    +0.000 C 
ATOM     14  C   UNL     1      44.566   2.433   8.759  0.00  0.00    +0.000 C 
ATOM     15  C   UNL     1      45.856   1.642   8.736  0.00  0.00    +0.000 C 
ATOM     16  O   UNL     1      46.591   2.055   7.572  0.00  0.00    +0.000 OA
ATOM     17  C   UNL     1      45.844   3.083   6.899  0.00  0.00    +0.000 C 
ENDBRANCH  10  13
ENDBRANCH   8   9
ENDBRANCH   5   8
ENDBRANCH   1   2
BRANCH   1  18
ATOM     18  N   UNL     1      46.528   4.075  16.757  0.00  0.00    +0.000 NA
ATOM     19  H   UNL     1      46.190   3.135  16.569  0.00  0.00    +0.000 HD
ATOM     20  H   UNL     1      45.738   4.708  16.655  0.00  0.00    +0.000 HD
ENDBRANCH   1  18
BRANCH   1  21
ATOM     21  C   UNL     1      48.479   5.527  16.405  0.00  0.00    +0.000 C 
BRANCH  21  22
ATOM     22  N   UNL     1      49.733   5.021  16.910  0.00  0.00    +0.000 N 
ATOM     23  C   UNL     1      49.854   4.588  18.203  0.00  0.00    +0.000 C 
ATOM     24  O   UNL     1      48.924   4.641  19.006  0.00  0.00    +0.000 OA
ATOM     25  H   UNL     1      50.514   5.008  16.261  0.00  0.00    +0.000 HD
BRANCH  23  26
ATOM     26  C   UNL     1      51.134   3.991  18.565  0.00  0.00    +0.000 A 
ATOM     27  C   UNL     1      51.983   4.657  19.437  0.00  0.00    +0.000 A 
ATOM     28  S   UNL     1      53.407   3.791  19.786  0.00  0.00    +0.000 S 
ATOM     29  C   UNL     1      52.964   2.526  18.738  0.00  0.00    +0.000 A 
ATOM     30  N   UNL     1      53.777   1.454  18.550  0.00  0.00    +0.000 NA
ATOM     31  C   UNL     1      53.334   0.596  17.697  0.00  0.00    +0.000 A 
ATOM     32  N   UNL     1      52.149   0.700  17.018  0.00  0.00    +0.000 N 
ATOM     33  C   UNL     1      51.274   1.748  17.198  0.00  0.00    +0.000 A 
ATOM     34  O   UNL     1      50.206   1.777  16.609  0.00  0.00    +0.000 OA
ATOM     35  C   UNL     1      51.734   2.753  18.141  0.00  0.00    +0.000 A 
ATOM     36  H   UNL     1      51.855  -0.011  16.369  0.00  0.00    +0.000 HD
ENDBRANCH  23  26
ENDBRANCH  21  22
ENDBRANCH   1  21
TORSDOF 8
ENDMDL
MODEL 2
REMARK VINA RESULT:    -7.424      2.805      4.027
REMARK INTER + INTRA:         -12.055
REMARK INTER:                 -10.730
REMARK INTRA:                  -1.324
REMARK UNBOUND:                -1.375
REMARK  Name = 
REMARK  8 active torsions:
REMARK  status: ('A' for Active; 'I' for Inactive)
REMARK    1  A    between atoms: N_1  and  C_2
REMARK    2  A    between atoms: C_2  and  C_3
REMARK    3  A    between atoms: C_2  and  C_17
REMARK    4  A    between atoms: C_3  and  N_4
REMARK    5  A    between atoms: C_5  and  C_7
REMARK    6  A    between atoms: C_20  and  C_21
REMARK    7  A    between atoms: C_21  and  N_22
REMARK    8  A    between atoms: C_23  and  C_25
REMARK                            x       y       z     vdW  Elec       q    Type
REMARK                         _______ _______ _______ _____ _____    ______ ____
ROOT
ATOM      1  C   UNL     1      45.653   8.327  13.230  0.00  0.00    +0.000 C 
ENDROOT
BRANCH   1   2
ATOM      2  C   UNL     1      45.345   7.024  12.488  0.00  0.00    +0.000 A 
ATOM      3  C   UNL     1      45.639   6.877  11.116  0.00  0.00    +0.000 A 
ATOM      4  C   UNL     1      45.467   5.662  10.448  0.00  0.00    +0.000 A 
ATOM      5  C   UNL     1      44.996   4.539  11.136  0.00  0.00    +0.000 A 
ATOM      6  C   UNL     1      44.702   4.669  12.496  0.00  0.00    +0.000 A 
ATOM      7  C   UNL     1      44.868   5.889  13.160  0.00  0.00    +0.000 A 
BRANCH   5   8
ATOM      8  C   UNL     1      44.861   3.205  10.460  0.00  0.00    +0.000 C 
BRANCH   8   9
ATOM      9  N   UNL     1      45.249   3.274   9.070  0.00  0.00    +0.000 N 
ATOM     10  C   UNL     1      45.487   2.137   8.337  0.00  0.00    +0.000 C 
ATOM     11  O   UNL     1      45.426   1.013   8.829  0.00  0.00    +0.000 OA
ATOM     12  H   UNL     1      45.450   4.186   8.671  0.00  0.00    +0.000 HD
BRANCH  10  13
ATOM     13  C   UNL     1      45.918   2.335   6.885  0.00  0.00    +0.000 C 
ATOM     14  C   UNL     1      46.952   1.320   6.455  0.00  0.00    +0.000 C 
ATOM     15  C   UNL     1      48.263   1.976   6.833  0.00  0.00    +0.000 C 
ATOM     16  O   UNL     1      48.029   3.392   6.904  0.00  0.00    +0.000 OA
ATOM     17  C   UNL     1      46.639   3.642   6.629  0.00  0.00    +0.000 C 
ENDBRANCH  10  13
ENDBRANCH   8   9
ENDBRANCH   5   8
ENDBRANCH   1   2
BRANCH   1  18
ATOM     18  N   UNL     1      45.102   9.532  12.573  0.00  0.00    +0.000 NA
ATOM     19  H   UNL     1      45.821   9.971  12.004  0.00  0.00    +0.000 HD
ATOM     20  H   UNL     1      44.823  10.205  13.282  0.00  0.00    +0.000 HD
ENDBRANCH   1  18
BRANCH   1  21
ATOM     21  C   UNL     1      47.172   8.540  13.453  0.00  0.00    +0.000 C 
BRANCH  21  22
ATOM     22  N   UNL     1      47.678   7.903  14.645  0.00  0.00    +0.000 N 
ATOM     23  C   UNL     1      48.391   6.737  14.578  0.00  0.00    +0.000 C 
ATOM     24  O   UNL     1      48.606   6.155  13.516  0.00  0.00    +0.000 OA
ATOM     25  H   UNL     1      47.473   8.361  15.528  0.00  0.00    +0.000 HD
BRANCH  23  26
ATOM     26  C   UNL     1      48.948   6.250  15.834  0.00  0.00    +0.000 A 
ATOM     27  C   UNL     1      50.018   6.914  16.418  0.00  0.00    +0.000 A 
ATOM     28  S   UNL     1      50.503   6.237  17.904  0.00  0.00    +0.000 S 
ATOM     29  C   UNL     1      49.339   5.002  17.787  0.00  0.00    +0.000 A 
ATOM     30  N   UNL     1      49.235   4.045  18.746  0.00  0.00    +0.000 NA
ATOM     31  C   UNL     1      48.341   3.149  18.506  0.00  0.00    +0.000 A 
ATOM     32  N   UNL     1      47.530   3.121  17.402  0.00  0.00    +0.000 N 
ATOM     33  C   UNL     1      47.572   4.086  16.420  0.00  0.00    +0.000 A 
ATOM     34  O   UNL     1      46.798   4.050  15.477  0.00  0.00    +0.000 OA
ATOM     35  C   UNL     1      48.577   5.113  16.636  0.00  0.00    +0.000 A 
ATOM     36  H   UNL     1      46.843   2.396  17.276  0.00  0.00    +0.000 HD
ENDBRANCH  23  26
ENDBRANCH  21  22
ENDBRANCH   1  21
TORSDOF 8
ENDMDL
MODEL 3
REMARK VINA RESULT:    -7.227      1.911      2.578
REMARK INTER + INTRA:         -11.771
REMARK INTER:                 -10.493
REMARK INTRA:                  -1.277
REMARK UNBOUND:                -1.375
REMARK  Name = 
REMARK  8 active torsions:
REMARK  status: ('A' for Active; 'I' for Inactive)
REMARK    1  A    between atoms: N_1  and  C_2
REMARK    2  A    between atoms: C_2  and  C_3
REMARK    3  A    between atoms: C_2  and  C_17
REMARK    4  A    between atoms: C_3  and  N_4
REMARK    5  A    between atoms: C_5  and  C_7
REMARK    6  A    between atoms: C_20  and  C_21
REMARK    7  A    between atoms: C_21  and  N_22
REMARK    8  A    between atoms: C_23  and  C_25
REMARK                            x       y       z     vdW  Elec       q    Type
REMARK                         _______ _______ _______ _____ _____    ______ ____
ROOT
ATOM      1  C   UNL     1      47.957   3.467  17.090  0.00  0.00    +0.000 C 
ENDROOT
BRANCH   1   2
ATOM      2  C   UNL     1      47.640   4.268  15.825  0.00  0.00    +0.000 A 
ATOM      3  C   UNL     1      48.143   5.574  15.642  0.00  0.00    +0.000 A 
ATOM      4  C   UNL     1      47.956   6.278  14.450  0.00  0.00    +0.000 A 
ATOM      5  C   UNL     1      47.259   5.694  13.387  0.00  0.00    +0.000 A 
ATOM      6  C   UNL     1      46.756   4.401  13.554  0.00  0.00    +0.000 A 
ATOM      7  C   UNL     1      46.939   3.702  14.751  0.00  0.00    +0.000 A 
BRANCH   5   8
ATOM      8  C   UNL     1      47.097   6.402  12.073  0.00  0.00    +0.000 C 
BRANCH   8   9
ATOM      9  N   UNL     1      46.017   5.837  11.296  0.00  0.00    +0.000 N 
ATOM     10  C   UNL     1      44.707   6.168  11.544  0.00  0.00    +0.000 C 
ATOM     11  O   UNL     1      44.382   6.921  12.458  0.00  0.00    +0.000 OA
ATOM     12  H   UNL     1      46.237   5.103  10.630  0.00  0.00    +0.000 HD
BRANCH  10  13
ATOM     13  C   UNL     1      43.652   5.487  10.676  0.00  0.00    +0.000 C 
ATOM     14  C   UNL     1      42.646   4.718  11.502  0.00  0.00    +0.000 C 
ATOM     15  C   UNL     1      43.280   3.349  11.638  0.00  0.00    +0.000 C 
ATOM     16  O   UNL     1      44.203   3.195  10.547  0.00  0.00    +0.000 OA
ATOM     17  C   UNL     1      44.203   4.405   9.770  0.00  0.00    +0.000 C 
ENDBRANCH  10  13
ENDBRANCH   8   9
ENDBRANCH   5   8
ENDBRANCH   1   2
BRANCH   1  18
ATOM     18  N   UNL     1      46.760   2.931  17.772  0.00  0.00    +0.000 NA
ATOM     19  H   UNL     1      46.419   3.607  18.450  0.00  0.00    +0.000 HD
ATOM     20  H   UNL     1      47.011   2.089  18.284  0.00  0.00    +0.000 HD
ENDBRANCH   1  18
BRANCH   1  21
ATOM     21  C   UNL     1      48.785   4.281  18.119  0.00  0.00    +0.000 C 
BRANCH  21  22
ATOM     22  N   UNL     1      50.061   3.685  18.435  0.00  0.00    +0.000 N 
ATOM     23  C   UNL     1      51.211   4.104  17.821  0.00  0.00    +0.000 C 
ATOM     24  O   UNL     1      51.215   4.972  16.950  0.00  0.00    +0.000 OA
ATOM     25  H   UNL     1      50.058   2.943  19.128  0.00  0.00    +0.000 HD
BRANCH  23  26
ATOM     26  C   UNL     1      52.451   3.511  18.306  0.00  0.00    +0.000 A 
ATOM     27  C   UNL     1      53.442   4.323  18.839  0.00  0.00    +0.000 A 
ATOM     28  S   UNL     1      54.796   3.455  19.400  0.00  0.00    +0.000 S 
ATOM     29  C   UNL     1      54.130   1.974  18.894  0.00  0.00    +0.000 A 
ATOM     30  N   UNL     1      54.808   0.808  19.059  0.00  0.00    +0.000 NA
ATOM     31  C   UNL     1      54.201  -0.228  18.591  0.00  0.00    +0.000 A 
ATOM     32  N   UNL     1      52.975  -0.214  17.980  0.00  0.00    +0.000 N 
ATOM     33  C   UNL     1      52.233   0.934  17.821  0.00  0.00    +0.000 A 
ATOM     34  O   UNL     1      51.123   0.894  17.315  0.00  0.00    +0.000 OA
ATOM     35  C   UNL     1      52.880   2.136  18.320  0.00  0.00    +0.000 A 
ATOM     36  H   UNL     1      52.551  -1.062  17.642  0.00  0.00    +0.000 HD
ENDBRANCH  23  26
ENDBRANCH  21  22
ENDBRANCH   1  21
TORSDOF 8
ENDMDL
MODEL 4
REMARK VINA RESULT:    -6.806      1.512      2.114
REMARK INTER + INTRA:         -11.166
REMARK INTER:                 -10.160
REMARK INTRA:                  -1.005
REMARK UNBOUND:                -1.375
REMARK  Name = 
REMARK  8 active torsions:
REMARK  status: ('A' for Active; 'I' for Inactive)
REMARK    1  A    between atoms: N_1  and  C_2
REMARK    2  A    between atoms: C_2  and  C_3
REMARK    3  A    between atoms: C_2  and  C_17
REMARK    4  A    between atoms: C_3  and  N_4
REMARK    5  A    between atoms: C_5  and  C_7
REMARK    6  A    between atoms: C_20  and  C_21
REMARK    7  A    between atoms: C_21  and  N_22
REMARK    8  A    between atoms: C_23  and  C_25
REMARK                            x       y       z     vdW  Elec       q    Type
REMARK                         _______ _______ _______ _____ _____    ______ ____
ROOT
ATOM      1  C   UNL     1      47.330   4.455  14.288  0.00  0.00    +0.000 C 
ENDROOT
BRANCH   1   2
ATOM      2  C   UNL     1      46.399   4.550  13.076  0.00  0.00    +0.000 A 
ATOM      3  C   UNL     1      46.357   5.712  12.277  0.00  0.00    +0.000 A 
ATOM      4  C   UNL     1      45.596   5.777  11.107  0.00  0.00    +0.000 A 
ATOM      5  C   UNL     1      44.849   4.671  10.687  0.00  0.00    +0.000 A 
ATOM      6  C   UNL     1      44.883   3.513  11.469  0.00  0.00    +0.000 A 
ATOM      7  C   UNL     1      45.639   3.454  12.644  0.00  0.00    +0.000 A 
BRANCH   5   8
ATOM      8  C   UNL     1      44.073   4.691   9.403  0.00  0.00    +0.000 C 
BRANCH   8   9
ATOM      9  N   UNL     1      44.433   3.583   8.548  0.00  0.00    +0.000 N 
ATOM     10  C   UNL     1      45.529   3.644   7.721  0.00  0.00    +0.000 C 
ATOM     11  O   UNL     1      46.229   4.650   7.632  0.00  0.00    +0.000 OA
ATOM     12  H   UNL     1      43.797   2.794   8.489  0.00  0.00    +0.000 HD
BRANCH  10  13
ATOM     13  C   UNL     1      45.795   2.423   6.844  0.00  0.00    +0.000 C 
ATOM     14  C   UNL     1      46.647   1.393   7.548  0.00  0.00    +0.000 C 
ATOM     15  C   UNL     1      48.060   1.821   7.212  0.00  0.00    +0.000 C 
ATOM     16  O   UNL     1      47.996   2.606   6.010  0.00  0.00    +0.000 OA
ATOM     17  C   UNL     1      46.619   2.719   5.608  0.00  0.00    +0.000 C 
ENDBRANCH  10  13
ENDBRANCH   8   9
ENDBRANCH   5   8
ENDBRANCH   1   2
BRANCH   1  18
ATOM     18  N   UNL     1      46.782   3.648  15.399  0.00  0.00    +0.000 NA
ATOM     19  H   UNL     1      46.054   4.171  15.877  0.00  0.00    +0.000 HD
ATOM     20  H   UNL     1      47.518   3.463  16.077  0.00  0.00    +0.000 HD
ENDBRANCH   1  18
BRANCH   1  21
ATOM     21  C   UNL     1      47.729   5.847  14.843  0.00  0.00    +0.000 C 
BRANCH  21  22
ATOM     22  N   UNL     1      48.922   5.825  15.656  0.00  0.00    +0.000 N 
ATOM     23  C   UNL     1      48.857   5.596  17.004  0.00  0.00    +0.000 C 
ATOM     24  O   UNL     1      47.791   5.437  17.595  0.00  0.00    +0.000 OA
ATOM     25  H   UNL     1      49.802   5.991  15.178  0.00  0.00    +0.000 HD
BRANCH  23  26
ATOM     26  C   UNL     1      50.133   5.482  17.699  0.00  0.00    +0.000 A 
ATOM     27  C   UNL     1      50.709   6.607  18.273  0.00  0.00    +0.000 A 
ATOM     28  S   UNL     1      52.169   6.278  19.086  0.00  0.00    +0.000 S 
ATOM     29  C   UNL     1      52.111   4.636  18.646  0.00  0.00    +0.000 A 
ATOM     30  N   UNL     1      53.100   3.778  19.009  0.00  0.00    +0.000 NA
ATOM     31  C   UNL     1      52.947   2.576  18.571  0.00  0.00    +0.000 A 
ATOM     32  N   UNL     1      51.893   2.144  17.810  0.00  0.00    +0.000 N 
ATOM     33  C   UNL     1      50.850   2.964  17.445  0.00  0.00    +0.000 A 
ATOM     34  O   UNL     1      49.905   2.526  16.807  0.00  0.00    +0.000 OA
ATOM     35  C   UNL     1      50.982   4.336  17.903  0.00  0.00    +0.000 A 
ATOM     36  H   UNL     1      51.827   1.187  17.505  0.00  0.00    +0.000 HD
ENDBRANCH  23  26
ENDBRANCH  21  22
ENDBRANCH   1  21
TORSDOF 8
ENDMDL
MODEL 5
REMARK VINA RESULT:    -6.798      3.138      4.277
REMARK INTER + INTRA:         -11.153
REMARK INTER:                  -9.434
REMARK INTRA:                  -1.719
REMARK UNBOUND:                -1.375
REMARK  Name = 
REMARK  8 active torsions:
REMARK  status: ('A' for Active; 'I' for Inactive)
REMARK    1  A    between atoms: N_1  and  C_2
REMARK    2  A    between atoms: C_2  and  C_3
REMARK    3  A    between atoms: C_2  and  C_17
REMARK    4  A    between atoms: C_3  and  N_4
REMARK    5  A    between atoms: C_5  and  C_7
REMARK    6  A    between atoms: C_20  and  C_21
REMARK    7  A    between atoms: C_21  and  N_22
REMARK    8  A    between atoms: C_23  and  C_25
REMARK                            x       y       z     vdW  Elec       q    Type
REMARK                         _______ _______ _______ _____ _____    ______ ____
ROOT
ATOM      1  C   UNL     1      49.617   8.585  12.943  0.00  0.00    +0.000 C 
ENDROOT
BRANCH   1   2
ATOM      2  C   UNL     1      48.147   8.293  12.635  0.00  0.00    +0.000 A 
ATOM      3  C   UNL     1      47.141   9.246  12.902  0.00  0.00    +0.000 A 
ATOM      4  C   UNL     1      45.810   9.041  12.528  0.00  0.00    +0.000 A 
ATOM      5  C   UNL     1      45.436   7.870  11.861  0.00  0.00    +0.000 A 
ATOM      6  C   UNL     1      46.422   6.918  11.589  0.00  0.00    +0.000 A 
ATOM      7  C   UNL     1      47.752   7.123  11.972  0.00  0.00    +0.000 A 
BRANCH   5   8
ATOM      8  C   UNL     1      44.027   7.651  11.392  0.00  0.00    +0.000 C 
BRANCH   8   9
ATOM      9  N   UNL     1      43.791   6.267  11.051  0.00  0.00    +0.000 N 
ATOM     10  C   UNL     1      43.281   5.380  11.968  0.00  0.00    +0.000 C 
ATOM     11  O   UNL     1      43.041   5.702  13.129  0.00  0.00    +0.000 OA
ATOM     12  H   UNL     1      44.112   5.933  10.148  0.00  0.00    +0.000 HD
BRANCH  10  13
ATOM     13  C   UNL     1      43.100   3.938  11.501  0.00  0.00    +0.000 C 
ATOM     14  C   UNL     1      43.749   2.950  12.442  0.00  0.00    +0.000 C 
ATOM     15  C   UNL     1      45.164   2.842  11.914  0.00  0.00    +0.000 C 
ATOM     16  O   UNL     1      45.137   3.240  10.533  0.00  0.00    +0.000 OA
ATOM     17  C   UNL     1      43.793   3.623  10.192  0.00  0.00    +0.000 C 
ENDBRANCH  10  13
ENDBRANCH   8   9
ENDBRANCH   5   8
ENDBRANCH   1   2
BRANCH   1  18
ATOM     18  N   UNL     1      50.532   7.479  12.588  0.00  0.00    +0.000 NA
ATOM     19  H   UNL     1      51.414   7.858  12.254  0.00  0.00    +0.000 HD
ATOM     20  H   UNL     1      50.127   6.937  11.829  0.00  0.00    +0.000 HD
ENDBRANCH   1  18
BRANCH   1  21
ATOM     21  C   UNL     1      49.851   8.958  14.430  0.00  0.00    +0.000 C 
BRANCH  21  22
ATOM     22  N   UNL     1      49.540   7.890  15.350  0.00  0.00    +0.000 N 
ATOM     23  C   UNL     1      50.521   7.078  15.851  0.00  0.00    +0.000 C 
ATOM     24  O   UNL     1      51.700   7.186  15.521  0.00  0.00    +0.000 OA
ATOM     25  H   UNL     1      48.562   7.773  15.599  0.00  0.00    +0.000 HD
BRANCH  23  26
ATOM     26  C   UNL     1      50.102   6.111  16.859  0.00  0.00    +0.000 A 
ATOM     27  C   UNL     1      50.823   5.988  18.038  0.00  0.00    +0.000 A 
ATOM     28  S   UNL     1      50.162   4.849  19.119  0.00  0.00    +0.000 S 
ATOM     29  C   UNL     1      48.927   4.441  18.022  0.00  0.00    +0.000 A 
ATOM     30  N   UNL     1      48.009   3.486  18.325  0.00  0.00    +0.000 NA
ATOM     31  C   UNL     1      47.159   3.250  17.386  0.00  0.00    +0.000 A 
ATOM     32  N   UNL     1      47.131   3.884  16.172  0.00  0.00    +0.000 N 
ATOM     33  C   UNL     1      48.016   4.882  15.830  0.00  0.00    +0.000 A 
ATOM     34  O   UNL     1      47.925   5.456  14.757  0.00  0.00    +0.000 OA
ATOM     35  C   UNL     1      49.006   5.177  16.852  0.00  0.00    +0.000 A 
ATOM     36  H   UNL     1      46.434   3.659  15.481  0.00  0.00    +0.000 HD
ENDBRANCH  23  26
ENDBRANCH  21  22
ENDBRANCH   1  21
TORSDOF 8
ENDMDL
MODEL 6
REMARK VINA RESULT:    -6.649      3.280      4.274
REMARK INTER + INTRA:         -10.939
REMARK INTER:                  -9.031
REMARK INTRA:                  -1.908
REMARK UNBOUND:                -1.375
REMARK  Name = 
REMARK  8 active torsions:
REMARK  status: ('A' for Active; 'I' for Inactive)
REMARK    1  A    between atoms: N_1  and  C_2
REMARK    2  A    between atoms: C_2  and  C_3
REMARK    3  A    between atoms: C_2  and  C_17
REMARK    4  A    between atoms: C_3  and  N_4
REMARK    5  A    between atoms: C_5  and  C_7
REMARK    6  A    between atoms: C_20  and  C_21
REMARK    7  A    between atoms: C_21  and  N_22
REMARK    8  A    between atoms: C_23  and  C_25
REMARK                            x       y       z     vdW  Elec       q    Type
REMARK                         _______ _______ _______ _____ _____    ______ ____
ROOT
ATOM      1  C   UNL     1      49.659   8.602  13.288  0.00  0.00    +0.000 C 
ENDROOT
BRANCH   1   2
ATOM      2  C   UNL     1      48.245   8.400  12.735  0.00  0.00    +0.000 A 
ATOM      3  C   UNL     1      47.914   7.256  11.979  0.00  0.00    +0.000 A 
ATOM      4  C   UNL     1      46.605   7.001  11.560  0.00  0.00    +0.000 A 
ATOM      5  C   UNL     1      45.573   7.885  11.889  0.00  0.00    +0.000 A 
ATOM      6  C   UNL     1      45.887   9.022  12.638  0.00  0.00    +0.000 A 
ATOM      7  C   UNL     1      47.199   9.278  13.050  0.00  0.00    +0.000 A 
BRANCH   5   8
ATOM      8  C   UNL     1      44.149   7.605  11.506  0.00  0.00    +0.000 C 
BRANCH   8   9
ATOM      9  N   UNL     1      43.972   6.232  11.091  0.00  0.00    +0.000 N 
ATOM     10  C   UNL     1      43.225   5.350  11.835  0.00  0.00    +0.000 C 
ATOM     11  O   UNL     1      42.708   5.666  12.904  0.00  0.00    +0.000 OA
ATOM     12  H   UNL     1      44.501   5.899  10.292  0.00  0.00    +0.000 HD
BRANCH  10  13
ATOM     13  C   UNL     1      43.131   3.920  11.311  0.00  0.00    +0.000 C 
ATOM     14  C   UNL     1      43.665   2.914  12.305  0.00  0.00    +0.000 C 
ATOM     15  C   UNL     1      45.139   2.839  11.969  0.00  0.00    +0.000 C 
ATOM     16  O   UNL     1      45.290   3.273  10.607  0.00  0.00    +0.000 OA
ATOM     17  C   UNL     1      43.998   3.649  10.098  0.00  0.00    +0.000 C 
ENDBRANCH  10  13
ENDBRANCH   8   9
ENDBRANCH   5   8
ENDBRANCH   1   2
BRANCH   1  18
ATOM     18  N   UNL     1      50.501   7.388  13.230  0.00  0.00    +0.000 NA
ATOM     19  H   UNL     1      51.163   7.467  12.462  0.00  0.00    +0.000 HD
ATOM     20  H   UNL     1      49.914   6.579  13.043  0.00  0.00    +0.000 HD
ENDBRANCH   1  18
BRANCH   1  21
ATOM     21  C   UNL     1      49.658   9.130  14.745  0.00  0.00    +0.000 C 
BRANCH  21  22
ATOM     22  N   UNL     1      49.617   8.084  15.740  0.00  0.00    +0.000 N 
ATOM     23  C   UNL     1      48.717   8.120  16.770  0.00  0.00    +0.000 C 
ATOM     24  O   UNL     1      47.930   9.051  16.927  0.00  0.00    +0.000 OA
ATOM     25  H   UNL     1      50.289   7.329  15.635  0.00  0.00    +0.000 HD
BRANCH  23  26
ATOM     26  C   UNL     1      48.693   6.953  17.644  0.00  0.00    +0.000 A 
ATOM     27  C   UNL     1      49.026   7.087  18.984  0.00  0.00    +0.000 A 
ATOM     28  S   UNL     1      48.893   5.634  19.862  0.00  0.00    +0.000 S 
ATOM     29  C   UNL     1      48.445   4.766  18.469  0.00  0.00    +0.000 A 
ATOM     30  N   UNL     1      48.204   3.430  18.524  0.00  0.00    +0.000 NA
ATOM     31  C   UNL     1      47.917   2.896  17.387  0.00  0.00    +0.000 A 
ATOM     32  N   UNL     1      47.837   3.572  16.198  0.00  0.00    +0.000 N 
ATOM     33  C   UNL     1      48.037   4.930  16.095  0.00  0.00    +0.000 A 
ATOM     34  O   UNL     1      47.908   5.500  15.024  0.00  0.00    +0.000 OA
ATOM     35  C   UNL     1      48.379   5.578  17.349  0.00  0.00    +0.000 A 
ATOM     36  H   UNL     1      47.599   3.097  15.342  0.00  0.00    +0.000 HD
ENDBRANCH  23  26
ENDBRANCH  21  22
ENDBRANCH   1  21
TORSDOF 8
ENDMDL
MODEL 7
REMARK VINA RESULT:    -6.645      4.221      6.506
REMARK INTER + INTRA:         -10.934
REMARK INTER:                  -8.762
REMARK INTRA:                  -2.171
REMARK UNBOUND:                -1.375
REMARK  Name = 
REMARK  8 active torsions:
REMARK  status: ('A' for Active; 'I' for Inactive)
REMARK    1  A    between atoms: N_1  and  C_2
REMARK    2  A    between atoms: C_2  and  C_3
REMARK    3  A    between atoms: C_2  and  C_17
REMARK    4  A    between atoms: C_3  and  N_4
REMARK    5  A    between atoms: C_5  and  C_7
REMARK    6  A    between atoms: C_20  and  C_21
REMARK    7  A    between atoms: C_21  and  N_22
REMARK    8  A    between atoms: C_23  and  C_25
REMARK                            x       y       z     vdW  Elec       q    Type
REMARK                         _______ _______ _______ _____ _____    ______ ____
ROOT
ATOM      1  C   UNL     1      44.793   5.538  12.436  0.00  0.00    +0.000 C 
ENDROOT
BRANCH   1   2
ATOM      2  C   UNL     1      45.767   6.704  12.243  0.00  0.00    +0.000 A 
ATOM      3  C   UNL     1      45.580   7.930  12.916  0.00  0.00    +0.000 A 
ATOM      4  C   UNL     1      46.516   8.965  12.838  0.00  0.00    +0.000 A 
ATOM      5  C   UNL     1      47.683   8.808  12.084  0.00  0.00    +0.000 A 
ATOM      6  C   UNL     1      47.881   7.598  11.414  0.00  0.00    +0.000 A 
ATOM      7  C   UNL     1      46.940   6.566  11.488  0.00  0.00    +0.000 A 
BRANCH   5   8
ATOM      8  C   UNL     1      48.734   9.879  12.033  0.00  0.00    +0.000 C 
BRANCH   8   9
ATOM      9  N   UNL     1      50.049   9.321  11.810  0.00  0.00    +0.000 N 
ATOM     10  C   UNL     1      50.963   9.213  12.830  0.00  0.00    +0.000 C 
ATOM     11  O   UNL     1      50.731   9.620  13.966  0.00  0.00    +0.000 OA
ATOM     12  H   UNL     1      50.325   9.109  10.857  0.00  0.00    +0.000 HD
BRANCH  10  13
ATOM     13  C   UNL     1      52.328   8.634  12.468  0.00  0.00    +0.000 C 
ATOM     14  C   UNL     1      53.416   9.683  12.493  0.00  0.00    +0.000 C 
ATOM     15  C   UNL     1      53.389  10.246  11.087  0.00  0.00    +0.000 C 
ATOM     16  O   UNL     1      52.798   9.249  10.238  0.00  0.00    +0.000 OA
ATOM     17  C   UNL     1      52.423   8.120  11.046  0.00  0.00    +0.000 C 
ENDBRANCH  10  13
ENDBRANCH   8   9
ENDBRANCH   5   8
ENDBRANCH   1   2
BRANCH   1  18
ATOM     18  N   UNL     1      43.529   5.921  13.101  0.00  0.00    +0.000 NA
ATOM     19  H   UNL     1      43.336   5.281  13.866  0.00  0.00    +0.000 HD
ATOM     20  H   UNL     1      42.762   5.842  12.437  0.00  0.00    +0.000 HD
ENDBRANCH   1  18
BRANCH   1  21
ATOM     21  C   UNL     1      45.424   4.360  13.221  0.00  0.00    +0.000 C 
BRANCH  21  22
ATOM     22  N   UNL     1      46.000   4.749  14.487  0.00  0.00    +0.000 N 
ATOM     23  C   UNL     1      47.080   4.090  15.007  0.00  0.00    +0.000 C 
ATOM     24  O   UNL     1      47.590   3.118  14.452  0.00  0.00    +0.000 OA
ATOM     25  H   UNL     1      45.560   5.529  14.966  0.00  0.00    +0.000 HD
BRANCH  23  26
ATOM     26  C   UNL     1      47.645   4.646  16.231  0.00  0.00    +0.000 A 
ATOM     27  C   UNL     1      47.251   4.142  17.462  0.00  0.00    +0.000 A 
ATOM     28  S   UNL     1      48.050   4.874  18.777  0.00  0.00    +0.000 S 
ATOM     29  C   UNL     1      48.902   5.927  17.748  0.00  0.00    +0.000 A 
ATOM     30  N   UNL     1      49.760   6.854  18.249  0.00  0.00    +0.000 NA
ATOM     31  C   UNL     1      50.302   7.611  17.358  0.00  0.00    +0.000 A 
ATOM     32  N   UNL     1      50.076   7.526  16.010  0.00  0.00    +0.000 N 
ATOM     33  C   UNL     1      49.244   6.584  15.450  0.00  0.00    +0.000 A 
ATOM     34  O   UNL     1      49.109   6.511  14.239  0.00  0.00    +0.000 OA
ATOM     35  C   UNL     1      48.595   5.713  16.415  0.00  0.00    +0.000 A 
ATOM     36  H   UNL     1      50.538   8.144  15.363  0.00  0.00    +0.000 HD
ENDBRANCH  23  26
ENDBRANCH  21  22
ENDBRANCH   1  21
TORSDOF 8
ENDMDL
MODEL 8
REMARK VINA RESULT:    -6.198      3.174      4.228
REMARK INTER + INTRA:         -10.291
REMARK INTER:                  -8.623
REMARK INTRA:                  -1.668
REMARK UNBOUND:                -1.375
REMARK  Name = 
REMARK  8 active torsions:
REMARK  status: ('A' for Active; 'I' for Inactive)
REMARK    1  A    between atoms: N_1  and  C_2
REMARK    2  A    between atoms: C_2  and  C_3
REMARK    3  A    between atoms: C_2  and  C_17
REMARK    4  A    between atoms: C_3  and  N_4
REMARK    5  A    between atoms: C_5  and  C_7
REMARK    6  A    between atoms: C_20  and  C_21
REMARK    7  A    between atoms: C_21  and  N_22
REMARK    8  A    between atoms: C_23  and  C_25
REMARK                            x       y       z     vdW  Elec       q    Type
REMARK                         _______ _______ _______ _____ _____    ______ ____
ROOT
ATOM      1  C   UNL     1      50.336   8.526  12.147  0.00  0.00    +0.000 C 
ENDROOT
BRANCH   1   2
ATOM      2  C   UNL     1      48.820   8.353  12.017  0.00  0.00    +0.000 A 
ATOM      3  C   UNL     1      48.245   7.080  11.825  0.00  0.00    +0.000 A 
ATOM      4  C   UNL     1      46.860   6.888  11.813  0.00  0.00    +0.000 A 
ATOM      5  C   UNL     1      45.996   7.972  12.002  0.00  0.00    +0.000 A 
ATOM      6  C   UNL     1      46.553   9.238  12.194  0.00  0.00    +0.000 A 
ATOM      7  C   UNL     1      47.939   9.428  12.197  0.00  0.00    +0.000 A 
BRANCH   5   8
ATOM      8  C   UNL     1      44.507   7.786  12.056  0.00  0.00    +0.000 C 
BRANCH   8   9
ATOM      9  N   UNL     1      44.100   6.567  11.396  0.00  0.00    +0.000 N 
ATOM     10  C   UNL     1      43.459   5.562  12.080  0.00  0.00    +0.000 C 
ATOM     11  O   UNL     1      43.238   5.627  13.287  0.00  0.00    +0.000 OA
ATOM     12  H   UNL     1      44.394   6.419  10.436  0.00  0.00    +0.000 HD
BRANCH  10  13
ATOM     13  C   UNL     1      43.102   4.310  11.283  0.00  0.00    +0.000 C 
ATOM     14  C   UNL     1      43.560   3.046  11.975  0.00  0.00    +0.000 C 
ATOM     15  C   UNL     1      44.970   2.856  11.458  0.00  0.00    +0.000 C 
ATOM     16  O   UNL     1      45.067   3.562  10.209  0.00  0.00    +0.000 OA
ATOM     17  C   UNL     1      43.808   4.207   9.947  0.00  0.00    +0.000 C 
ENDBRANCH  10  13
ENDBRANCH   8   9
ENDBRANCH   5   8
ENDBRANCH   1   2
BRANCH   1  18
ATOM     18  N   UNL     1      51.115   7.398  11.592  0.00  0.00    +0.000 NA
ATOM     19  H   UNL     1      51.917   7.210  12.187  0.00  0.00    +0.000 HD
ATOM     20  H   UNL     1      51.470   7.653  10.674  0.00  0.00    +0.000 HD
ENDBRANCH   1  18
BRANCH   1  21
ATOM     21  C   UNL     1      50.785   8.759  13.612  0.00  0.00    +0.000 C 
BRANCH  21  22
ATOM     22  N   UNL     1      50.636   7.597  14.455  0.00  0.00    +0.000 N 
ATOM     23  C   UNL     1      49.739   7.581  15.489  0.00  0.00    +0.000 C 
ATOM     24  O   UNL     1      49.048   8.556  15.778  0.00  0.00    +0.000 OA
ATOM     25  H   UNL     1      51.230   6.801  14.243  0.00  0.00    +0.000 HD
BRANCH  23  26
ATOM     26  C   UNL     1      49.595   6.314  16.196  0.00  0.00    +0.000 A 
ATOM     27  C   UNL     1      48.340   5.739  16.331  0.00  0.00    +0.000 A 
ATOM     28  S   UNL     1      48.368   4.239  17.138  0.00  0.00    +0.000 S 
ATOM     29  C   UNL     1      50.048   4.339  17.386  0.00  0.00    +0.000 A 
ATOM     30  N   UNL     1      50.716   3.364  18.057  0.00  0.00    +0.000 NA
ATOM     31  C   UNL     1      51.975   3.592  18.208  0.00  0.00    +0.000 A 
ATOM     32  N   UNL     1      52.636   4.699  17.744  0.00  0.00    +0.000 N 
ATOM     33  C   UNL     1      52.012   5.697  17.030  0.00  0.00    +0.000 A 
ATOM     34  O   UNL     1      52.649   6.642  16.593  0.00  0.00    +0.000 OA
ATOM     35  C   UNL     1      50.586   5.494  16.844  0.00  0.00    +0.000 A 
ATOM     36  H   UNL     1      53.626   4.814  17.889  0.00  0.00    +0.000 HD
ENDBRANCH  23  26
ENDBRANCH  21  22
ENDBRANCH   1  21
TORSDOF 8
ENDMDL
MODEL 9
REMARK VINA RESULT:    -6.052      5.681      9.021
REMARK INTER + INTRA:         -10.081
REMARK INTER:                  -8.864
REMARK INTRA:                  -1.216
REMARK UNBOUND:                -1.375
REMARK  Name = 
REMARK  8 active torsions:
REMARK  status: ('A' for Active; 'I' for Inactive)
REMARK    1  A    between atoms: N_1  and  C_2
REMARK    2  A    between atoms: C_2  and  C_3
REMARK    3  A    between atoms: C_2  and  C_17
REMARK    4  A    between atoms: C_3  and  N_4
REMARK    5  A    between atoms: C_5  and  C_7
REMARK    6  A    between atoms: C_20  and  C_21
REMARK    7  A    between atoms: C_21  and  N_22
REMARK    8  A    between atoms: C_23  and  C_25
REMARK                            x       y       z     vdW  Elec       q    Type
REMARK                         _______ _______ _______ _____ _____    ______ ____
ROOT
ATOM      1  C   UNL     1      48.515   7.686  13.355  0.00  0.00    +0.000 C 
ENDROOT
BRANCH   1   2
ATOM      2  C   UNL     1      49.753   8.234  12.641  0.00  0.00    +0.000 A 
ATOM      3  C   UNL     1      50.564   9.222  13.239  0.00  0.00    +0.000 A 
ATOM      4  C   UNL     1      51.756   9.654  12.651  0.00  0.00    +0.000 A 
ATOM      5  C   UNL     1      52.185   9.106  11.438  0.00  0.00    +0.000 A 
ATOM      6  C   UNL     1      51.392   8.126  10.836  0.00  0.00    +0.000 A 
ATOM      7  C   UNL     1      50.196   7.700  11.423  0.00  0.00    +0.000 A 
BRANCH   5   8
ATOM      8  C   UNL     1      53.491   9.507  10.816  0.00  0.00    +0.000 C 
BRANCH   8   9
ATOM      9  N   UNL     1      53.810   8.681   9.673  0.00  0.00    +0.000 N 
ATOM     10  C   UNL     1      53.724   9.169   8.392  0.00  0.00    +0.000 C 
ATOM     11  O   UNL     1      53.334  10.308   8.147  0.00  0.00    +0.000 OA
ATOM     12  H   UNL     1      53.995   7.695   9.829  0.00  0.00    +0.000 HD
BRANCH  10  13
ATOM     13  C   UNL     1      54.059   8.196   7.264  0.00  0.00    +0.000 C 
ATOM     14  C   UNL     1      52.821   7.717   6.540  0.00  0.00    +0.000 C 
ATOM     15  C   UNL     1      52.400   6.499   7.336  0.00  0.00    +0.000 C 
ATOM     16  O   UNL     1      53.564   6.018   8.029  0.00  0.00    +0.000 OA
ATOM     17  C   UNL     1      54.668   6.892   7.736  0.00  0.00    +0.000 C 
ENDBRANCH  10  13
ENDBRANCH   8   9
ENDBRANCH   5   8
ENDBRANCH   1   2
BRANCH   1  18
ATOM     18  N   UNL     1      48.656   6.283  13.801  0.00  0.00    +0.000 NA
ATOM     19  H   UNL     1      48.708   5.670  12.992  0.00  0.00    +0.000 HD
ATOM     20  H   UNL     1      47.832   6.013  14.333  0.00  0.00    +0.000 HD
ENDBRANCH   1  18
BRANCH   1  21
ATOM     21  C   UNL     1      47.231   7.801  12.495  0.00  0.00    +0.000 C 
BRANCH  21  22
ATOM     22  N   UNL     1      46.561   6.540  12.282  0.00  0.00    +0.000 N 
ATOM     23  C   UNL     1      45.300   6.487  11.754  0.00  0.00    +0.000 C 
ATOM     24  O   UNL     1      44.660   7.498  11.470  0.00  0.00    +0.000 OA
ATOM     25  H   UNL     1      47.071   5.703  12.548  0.00  0.00    +0.000 HD
BRANCH  23  26
ATOM     26  C   UNL     1      44.773   5.156  11.478  0.00  0.00    +0.000 A 
ATOM     27  C   UNL     1      44.050   4.484  12.454  0.00  0.00    +0.000 A 
ATOM     28  S   UNL     1      43.470   2.968  11.940  0.00  0.00    +0.000 S 
ATOM     29  C   UNL     1      44.217   3.132  10.421  0.00  0.00    +0.000 A 
ATOM     30  N   UNL     1      44.131   2.148   9.488  0.00  0.00    +0.000 NA
ATOM     31  C   UNL     1      44.780   2.389   8.401  0.00  0.00    +0.000 A 
ATOM     32  N   UNL     1      45.501   3.527   8.151  0.00  0.00    +0.000 N 
ATOM     33  C   UNL     1      45.590   4.567   9.048  0.00  0.00    +0.000 A 
ATOM     34  O   UNL     1      46.202   5.584   8.765  0.00  0.00    +0.000 OA
ATOM     35  C   UNL     1      44.886   4.338  10.298  0.00  0.00    +0.000 A 
ATOM     36  H   UNL     1      45.981   3.659   7.275  0.00  0.00    +0.000 HD
ENDBRANCH  23  26
ENDBRANCH  21  22
ENDBRANCH   1  21
TORSDOF 8
ENDMDL
