MODEL 1
REMARK VINA RESULT:    -8.052      0.000      0.000
REMARK INTER + INTRA:         -11.682
REMARK INTER:                 -10.876
REMARK INTRA:                  -0.805
REMARK UNBOUND:                -0.805
REMARK  Name = 
REMARK  6 active torsions:
REMARK  status: ('A' for Active; 'I' for Inactive)
REMARK    1  A    between atoms: C_2  and  C_3
REMARK    2  A    between atoms: C_7  and  C_8
REMARK    3  A    between atoms: C_8  and  C_9
REMARK    4  A    between atoms: C_12  and  C_13
REMARK    5  A    between atoms: C_13  and  N_14
REMARK    6  A    between atoms: C_15  and  C_17
REMARK                            x       y       z     vdW  Elec       q    Type
REMARK                         _______ _______ _______ _____ _____    ______ ____
ROOT
ATOM      1  C   UNL     1      46.858   8.038  13.375  0.00  0.00    +0.000 C 
ENDROOT
BRANCH   1   5
ATOM      2  C   UNL     1      44.869   5.120  10.970  0.00  0.00    +0.000 A 
ATOM      3  C   UNL     1      44.424   6.439  10.919  0.00  0.00    +0.000 A 
ATOM      4  C   UNL     1      45.065   7.402  11.701  0.00  0.00    +0.000 A 
ATOM      5  C   UNL     1      46.110   7.032  12.549  0.00  0.00    +0.000 A 
ATOM      6  C   UNL     1      46.464   5.687  12.560  0.00  0.00    +0.000 A 
ATOM      7  N   UNL     1      45.874   4.733  11.796  0.00  0.00    +0.000 NA
BRANCH   2   8
ATOM      8  C   UNL     1      44.286   4.071  10.043  0.00  0.00    +0.000 C 
BRANCH   8  13
ATOM      9  C   UNL     1      46.343   1.718   7.847  0.00  0.00    +0.000 A 
ATOM     10  C   UNL     1      46.982   2.617   6.987  0.00  0.00    +0.000 A 
ATOM     11  C   UNL     1      46.758   3.987   7.125  0.00  0.00    +0.000 A 
ATOM     12  C   UNL     1      45.887   4.461   8.111  0.00  0.00    +0.000 A 
ATOM     13  C   UNL     1      45.220   3.567   8.962  0.00  0.00    +0.000 A 
ATOM     14  C   UNL     1      45.470   2.194   8.832  0.00  0.00    +0.000 A 
BRANCH   9  16
ATOM     15  N   UNL     1      46.797  -0.829   7.641  0.00  0.00    +0.000 NA
ATOM     16  C   UNL     1      46.590   0.310   7.727  0.00  0.00    +0.000 C 
ENDBRANCH   9  16
ENDBRANCH   8  13
ENDBRANCH   2   8
ENDBRANCH   1   5
BRANCH   1  17
ATOM     17  N   UNL     1      47.416   7.433  14.565  0.00  0.00    +0.000 N 
ATOM     18  C   UNL     1      48.703   6.958  14.602  0.00  0.00    +0.000 C 
ATOM     19  O   UNL     1      49.456   7.036  13.634  0.00  0.00    +0.000 OA
ATOM     20  H   UNL     1      46.760   7.136  15.280  0.00  0.00    +0.000 HD
BRANCH  18  21
ATOM     21  C   UNL     1      49.156   6.422  15.892  0.00  0.00    +0.000 A 
ATOM     22  C   UNL     1      50.221   7.017  16.557  0.00  0.00    +0.000 A 
ATOM     23  S   UNL     1      50.555   6.316  18.077  0.00  0.00    +0.000 S 
ATOM     24  C   UNL     1      49.330   5.153  17.872  0.00  0.00    +0.000 A 
ATOM     25  N   UNL     1      49.092   4.209  18.822  0.00  0.00    +0.000 NA
ATOM     26  C   UNL     1      48.162   3.367  18.517  0.00  0.00    +0.000 A 
ATOM     27  N   UNL     1      47.445   3.384  17.349  0.00  0.00    +0.000 N 
ATOM     28  C   UNL     1      47.621   4.344  16.382  0.00  0.00    +0.000 A 
ATOM     29  O   UNL     1      46.919   4.368  15.375  0.00  0.00    +0.000 OA
ATOM     30  C   UNL     1      48.667   5.305  16.668  0.00  0.00    +0.000 A 
ATOM     31  H   UNL     1      46.722   2.703  17.175  0.00  0.00    +0.000 HD
ENDBRANCH  18  21
ENDBRANCH   1  17
TORSDOF 6
ENDMDL
MODEL 2
REMARK VINA RESULT:    -7.793      1.965      2.301
REMARK INTER + INTRA:         -11.331
REMARK INTER:                 -10.514
REMARK INTRA:                  -0.817
REMARK UNBOUND:                -0.805
REMARK  Name = 
REMARK  6 active torsions:
REMARK  status: ('A' for Active; 'I' for Inactive)
REMARK    1  A    between atoms: C_2  and  C_3
REMARK    2  A    between atoms: C_7  and  C_8
REMARK    3  A    between atoms: C_8  and  C_9
REMARK    4  A    between atoms: C_12  and  C_13
REMARK    5  A    between atoms: C_13  and  N_14
REMARK    6  A    between atoms: C_15  and  C_17
REMARK                            x       y       z     vdW  Elec       q    Type
REMARK                         _______ _______ _______ _____ _____    ______ ____
ROOT
ATOM      1  C   UNL     1      47.842   7.321  13.835  0.00  0.00    +0.000 C 
ENDROOT
BRANCH   1   5
ATOM      2  C   UNL     1      45.343   4.932  11.325  0.00  0.00    +0.000 A 
ATOM      3  C   UNL     1      45.567   6.260  10.970  0.00  0.00    +0.000 A 
ATOM      4  C   UNL     1      46.381   7.051  11.782  0.00  0.00    +0.000 A 
ATOM      5  C   UNL     1      46.927   6.522  12.953  0.00  0.00    +0.000 A 
ATOM      6  C   UNL     1      46.621   5.198  13.246  0.00  0.00    +0.000 A 
ATOM      7  N   UNL     1      45.851   4.398  12.465  0.00  0.00    +0.000 NA
BRANCH   2   8
ATOM      8  C   UNL     1      44.573   4.005  10.405  0.00  0.00    +0.000 C 
BRANCH   8  13
ATOM      9  C   UNL     1      46.298   1.694   7.901  0.00  0.00    +0.000 A 
ATOM     10  C   UNL     1      46.771   2.605   6.952  0.00  0.00    +0.000 A 
ATOM     11  C   UNL     1      46.544   3.970   7.128  0.00  0.00    +0.000 A 
ATOM     12  C   UNL     1      45.834   4.426   8.242  0.00  0.00    +0.000 A 
ATOM     13  C   UNL     1      45.330   3.520   9.187  0.00  0.00    +0.000 A 
ATOM     14  C   UNL     1      45.585   2.152   9.014  0.00  0.00    +0.000 A 
BRANCH   9  16
ATOM     15  N   UNL     1      46.746  -0.847   7.615  0.00  0.00    +0.000 NA
ATOM     16  C   UNL     1      46.551   0.291   7.738  0.00  0.00    +0.000 C 
ENDBRANCH   9  16
ENDBRANCH   8  13
ENDBRANCH   2   8
ENDBRANCH   1   5
BRANCH   1  17
ATOM     17  N   UNL     1      47.828   6.827  15.195  0.00  0.00    +0.000 N 
ATOM     18  C   UNL     1      48.982   6.506  15.862  0.00  0.00    +0.000 C 
ATOM     19  O   UNL     1      50.091   6.634  15.349  0.00  0.00    +0.000 OA
ATOM     20  H   UNL     1      46.941   6.484  15.549  0.00  0.00    +0.000 HD
BRANCH  18  21
ATOM     21  C   UNL     1      48.822   6.072  17.256  0.00  0.00    +0.000 A 
ATOM     22  C   UNL     1      49.153   4.773  17.623  0.00  0.00    +0.000 A 
ATOM     23  S   UNL     1      48.984   4.471  19.295  0.00  0.00    +0.000 S 
ATOM     24  C   UNL     1      48.402   6.044  19.577  0.00  0.00    +0.000 A 
ATOM     25  N   UNL     1      48.042   6.447  20.826  0.00  0.00    +0.000 NA
ATOM     26  C   UNL     1      47.580   7.651  20.887  0.00  0.00    +0.000 A 
ATOM     27  N   UNL     1      47.448   8.492  19.812  0.00  0.00    +0.000 N 
ATOM     28  C   UNL     1      47.840   8.144  18.542  0.00  0.00    +0.000 A 
ATOM     29  O   UNL     1      47.766   8.944  17.613  0.00  0.00    +0.000 OA
ATOM     30  C   UNL     1      48.350   6.794  18.416  0.00  0.00    +0.000 A 
ATOM     31  H   UNL     1      47.090   9.428  19.929  0.00  0.00    +0.000 HD
ENDBRANCH  18  21
ENDBRANCH   1  17
TORSDOF 6
ENDMDL
MODEL 3
REMARK VINA RESULT:    -7.729      1.280      1.879
REMARK INTER + INTRA:         -11.246
REMARK INTER:                 -10.143
REMARK INTRA:                  -1.103
REMARK UNBOUND:                -0.805
REMARK  Name = 
REMARK  6 active torsions:
REMARK  status: ('A' for Active; 'I' for Inactive)
REMARK    1  A    between atoms: C_2  and  C_3
REMARK    2  A    between atoms: C_7  and  C_8
REMARK    3  A    between atoms: C_8  and  C_9
REMARK    4  A    between atoms: C_12  and  C_13
REMARK    5  A    between atoms: C_13  and  N_14
REMARK    6  A    between atoms: C_15  and  C_17
REMARK                            x       y       z     vdW  Elec       q    Type
REMARK                         _______ _______ _______ _____ _____    ______ ____
ROOT
ATOM      1  C   UNL     1      47.411   8.405  13.745  0.00  0.00    +0.000 C 
ENDROOT
BRANCH   1   5
ATOM      2  C   UNL     1      44.854   6.221  11.108  0.00  0.00    +0.000 A 
ATOM      3  C   UNL     1      46.100   5.683  11.423  0.00  0.00    +0.000 A 
ATOM      4  C   UNL     1      46.945   6.387  12.283  0.00  0.00    +0.000 A 
ATOM      5  C   UNL     1      46.555   7.631  12.783  0.00  0.00    +0.000 A 
ATOM      6  C   UNL     1      45.310   8.105  12.387  0.00  0.00    +0.000 A 
ATOM      7  N   UNL     1      44.459   7.434  11.571  0.00  0.00    +0.000 NA
BRANCH   2   8
ATOM      8  C   UNL     1      43.857   5.431  10.283  0.00  0.00    +0.000 C 
BRANCH   8  13
ATOM      9  C   UNL     1      45.620   3.081   7.843  0.00  0.00    +0.000 A 
ATOM     10  C   UNL     1      45.372   1.832   8.420  0.00  0.00    +0.000 A 
ATOM     11  C   UNL     1      44.622   1.748   9.593  0.00  0.00    +0.000 A 
ATOM     12  C   UNL     1      44.131   2.908  10.198  0.00  0.00    +0.000 A 
ATOM     13  C   UNL     1      44.397   4.169   9.644  0.00  0.00    +0.000 A 
ATOM     14  C   UNL     1      45.131   4.242   8.451  0.00  0.00    +0.000 A 
BRANCH   9  16
ATOM     15  N   UNL     1      46.965   3.253   5.629  0.00  0.00    +0.000 NA
ATOM     16  C   UNL     1      46.369   3.171   6.622  0.00  0.00    +0.000 C 
ENDBRANCH   9  16
ENDBRANCH   8  13
ENDBRANCH   2   8
ENDBRANCH   1   5
BRANCH   1  17
ATOM     17  N   UNL     1      47.774   7.601  14.892  0.00  0.00    +0.000 N 
ATOM     18  C   UNL     1      49.008   7.014  15.005  0.00  0.00    +0.000 C 
ATOM     19  O   UNL     1      49.878   7.150  14.147  0.00  0.00    +0.000 OA
ATOM     20  H   UNL     1      47.016   7.273  15.481  0.00  0.00    +0.000 HD
BRANCH  18  21
ATOM     21  C   UNL     1      49.260   6.274  16.248  0.00  0.00    +0.000 A 
ATOM     22  C   UNL     1      50.269   6.686  17.111  0.00  0.00    +0.000 A 
ATOM     23  S   UNL     1      50.363   5.763  18.543  0.00  0.00    +0.000 S 
ATOM     24  C   UNL     1      49.101   4.741  18.034  0.00  0.00    +0.000 A 
ATOM     25  N   UNL     1      48.684   3.702  18.806  0.00  0.00    +0.000 NA
ATOM     26  C   UNL     1      47.747   2.987  18.279  0.00  0.00    +0.000 A 
ATOM     27  N   UNL     1      47.186   3.219  17.050  0.00  0.00    +0.000 N 
ATOM     28  C   UNL     1      47.544   4.282  16.256  0.00  0.00    +0.000 A 
ATOM     29  O   UNL     1      46.977   4.498  15.189  0.00  0.00    +0.000 OA
ATOM     30  C   UNL     1      48.606   5.107  16.796  0.00  0.00    +0.000 A 
ATOM     31  H   UNL     1      46.448   2.628  16.698  0.00  0.00    +0.000 HD
ENDBRANCH  18  21
ENDBRANCH   1  17
TORSDOF 6
ENDMDL
MODEL 4
REMARK VINA RESULT:    -7.662      1.833      3.374
REMARK INTER + INTRA:         -11.155
REMARK INTER:                 -10.130
REMARK INTRA:                  -1.025
REMARK UNBOUND:                -0.805
REMARK  Name = 
REMARK  6 active torsions:
REMARK  status: ('A' for Active; 'I' for Inactive)
REMARK    1  A    between atoms: C_2  and  C_3
REMARK    2  A    between atoms: C_7  and  C_8
REMARK    3  A    between atoms: C_8  and  C_9
REMARK    4  A    between atoms: C_12  and  C_13
REMARK    5  A    between atoms: C_13  and  N_14
REMARK    6  A    between atoms: C_15  and  C_17
REMARK                            x       y       z     vdW  Elec       q    Type
REMARK                         _______ _______ _______ _____ _____    ______ ____
ROOT
ATOM      1  C   UNL     1      46.775   4.461  14.834  0.00  0.00    +0.000 C 
ENDROOT
BRANCH   1   5
ATOM      2  C   UNL     1      45.068   4.419  10.917  0.00  0.00    +0.000 A 
ATOM      3  C   UNL     1      45.563   5.623  11.414  0.00  0.00    +0.000 A 
ATOM      4  C   UNL     1      46.123   5.650  12.693  0.00  0.00    +0.000 A 
ATOM      5  C   UNL     1      46.145   4.491  13.471  0.00  0.00    +0.000 A 
ATOM      6  C   UNL     1      45.597   3.345  12.907  0.00  0.00    +0.000 A 
ATOM      7  N   UNL     1      45.066   3.283  11.660  0.00  0.00    +0.000 NA
BRANCH   2   8
ATOM      8  C   UNL     1      44.571   4.319   9.488  0.00  0.00    +0.000 C 
BRANCH   8  13
ATOM      9  C   UNL     1      46.537   1.621   7.632  0.00  0.00    +0.000 A 
ATOM     10  C   UNL     1      47.301   2.385   6.746  0.00  0.00    +0.000 A 
ATOM     11  C   UNL     1      47.192   3.775   6.757  0.00  0.00    +0.000 A 
ATOM     12  C   UNL     1      46.311   4.404   7.641  0.00  0.00    +0.000 A 
ATOM     13  C   UNL     1      45.518   3.647   8.516  0.00  0.00    +0.000 A 
ATOM     14  C   UNL     1      45.653   2.251   8.515  0.00  0.00    +0.000 A 
BRANCH   9  16
ATOM     15  N   UNL     1      46.756  -0.965   7.646  0.00  0.00    +0.000 NA
ATOM     16  C   UNL     1      46.664   0.191   7.643  0.00  0.00    +0.000 C 
ENDBRANCH   9  16
ENDBRANCH   8  13
ENDBRANCH   2   8
ENDBRANCH   1   5
BRANCH   1  17
ATOM     17  N   UNL     1      47.482   5.692  15.115  0.00  0.00    +0.000 N 
ATOM     18  C   UNL     1      48.567   5.729  15.953  0.00  0.00    +0.000 C 
ATOM     19  O   UNL     1      49.008   4.719  16.497  0.00  0.00    +0.000 OA
ATOM     20  H   UNL     1      47.005   6.558  14.886  0.00  0.00    +0.000 HD
BRANCH  18  21
ATOM     21  C   UNL     1      49.223   7.035  16.102  0.00  0.00    +0.000 A 
ATOM     22  C   UNL     1      49.368   7.601  17.363  0.00  0.00    +0.000 A 
ATOM     23  S   UNL     1      50.225   9.077  17.355  0.00  0.00    +0.000 S 
ATOM     24  C   UNL     1      50.378   9.044  15.661  0.00  0.00    +0.000 A 
ATOM     25  N   UNL     1      51.007  10.047  14.993  0.00  0.00    +0.000 NA
ATOM     26  C   UNL     1      51.014   9.912  13.709  0.00  0.00    +0.000 A 
ATOM     27  N   UNL     1      50.451   8.862  13.031  0.00  0.00    +0.000 N 
ATOM     28  C   UNL     1      49.845   7.805  13.666  0.00  0.00    +0.000 A 
ATOM     29  O   UNL     1      49.406   6.850  13.032  0.00  0.00    +0.000 OA
ATOM     30  C   UNL     1      49.795   7.917  15.110  0.00  0.00    +0.000 A 
ATOM     31  H   UNL     1      50.500   8.810  12.025  0.00  0.00    +0.000 HD
ENDBRANCH  18  21
ENDBRANCH   1  17
TORSDOF 6
ENDMDL
MODEL 5
REMARK VINA RESULT:    -7.613      2.679      3.304
REMARK INTER + INTRA:         -11.089
REMARK INTER:                 -10.052
REMARK INTRA:                  -1.037
REMARK UNBOUND:                -0.805
REMARK  Name = 
REMARK  6 active torsions:
REMARK  status: ('A' for Active; 'I' for Inactive)
REMARK    1  A    between atoms: C_2  and  C_3
REMARK    2  A    between atoms: C_7  and  C_8
REMARK    3  A    between atoms: C_8  and  C_9
REMARK    4  A    between atoms: C_12  and  C_13
REMARK    5  A    between atoms: C_13  and  N_14
REMARK    6  A    between atoms: C_15  and  C_17
REMARK                            x       y       z     vdW  Elec       q    Type
REMARK                         _______ _______ _______ _____ _____    ______ ____
ROOT
ATOM      1  C   UNL     1      47.881   4.846  15.242  0.00  0.00    +0.000 C 
ENDROOT
BRANCH   1   5
ATOM      2  C   UNL     1      45.235   4.201  11.950  0.00  0.00    +0.000 A 
ATOM      3  C   UNL     1      45.592   5.509  12.270  0.00  0.00    +0.000 A 
ATOM      4  C   UNL     1      46.456   5.733  13.344  0.00  0.00    +0.000 A 
ATOM      5  C   UNL     1      46.918   4.658  14.105  0.00  0.00    +0.000 A 
ATOM      6  C   UNL     1      46.480   3.392  13.735  0.00  0.00    +0.000 A 
ATOM      7  N   UNL     1      45.660   3.142  12.684  0.00  0.00    +0.000 NA
BRANCH   2   8
ATOM      8  C   UNL     1      44.404   3.906  10.716  0.00  0.00    +0.000 C 
BRANCH   8  13
ATOM      9  C   UNL     1      46.240   1.872   8.055  0.00  0.00    +0.000 A 
ATOM     10  C   UNL     1      46.687   2.874   7.190  0.00  0.00    +0.000 A 
ATOM     11  C   UNL     1      46.407   4.211   7.472  0.00  0.00    +0.000 A 
ATOM     12  C   UNL     1      45.670   4.549   8.611  0.00  0.00    +0.000 A 
ATOM     13  C   UNL     1      45.191   3.551   9.472  0.00  0.00    +0.000 A 
ATOM     14  C   UNL     1      45.499   2.211   9.193  0.00  0.00    +0.000 A 
BRANCH   9  16
ATOM     15  N   UNL     1      46.792  -0.618   7.575  0.00  0.00    +0.000 NA
ATOM     16  C   UNL     1      46.548   0.497   7.783  0.00  0.00    +0.000 C 
ENDBRANCH   9  16
ENDBRANCH   8  13
ENDBRANCH   2   8
ENDBRANCH   1   5
BRANCH   1  17
ATOM     17  N   UNL     1      47.890   6.216  15.706  0.00  0.00    +0.000 N 
ATOM     18  C   UNL     1      49.057   6.879  15.988  0.00  0.00    +0.000 C 
ATOM     19  O   UNL     1      50.158   6.353  15.847  0.00  0.00    +0.000 OA
ATOM     20  H   UNL     1      47.014   6.586  16.061  0.00  0.00    +0.000 HD
BRANCH  18  21
ATOM     21  C   UNL     1      48.918   8.284  16.395  0.00  0.00    +0.000 A 
ATOM     22  C   UNL     1      49.451   9.294  15.602  0.00  0.00    +0.000 A 
ATOM     23  S   UNL     1      49.123  10.865  16.185  0.00  0.00    +0.000 S 
ATOM     24  C   UNL     1      48.313  10.250  17.548  0.00  0.00    +0.000 A 
ATOM     25  N   UNL     1      47.788  11.083  18.488  0.00  0.00    +0.000 NA
ATOM     26  C   UNL     1      47.237  10.480  19.488  0.00  0.00    +0.000 A 
ATOM     27  N   UNL     1      47.159   9.119  19.634  0.00  0.00    +0.000 N 
ATOM     28  C   UNL     1      47.636   8.241  18.690  0.00  0.00    +0.000 A 
ATOM     29  O   UNL     1      47.495   7.028  18.822  0.00  0.00    +0.000 OA
ATOM     30  C   UNL     1      48.280   8.867  17.553  0.00  0.00    +0.000 A 
ATOM     31  H   UNL     1      46.705   8.709  20.435  0.00  0.00    +0.000 HD
ENDBRANCH  18  21
ENDBRANCH   1  17
TORSDOF 6
ENDMDL
MODEL 6
REMARK VINA RESULT:    -7.121      2.938      8.553
REMARK INTER + INTRA:         -10.424
REMARK INTER:                  -9.308
REMARK INTRA:                  -1.115
REMARK UNBOUND:                -0.805
REMARK  Name = 
REMARK  6 active torsions:
REMARK  status: ('A' for Active; 'I' for Inactive)
REMARK    1  A    between atoms: C_2  and  C_3
REMARK    2  A    between atoms: C_7  and  C_8
REMARK    3  A    between atoms: C_8  and  C_9
REMARK    4  A    between atoms: C_12  and  C_13
REMARK    5  A    between atoms: C_13  and  N_14
REMARK    6  A    between atoms: C_15  and  C_17
REMARK                            x       y       z     vdW  Elec       q    Type
REMARK                         _______ _______ _______ _____ _____    ______ ____
ROOT
ATOM      1  C   UNL     1      47.255   7.950  11.813  0.00  0.00    +0.000 C 
ENDROOT
BRANCH   1   5
ATOM      2  C   UNL     1      49.481   7.947  15.460  0.00  0.00    +0.000 A 
ATOM      3  C   UNL     1      48.417   8.836  15.331  0.00  0.00    +0.000 A 
ATOM      4  C   UNL     1      47.682   8.847  14.144  0.00  0.00    +0.000 A 
ATOM      5  C   UNL     1      48.041   8.004  13.092  0.00  0.00    +0.000 A 
ATOM      6  C   UNL     1      49.138   7.176  13.296  0.00  0.00    +0.000 A 
ATOM      7  N   UNL     1      49.858   7.127  14.446  0.00  0.00    +0.000 NA
BRANCH   2   8
ATOM      8  C   UNL     1      50.222   7.813  16.776  0.00  0.00    +0.000 C 
BRANCH   8  13
ATOM      9  C   UNL     1      48.190   4.948  18.276  0.00  0.00    +0.000 A 
ATOM     10  C   UNL     1      48.378   5.154  19.646  0.00  0.00    +0.000 A 
ATOM     11  C   UNL     1      49.151   6.227  20.087  0.00  0.00    +0.000 A 
ATOM     12  C   UNL     1      49.749   7.089  19.163  0.00  0.00    +0.000 A 
ATOM     13  C   UNL     1      49.591   6.877  17.785  0.00  0.00    +0.000 A 
ATOM     14  C   UNL     1      48.791   5.810  17.352  0.00  0.00    +0.000 A 
BRANCH   9  16
ATOM     15  N   UNL     1      46.705   2.990  17.442  0.00  0.00    +0.000 NA
ATOM     16  C   UNL     1      47.374   3.861  17.818  0.00  0.00    +0.000 C 
ENDBRANCH   9  16
ENDBRANCH   8  13
ENDBRANCH   2   8
ENDBRANCH   1   5
BRANCH   1  17
ATOM     17  N   UNL     1      46.626   6.658  11.635  0.00  0.00    +0.000 N 
ATOM     18  C   UNL     1      45.264   6.505  11.664  0.00  0.00    +0.000 C 
ATOM     19  O   UNL     1      44.502   7.456  11.826  0.00  0.00    +0.000 OA
ATOM     20  H   UNL     1      47.217   5.841  11.745  0.00  0.00    +0.000 HD
BRANCH  18  21
ATOM     21  C   UNL     1      44.762   5.148  11.411  0.00  0.00    +0.000 A 
ATOM     22  C   UNL     1      44.037   4.481  12.391  0.00  0.00    +0.000 A 
ATOM     23  S   UNL     1      43.463   2.951  11.894  0.00  0.00    +0.000 S 
ATOM     24  C   UNL     1      44.216   3.100  10.376  0.00  0.00    +0.000 A 
ATOM     25  N   UNL     1      44.133   2.107   9.450  0.00  0.00    +0.000 NA
ATOM     26  C   UNL     1      44.785   2.337   8.360  0.00  0.00    +0.000 A 
ATOM     27  N   UNL     1      45.511   3.472   8.108  0.00  0.00    +0.000 N 
ATOM     28  C   UNL     1      45.586   4.519   8.995  0.00  0.00    +0.000 A 
ATOM     29  O   UNL     1      46.193   5.548   8.713  0.00  0.00    +0.000 OA
ATOM     30  C   UNL     1      44.884   4.304  10.244  0.00  0.00    +0.000 A 
ATOM     31  H   UNL     1      45.990   3.596   7.229  0.00  0.00    +0.000 HD
ENDBRANCH  18  21
ENDBRANCH   1  17
TORSDOF 6
ENDMDL
MODEL 7
REMARK VINA RESULT:    -7.031      3.935      8.797
REMARK INTER + INTRA:         -10.302
REMARK INTER:                  -9.271
REMARK INTRA:                  -1.031
REMARK UNBOUND:                -0.805
REMARK  Name = 
REMARK  6 active torsions:
REMARK  status: ('A' for Active; 'I' for Inactive)
REMARK    1  A    between atoms: C_2  and  C_3
REMARK    2  A    between atoms: C_7  and  C_8
REMARK    3  A    between atoms: C_8  and  C_9
REMARK    4  A    between atoms: C_12  and  C_13
REMARK    5  A    between atoms: C_13  and  N_14
REMARK    6  A    between atoms: C_15  and  C_17
REMARK                            x       y       z     vdW  Elec       q    Type
REMARK                         _______ _______ _______ _____ _____    ______ ____
ROOT
ATOM      1  C   UNL     1      47.190   3.305  16.874  0.00  0.00    +0.000 C 
ENDROOT
BRANCH   1   5
ATOM      2  C   UNL     1      51.213   3.868  18.199  0.00  0.00    +0.000 A 
ATOM      3  C   UNL     1      50.906   2.717  17.478  0.00  0.00    +0.000 A 
ATOM      4  C   UNL     1      49.595   2.521  17.039  0.00  0.00    +0.000 A 
ATOM      5  C   UNL     1      48.604   3.451  17.359  0.00  0.00    +0.000 A 
ATOM      6  C   UNL     1      48.995   4.551  18.113  0.00  0.00    +0.000 A 
ATOM      7  N   UNL     1      50.265   4.780  18.534  0.00  0.00    +0.000 NA
BRANCH   2   8
ATOM      8  C   UNL     1      52.646   4.181  18.582  0.00  0.00    +0.000 C 
BRANCH   8  13
ATOM      9  C   UNL     1      53.688   6.540  15.764  0.00  0.00    +0.000 A 
ATOM     10  C   UNL     1      54.981   6.090  15.480  0.00  0.00    +0.000 A 
ATOM     11  C   UNL     1      55.513   5.014  16.191  0.00  0.00    +0.000 A 
ATOM     12  C   UNL     1      54.761   4.395  17.194  0.00  0.00    +0.000 A 
ATOM     13  C   UNL     1      53.474   4.855  17.507  0.00  0.00    +0.000 A 
ATOM     14  C   UNL     1      52.938   5.921  16.771  0.00  0.00    +0.000 A 
BRANCH   9  16
ATOM     15  N   UNL     1      52.669   8.517  14.427  0.00  0.00    +0.000 NA
ATOM     16  C   UNL     1      53.127   7.630  15.019  0.00  0.00    +0.000 C 
ENDBRANCH   9  16
ENDBRANCH   8  13
ENDBRANCH   2   8
ENDBRANCH   1   5
BRANCH   1  17
ATOM     17  N   UNL     1      46.848   4.344  15.926  0.00  0.00    +0.000 N 
ATOM     18  C   UNL     1      46.949   4.153  14.572  0.00  0.00    +0.000 C 
ATOM     19  O   UNL     1      47.320   3.085  14.088  0.00  0.00    +0.000 OA
ATOM     20  H   UNL     1      46.780   5.290  16.287  0.00  0.00    +0.000 HD
BRANCH  18  21
ATOM     21  C   UNL     1      46.514   5.273  13.728  0.00  0.00    +0.000 A 
ATOM     22  C   UNL     1      47.343   6.374  13.550  0.00  0.00    +0.000 A 
ATOM     23  S   UNL     1      46.712   7.539  12.474  0.00  0.00    +0.000 S 
ATOM     24  C   UNL     1      45.282   6.644  12.256  0.00  0.00    +0.000 A 
ATOM     25  N   UNL     1      44.285   7.098  11.450  0.00  0.00    +0.000 NA
ATOM     26  C   UNL     1      43.242   6.338  11.409  0.00  0.00    +0.000 A 
ATOM     27  N   UNL     1      43.106   5.161  12.099  0.00  0.00    +0.000 N 
ATOM     28  C   UNL     1      44.103   4.642  12.890  0.00  0.00    +0.000 A 
ATOM     29  O   UNL     1      43.972   3.555  13.445  0.00  0.00    +0.000 OA
ATOM     30  C   UNL     1      45.291   5.467  12.983  0.00  0.00    +0.000 A 
ATOM     31  H   UNL     1      42.268   4.606  12.016  0.00  0.00    +0.000 HD
ENDBRANCH  18  21
ENDBRANCH   1  17
TORSDOF 6
ENDMDL
MODEL 8
REMARK VINA RESULT:    -7.026      4.234      9.193
REMARK INTER + INTRA:         -10.296
REMARK INTER:                  -9.685
REMARK INTRA:                  -0.611
REMARK UNBOUND:                -0.805
REMARK  Name = 
REMARK  6 active torsions:
REMARK  status: ('A' for Active; 'I' for Inactive)
REMARK    1  A    between atoms: C_2  and  C_3
REMARK    2  A    between atoms: C_7  and  C_8
REMARK    3  A    between atoms: C_8  and  C_9
REMARK    4  A    between atoms: C_12  and  C_13
REMARK    5  A    between atoms: C_13  and  N_14
REMARK    6  A    between atoms: C_15  and  C_17
REMARK                            x       y       z     vdW  Elec       q    Type
REMARK                         _______ _______ _______ _____ _____    ______ ____
ROOT
ATOM      1  C   UNL     1      47.189   3.412  16.810  0.00  0.00    +0.000 C 
ENDROOT
BRANCH   1   5
ATOM      2  C   UNL     1      51.362   3.849  17.617  0.00  0.00    +0.000 A 
ATOM      3  C   UNL     1      50.856   2.569  17.406  0.00  0.00    +0.000 A 
ATOM      4  C   UNL     1      49.494   2.412  17.143  0.00  0.00    +0.000 A 
ATOM      5  C   UNL     1      48.651   3.525  17.132  0.00  0.00    +0.000 A 
ATOM      6  C   UNL     1      49.238   4.760  17.387  0.00  0.00    +0.000 A 
ATOM      7  N   UNL     1      50.561   4.945  17.625  0.00  0.00    +0.000 NA
BRANCH   2   8
ATOM      8  C   UNL     1      52.852   4.075  17.778  0.00  0.00    +0.000 C 
BRANCH   8  13
ATOM      9  C   UNL     1      54.596   0.677  17.824  0.00  0.00    +0.000 A 
ATOM     10  C   UNL     1      55.076   0.622  19.136  0.00  0.00    +0.000 A 
ATOM     11  C   UNL     1      54.824   1.677  20.012  0.00  0.00    +0.000 A 
ATOM     12  C   UNL     1      54.106   2.795  19.577  0.00  0.00    +0.000 A 
ATOM     13  C   UNL     1      53.644   2.875  18.255  0.00  0.00    +0.000 A 
ATOM     14  C   UNL     1      53.880   1.798  17.389  0.00  0.00    +0.000 A 
BRANCH   9  16
ATOM     15  N   UNL     1      55.028  -1.308  16.209  0.00  0.00    +0.000 NA
ATOM     16  C   UNL     1      54.830  -0.418  16.926  0.00  0.00    +0.000 C 
ENDBRANCH   9  16
ENDBRANCH   8  13
ENDBRANCH   2   8
ENDBRANCH   1   5
BRANCH   1  17
ATOM     17  N   UNL     1      46.782   4.409  15.843  0.00  0.00    +0.000 N 
ATOM     18  C   UNL     1      46.831   4.171  14.493  0.00  0.00    +0.000 C 
ATOM     19  O   UNL     1      47.206   3.095  14.032  0.00  0.00    +0.000 OA
ATOM     20  H   UNL     1      46.707   5.365  16.173  0.00  0.00    +0.000 HD
BRANCH  18  21
ATOM     21  C   UNL     1      46.335   5.250  13.630  0.00  0.00    +0.000 A 
ATOM     22  C   UNL     1      47.115   6.379  13.408  0.00  0.00    +0.000 A 
ATOM     23  S   UNL     1      46.416   7.488  12.315  0.00  0.00    +0.000 S 
ATOM     24  C   UNL     1      45.020   6.531  12.148  0.00  0.00    +0.000 A 
ATOM     25  N   UNL     1      43.990   6.923  11.350  0.00  0.00    +0.000 NA
ATOM     26  C   UNL     1      42.979   6.120  11.349  0.00  0.00    +0.000 A 
ATOM     27  N   UNL     1      42.904   4.958  12.072  0.00  0.00    +0.000 N 
ATOM     28  C   UNL     1      43.936   4.500  12.856  0.00  0.00    +0.000 A 
ATOM     29  O   UNL     1      43.861   3.423  13.440  0.00  0.00    +0.000 OA
ATOM     30  C   UNL     1      45.091   5.375  12.904  0.00  0.00    +0.000 A 
ATOM     31  H   UNL     1      42.088   4.367  12.019  0.00  0.00    +0.000 HD
ENDBRANCH  18  21
ENDBRANCH   1  17
TORSDOF 6
ENDMDL
MODEL 9
REMARK VINA RESULT:    -6.967      2.975      4.719
REMARK INTER + INTRA:         -10.217
REMARK INTER:                  -9.289
REMARK INTRA:                  -0.927
REMARK UNBOUND:                -0.805
REMARK  Name = 
REMARK  6 active torsions:
REMARK  status: ('A' for Active; 'I' for Inactive)
REMARK    1  A    between atoms: C_2  and  C_3
REMARK    2  A    between atoms: C_7  and  C_8
REMARK    3  A    between atoms: C_8  and  C_9
REMARK    4  A    between atoms: C_12  and  C_13
REMARK    5  A    between atoms: C_13  and  N_14
REMARK    6  A    between atoms: C_15  and  C_17
REMARK                            x       y       z     vdW  Elec       q    Type
REMARK                         _______ _______ _______ _____ _____    ______ ____
ROOT
ATOM      1  C   UNL     1      47.827   6.123  14.621  0.00  0.00    +0.000 C 
ENDROOT
BRANCH   1   5
ATOM      2  C   UNL     1      45.217   4.539  11.632  0.00  0.00    +0.000 A 
ATOM      3  C   UNL     1      45.560   5.888  11.569  0.00  0.00    +0.000 A 
ATOM      4  C   UNL     1      46.411   6.418  12.540  0.00  0.00    +0.000 A 
ATOM      5  C   UNL     1      46.876   5.609  13.579  0.00  0.00    +0.000 A 
ATOM      6  C   UNL     1      46.453   4.285  13.581  0.00  0.00    +0.000 A 
ATOM      7  N   UNL     1      45.645   3.737  12.639  0.00  0.00    +0.000 NA
BRANCH   2   8
ATOM      8  C   UNL     1      44.401   3.896  10.528  0.00  0.00    +0.000 C 
BRANCH   8  13
ATOM      9  C   UNL     1      46.228   1.714   7.981  0.00  0.00    +0.000 A 
ATOM     10  C   UNL     1      46.673   2.666   7.058  0.00  0.00    +0.000 A 
ATOM     11  C   UNL     1      46.394   4.016   7.266  0.00  0.00    +0.000 A 
ATOM     12  C   UNL     1      45.660   4.418   8.385  0.00  0.00    +0.000 A 
ATOM     13  C   UNL     1      45.184   3.470   9.304  0.00  0.00    +0.000 A 
ATOM     14  C   UNL     1      45.491   2.117   9.100  0.00  0.00    +0.000 A 
BRANCH   9  16
ATOM     15  N   UNL     1      46.775  -0.800   7.639  0.00  0.00    +0.000 NA
ATOM     16  C   UNL     1      46.535   0.326   7.786  0.00  0.00    +0.000 C 
ENDBRANCH   9  16
ENDBRANCH   8  13
ENDBRANCH   2   8
ENDBRANCH   1   5
BRANCH   1  17
ATOM     17  N   UNL     1      48.929   6.843  14.020  0.00  0.00    +0.000 N 
ATOM     18  C   UNL     1      49.217   8.141  14.357  0.00  0.00    +0.000 C 
ATOM     19  O   UNL     1      48.566   8.758  15.197  0.00  0.00    +0.000 OA
ATOM     20  H   UNL     1      49.319   6.457  13.166  0.00  0.00    +0.000 HD
BRANCH  18  21
ATOM     21  C   UNL     1      50.398   8.729  13.711  0.00  0.00    +0.000 A 
ATOM     22  C   UNL     1      51.662   8.516  14.247  0.00  0.00    +0.000 A 
ATOM     23  S   UNL     1      52.922   9.202  13.320  0.00  0.00    +0.000 S 
ATOM     24  C   UNL     1      51.818   9.861  12.206  0.00  0.00    +0.000 A 
ATOM     25  N   UNL     1      52.246  10.602  11.148  0.00  0.00    +0.000 NA
ATOM     26  C   UNL     1      51.299  11.073  10.408  0.00  0.00    +0.000 A 
ATOM     27  N   UNL     1      49.961  10.868  10.626  0.00  0.00    +0.000 N 
ATOM     28  C   UNL     1      49.486  10.091  11.655  0.00  0.00    +0.000 A 
ATOM     29  O   UNL     1      48.284   9.877  11.786  0.00  0.00    +0.000 OA
ATOM     30  C   UNL     1      50.509   9.551  12.527  0.00  0.00    +0.000 A 
ATOM     31  H   UNL     1      49.270  11.256  10.003  0.00  0.00    +0.000 HD
ENDBRANCH  18  21
ENDBRANCH   1  17
TORSDOF 6
ENDMDL
