MODEL 1
REMARK VINA RESULT:    -8.455      0.000      0.000
REMARK INTER + INTRA:         -13.984
REMARK INTER:                 -12.409
REMARK INTRA:                  -1.576
REMARK UNBOUND:                -1.576
REMARK  Name = 
REMARK  9 active torsions:
REMARK  status: ('A' for Active; 'I' for Inactive)
REMARK    1  A    between atoms: C_1  and  O_2
REMARK    2  A    between atoms: O_2  and  C_3
REMARK    3  A    between atoms: C_10  and  C_11
REMARK    4  A    between atoms: N_13  and  C_14
REMARK    5  A    between atoms: C_14  and  C_15
REMARK    6  A    between atoms: C_18  and  C_19
REMARK    7  A    between atoms: C_19  and  N_20
REMARK    8  A    between atoms: N_20  and  C_21
REMARK    9  A    between atoms: C_21  and  C_22
REMARK                            x       y       z     vdW  Elec       q    Type
REMARK                         _______ _______ _______ _____ _____    ______ ____
ROOT
ATOM      1  C   UNL     1      47.162   8.193  13.319  0.00  0.00    +0.000 C 
ENDROOT
BRANCH   1   2
ATOM      2  C   UNL     1      46.250   7.373  12.435  0.00  0.00    +0.000 A 
ATOM      3  C   UNL     1      46.777   6.570  11.414  0.00  0.00    +0.000 A 
ATOM      4  C   UNL     1      45.944   5.727  10.665  0.00  0.00    +0.000 A 
ATOM      5  C   UNL     1      44.563   5.677  10.904  0.00  0.00    +0.000 A 
ATOM      6  C   UNL     1      44.029   6.541  11.870  0.00  0.00    +0.000 A 
ATOM      7  C   UNL     1      44.862   7.381  12.624  0.00  0.00    +0.000 A 
BRANCH   5   8
ATOM      8  C   UNL     1      43.680   4.713  10.135  0.00  0.00    +0.000 C 
BRANCH   8   9
ATOM      9  N   UNL     1      44.335   4.247   8.910  0.00  0.00    +0.000 NA
ATOM     10  H   UNL     1      45.257   4.678   8.844  0.00  0.00    +0.000 HD
BRANCH   9  11
ATOM     11  C   UNL     1      44.486   2.791   8.889  0.00  0.00    +0.000 C 
BRANCH  11  12
ATOM     12  C   UNL     1      45.733   2.383   8.138  0.00  0.00    +0.000 A 
ATOM     13  C   UNL     1      46.160   1.051   8.104  0.00  0.00    +0.000 A 
ATOM     14  C   UNL     1      47.307   0.734   7.390  0.00  0.00    +0.000 A 
ATOM     15  N   UNL     1      48.046   1.636   6.712  0.00  0.00    +0.000 NA
ATOM     16  C   UNL     1      47.620   2.916   6.753  0.00  0.00    +0.000 A 
ATOM     17  C   UNL     1      46.487   3.331   7.437  0.00  0.00    +0.000 A 
ENDBRANCH  11  12
ENDBRANCH   9  11
ENDBRANCH   8   9
ENDBRANCH   5   8
ENDBRANCH   1   2
BRANCH   1  20
ATOM     18  C   UNL     1      48.760   6.881  14.665  0.00  0.00    +0.000 C 
ATOM     19  O   UNL     1      49.606   6.918  13.775  0.00  0.00    +0.000 OA
ATOM     20  N   UNL     1      47.539   7.484  14.516  0.00  0.00    +0.000 N 
ATOM     21  H   UNL     1      46.859   7.442  15.260  0.00  0.00    +0.000 HD
BRANCH  18  29
ATOM     22  C   UNL     1      47.242   4.215  16.213  0.00  0.00    +0.000 A 
ATOM     23  N   UNL     1      46.880   3.170  16.980  0.00  0.00    +0.000 NA
ATOM     24  C   UNL     1      47.588   2.938  18.088  0.00  0.00    +0.000 A 
ATOM     25  N   UNL     1      48.624   3.638  18.542  0.00  0.00    +0.000 NA
ATOM     26  C   UNL     1      48.960   4.661  17.739  0.00  0.00    +0.000 A 
ATOM     27  S   UNL     1      50.251   5.676  18.164  0.00  0.00    +0.000 S 
ATOM     28  C   UNL     1      50.049   6.606  16.754  0.00  0.00    +0.000 A 
ATOM     29  C   UNL     1      49.014   6.170  15.934  0.00  0.00    +0.000 A 
ATOM     30  C   UNL     1      48.346   5.024  16.543  0.00  0.00    +0.000 A 
BRANCH  22  32
ATOM     31  C   UNL     1      46.974   3.714  13.942  0.00  0.00    +0.000 C 
ATOM     32  O   UNL     1      46.518   4.459  15.067  0.00  0.00    +0.000 OA
ENDBRANCH  22  32
ENDBRANCH  18  29
ENDBRANCH   1  20
TORSDOF 8
ENDMDL
MODEL 2
REMARK VINA RESULT:    -7.753      1.578      2.080
REMARK INTER + INTRA:         -12.954
REMARK INTER:                 -11.591
REMARK INTRA:                  -1.363
REMARK UNBOUND:                -1.576
REMARK  Name = 
REMARK  9 active torsions:
REMARK  status: ('A' for Active; 'I' for Inactive)
REMARK    1  A    between atoms: C_1  and  O_2
REMARK    2  A    between atoms: O_2  and  C_3
REMARK    3  A    between atoms: C_10  and  C_11
REMARK    4  A    between atoms: N_13  and  C_14
REMARK    5  A    between atoms: C_14  and  C_15
REMARK    6  A    between atoms: C_18  and  C_19
REMARK    7  A    between atoms: C_19  and  N_20
REMARK    8  A    between atoms: N_20  and  C_21
REMARK    9  A    between atoms: C_21  and  C_22
REMARK                            x       y       z     vdW  Elec       q    Type
REMARK                         _______ _______ _______ _____ _____    ______ ____
ROOT
ATOM      1  C   UNL     1      47.987   7.137  13.107  0.00  0.00    +0.000 C 
ENDROOT
BRANCH   1   2
ATOM      2  C   UNL     1      46.915   6.253  12.512  0.00  0.00    +0.000 A 
ATOM      3  C   UNL     1      46.420   5.152  13.225  0.00  0.00    +0.000 A 
ATOM      4  C   UNL     1      45.352   4.396  12.722  0.00  0.00    +0.000 A 
ATOM      5  C   UNL     1      44.761   4.709  11.489  0.00  0.00    +0.000 A 
ATOM      6  C   UNL     1      45.312   5.760  10.742  0.00  0.00    +0.000 A 
ATOM      7  C   UNL     1      46.378   6.520  11.245  0.00  0.00    +0.000 A 
BRANCH   5   8
ATOM      8  C   UNL     1      43.564   3.928  10.984  0.00  0.00    +0.000 C 
BRANCH   8   9
ATOM      9  N   UNL     1      43.767   3.464   9.609  0.00  0.00    +0.000 NA
ATOM     10  H   UNL     1      44.219   4.205   9.074  0.00  0.00    +0.000 HD
BRANCH   9  11
ATOM     11  C   UNL     1      44.599   2.261   9.555  0.00  0.00    +0.000 C 
BRANCH  11  12
ATOM     12  C   UNL     1      45.634   2.362   8.457  0.00  0.00    +0.000 A 
ATOM     13  C   UNL     1      45.866   3.565   7.782  0.00  0.00    +0.000 A 
ATOM     14  C   UNL     1      46.837   3.601   6.791  0.00  0.00    +0.000 A 
ATOM     15  N   UNL     1      47.586   2.538   6.431  0.00  0.00    +0.000 NA
ATOM     16  C   UNL     1      47.352   1.385   7.093  0.00  0.00    +0.000 A 
ATOM     17  C   UNL     1      46.407   1.251   8.099  0.00  0.00    +0.000 A 
ENDBRANCH  11  12
ENDBRANCH   9  11
ENDBRANCH   8   9
ENDBRANCH   5   8
ENDBRANCH   1   2
BRANCH   1  20
ATOM     18  C   UNL     1      48.967   7.044  15.369  0.00  0.00    +0.000 C 
ATOM     19  O   UNL     1      50.087   6.808  14.920  0.00  0.00    +0.000 OA
ATOM     20  N   UNL     1      47.889   7.219  14.542  0.00  0.00    +0.000 N 
ATOM     21  H   UNL     1      46.979   7.412  14.932  0.00  0.00    +0.000 HD
BRANCH  18  29
ATOM     22  C   UNL     1      48.814   4.701  17.877  0.00  0.00    +0.000 A 
ATOM     23  N   UNL     1      48.772   4.007  19.030  0.00  0.00    +0.000 NA
ATOM     24  C   UNL     1      48.580   4.692  20.160  0.00  0.00    +0.000 A 
ATOM     25  N   UNL     1      48.409   6.006  20.285  0.00  0.00    +0.000 NA
ATOM     26  C   UNL     1      48.472   6.658  19.113  0.00  0.00    +0.000 A 
ATOM     27  S   UNL     1      48.263   8.341  19.075  0.00  0.00    +0.000 S 
ATOM     28  C   UNL     1      48.485   8.380  17.389  0.00  0.00    +0.000 A 
ATOM     29  C   UNL     1      48.729   7.134  16.822  0.00  0.00    +0.000 A 
ATOM     30  C   UNL     1      48.690   6.102  17.855  0.00  0.00    +0.000 A 
BRANCH  22  32
ATOM     31  C   UNL     1      47.841   3.348  16.233  0.00  0.00    +0.000 C 
ATOM     32  O   UNL     1      49.014   4.001  16.708  0.00  0.00    +0.000 OA
ENDBRANCH  22  32
ENDBRANCH  18  29
ENDBRANCH   1  20
TORSDOF 8
ENDMDL
MODEL 3
REMARK VINA RESULT:    -7.427      2.008      3.453
REMARK INTER + INTRA:         -12.476
REMARK INTER:                 -11.219
REMARK INTRA:                  -1.257
REMARK UNBOUND:                -1.576
REMARK  Name = 
REMARK  9 active torsions:
REMARK  status: ('A' for Active; 'I' for Inactive)
REMARK    1  A    between atoms: C_1  and  O_2
REMARK    2  A    between atoms: O_2  and  C_3
REMARK    3  A    between atoms: C_10  and  C_11
REMARK    4  A    between atoms: N_13  and  C_14
REMARK    5  A    between atoms: C_14  and  C_15
REMARK    6  A    between atoms: C_18  and  C_19
REMARK    7  A    between atoms: C_19  and  N_20
REMARK    8  A    between atoms: N_20  and  C_21
REMARK    9  A    between atoms: C_21  and  C_22
REMARK                            x       y       z     vdW  Elec       q    Type
REMARK                         _______ _______ _______ _____ _____    ______ ____
ROOT
ATOM      1  C   UNL     1      47.153   3.744  15.112  0.00  0.00    +0.000 C 
ENDROOT
BRANCH   1   2
ATOM      2  C   UNL     1      46.586   4.166  13.776  0.00  0.00    +0.000 A 
ATOM      3  C   UNL     1      45.894   3.250  12.972  0.00  0.00    +0.000 A 
ATOM      4  C   UNL     1      45.274   3.664  11.785  0.00  0.00    +0.000 A 
ATOM      5  C   UNL     1      45.342   5.000  11.362  0.00  0.00    +0.000 A 
ATOM      6  C   UNL     1      46.103   5.896  12.127  0.00  0.00    +0.000 A 
ATOM      7  C   UNL     1      46.720   5.483  13.317  0.00  0.00    +0.000 A 
BRANCH   5   8
ATOM      8  C   UNL     1      44.613   5.454  10.113  0.00  0.00    +0.000 C 
BRANCH   8   9
ATOM      9  N   UNL     1      45.333   5.059   8.899  0.00  0.00    +0.000 NA
ATOM     10  H   UNL     1      46.310   4.889   9.135  0.00  0.00    +0.000 HD
BRANCH   9  11
ATOM     11  C   UNL     1      44.770   3.849   8.297  0.00  0.00    +0.000 C 
BRANCH  11  12
ATOM     12  C   UNL     1      45.862   2.935   7.787  0.00  0.00    +0.000 A 
ATOM     13  C   UNL     1      45.961   1.607   8.217  0.00  0.00    +0.000 A 
ATOM     14  C   UNL     1      46.977   0.812   7.706  0.00  0.00    +0.000 A 
ATOM     15  N   UNL     1      47.887   1.239   6.806  0.00  0.00    +0.000 NA
ATOM     16  C   UNL     1      47.777   2.521   6.400  0.00  0.00    +0.000 A 
ATOM     17  C   UNL     1      46.795   3.392   6.850  0.00  0.00    +0.000 A 
ENDBRANCH  11  12
ENDBRANCH   9  11
ENDBRANCH   8   9
ENDBRANCH   5   8
ENDBRANCH   1   2
BRANCH   1  20
ATOM     18  C   UNL     1      47.839   4.741  17.262  0.00  0.00    +0.000 C 
ATOM     19  O   UNL     1      47.925   3.637  17.795  0.00  0.00    +0.000 OA
ATOM     20  N   UNL     1      47.468   4.873  15.950  0.00  0.00    +0.000 N 
ATOM     21  H   UNL     1      47.405   5.789  15.532  0.00  0.00    +0.000 HD
BRANCH  18  29
ATOM     22  C   UNL     1      49.713   7.539  16.581  0.00  0.00    +0.000 A 
ATOM     23  N   UNL     1      50.308   8.746  16.534  0.00  0.00    +0.000 NA
ATOM     24  C   UNL     1      50.137   9.564  17.576  0.00  0.00    +0.000 A 
ATOM     25  N   UNL     1      49.444   9.319  18.686  0.00  0.00    +0.000 NA
ATOM     26  C   UNL     1      48.857   8.111  18.683  0.00  0.00    +0.000 A 
ATOM     27  S   UNL     1      47.941   7.618  20.023  0.00  0.00    +0.000 S 
ATOM     28  C   UNL     1      47.569   6.132  19.284  0.00  0.00    +0.000 A 
ATOM     29  C   UNL     1      48.117   5.979  18.016  0.00  0.00    +0.000 A 
ATOM     30  C   UNL     1      48.913   7.154  17.673  0.00  0.00    +0.000 A 
BRANCH  22  32
ATOM     31  C   UNL     1      49.804   7.352  14.250  0.00  0.00    +0.000 C 
ATOM     32  O   UNL     1      49.883   6.692  15.509  0.00  0.00    +0.000 OA
ENDBRANCH  22  32
ENDBRANCH  18  29
ENDBRANCH   1  20
TORSDOF 8
ENDMDL
MODEL 4
REMARK VINA RESULT:    -7.350      1.859      2.380
REMARK INTER + INTRA:         -12.363
REMARK INTER:                 -11.280
REMARK INTRA:                  -1.082
REMARK UNBOUND:                -1.576
REMARK  Name = 
REMARK  9 active torsions:
REMARK  status: ('A' for Active; 'I' for Inactive)
REMARK    1  A    between atoms: C_1  and  O_2
REMARK    2  A    between atoms: O_2  and  C_3
REMARK    3  A    between atoms: C_10  and  C_11
REMARK    4  A    between atoms: N_13  and  C_14
REMARK    5  A    between atoms: C_14  and  C_15
REMARK    6  A    between atoms: C_18  and  C_19
REMARK    7  A    between atoms: C_19  and  N_20
REMARK    8  A    between atoms: N_20  and  C_21
REMARK    9  A    between atoms: C_21  and  C_22
REMARK                            x       y       z     vdW  Elec       q    Type
REMARK                         _______ _______ _______ _____ _____    ______ ____
ROOT
ATOM      1  C   UNL     1      48.309   7.471  14.425  0.00  0.00    +0.000 C 
ENDROOT
BRANCH   1   2
ATOM      2  C   UNL     1      47.407   6.690  13.496  0.00  0.00    +0.000 A 
ATOM      3  C   UNL     1      46.762   5.527  13.937  0.00  0.00    +0.000 A 
ATOM      4  C   UNL     1      45.842   4.863  13.113  0.00  0.00    +0.000 A 
ATOM      5  C   UNL     1      45.554   5.334  11.824  0.00  0.00    +0.000 A 
ATOM      6  C   UNL     1      46.262   6.451  11.357  0.00  0.00    +0.000 A 
ATOM      7  C   UNL     1      47.179   7.118  12.181  0.00  0.00    +0.000 A 
BRANCH   5   8
ATOM      8  C   UNL     1      44.509   4.649  10.966  0.00  0.00    +0.000 C 
BRANCH   8   9
ATOM      9  N   UNL     1      45.049   3.450  10.318  0.00  0.00    +0.000 NA
ATOM     10  H   UNL     1      44.642   2.626  10.759  0.00  0.00    +0.000 HD
BRANCH   9  11
ATOM     11  C   UNL     1      44.751   3.421   8.885  0.00  0.00    +0.000 C 
BRANCH  11  12
ATOM     12  C   UNL     1      45.843   2.713   8.115  0.00  0.00    +0.000 A 
ATOM     13  C   UNL     1      46.692   3.408   7.248  0.00  0.00    +0.000 A 
ATOM     14  C   UNL     1      47.684   2.706   6.577  0.00  0.00    +0.000 A 
ATOM     15  N   UNL     1      47.889   1.379   6.709  0.00  0.00    +0.000 NA
ATOM     16  C   UNL     1      47.062   0.723   7.550  0.00  0.00    +0.000 A 
ATOM     17  C   UNL     1      46.045   1.336   8.267  0.00  0.00    +0.000 A 
ENDBRANCH  11  12
ENDBRANCH   9  11
ENDBRANCH   8   9
ENDBRANCH   5   8
ENDBRANCH   1   2
BRANCH   1  20
ATOM     18  C   UNL     1      49.300   6.476  16.454  0.00  0.00    +0.000 C 
ATOM     19  O   UNL     1      48.503   7.064  17.182  0.00  0.00    +0.000 OA
ATOM     20  N   UNL     1      49.265   6.624  15.092  0.00  0.00    +0.000 N 
ATOM     21  H   UNL     1      49.928   6.132  14.513  0.00  0.00    +0.000 HD
BRANCH  18  29
ATOM     22  C   UNL     1      49.608   3.063  16.704  0.00  0.00    +0.000 A 
ATOM     23  N   UNL     1      49.998   1.784  16.863  0.00  0.00    +0.000 NA
ATOM     24  C   UNL     1      51.191   1.564  17.420  0.00  0.00    +0.000 A 
ATOM     25  N   UNL     1      52.056   2.476  17.857  0.00  0.00    +0.000 NA
ATOM     26  C   UNL     1      51.633   3.737  17.665  0.00  0.00    +0.000 A 
ATOM     27  S   UNL     1      52.598   5.035  18.173  0.00  0.00    +0.000 S 
ATOM     28  C   UNL     1      51.463   6.167  17.602  0.00  0.00    +0.000 A 
ATOM     29  C   UNL     1      50.342   5.594  17.013  0.00  0.00    +0.000 A 
ATOM     30  C   UNL     1      50.434   4.138  17.081  0.00  0.00    +0.000 A 
BRANCH  22  32
ATOM     31  C   UNL     1      47.321   3.397  17.077  0.00  0.00    +0.000 C 
ATOM     32  O   UNL     1      48.379   3.297  16.129  0.00  0.00    +0.000 OA
ENDBRANCH  22  32
ENDBRANCH  18  29
ENDBRANCH   1  20
TORSDOF 8
ENDMDL
MODEL 5
REMARK VINA RESULT:    -7.228      2.511      3.525
REMARK INTER + INTRA:         -12.184
REMARK INTER:                 -11.093
REMARK INTRA:                  -1.091
REMARK UNBOUND:                -1.576
REMARK  Name = 
REMARK  9 active torsions:
REMARK  status: ('A' for Active; 'I' for Inactive)
REMARK    1  A    between atoms: C_1  and  O_2
REMARK    2  A    between atoms: O_2  and  C_3
REMARK    3  A    between atoms: C_10  and  C_11
REMARK    4  A    between atoms: N_13  and  C_14
REMARK    5  A    between atoms: C_14  and  C_15
REMARK    6  A    between atoms: C_18  and  C_19
REMARK    7  A    between atoms: C_19  and  N_20
REMARK    8  A    between atoms: N_20  and  C_21
REMARK    9  A    between atoms: C_21  and  C_22
REMARK                            x       y       z     vdW  Elec       q    Type
REMARK                         _______ _______ _______ _____ _____    ______ ____
ROOT
ATOM      1  C   UNL     1      47.149   4.208  14.900  0.00  0.00    +0.000 C 
ENDROOT
BRANCH   1   2
ATOM      2  C   UNL     1      46.354   4.325  13.620  0.00  0.00    +0.000 A 
ATOM      3  C   UNL     1      45.943   3.178  12.927  0.00  0.00    +0.000 A 
ATOM      4  C   UNL     1      45.114   3.281  11.800  0.00  0.00    +0.000 A 
ATOM      5  C   UNL     1      44.688   4.531  11.329  0.00  0.00    +0.000 A 
ATOM      6  C   UNL     1      45.166   5.679  11.975  0.00  0.00    +0.000 A 
ATOM      7  C   UNL     1      45.992   5.577  13.104  0.00  0.00    +0.000 A 
BRANCH   5   8
ATOM      8  C   UNL     1      43.737   4.629  10.151  0.00  0.00    +0.000 C 
BRANCH   8   9
ATOM      9  N   UNL     1      44.135   3.729   9.065  0.00  0.00    +0.000 NA
ATOM     10  H   UNL     1      43.345   3.607   8.432  0.00  0.00    +0.000 HD
BRANCH   9  11
ATOM     11  C   UNL     1      45.275   4.251   8.310  0.00  0.00    +0.000 C 
BRANCH  11  12
ATOM     12  C   UNL     1      46.090   3.129   7.708  0.00  0.00    +0.000 A 
ATOM     13  C   UNL     1      46.889   3.333   6.577  0.00  0.00    +0.000 A 
ATOM     14  C   UNL     1      47.624   2.268   6.076  0.00  0.00    +0.000 A 
ATOM     15  N   UNL     1      47.623   1.031   6.616  0.00  0.00    +0.000 NA
ATOM     16  C   UNL     1      46.850   0.851   7.707  0.00  0.00    +0.000 A 
ATOM     17  C   UNL     1      46.082   1.852   8.283  0.00  0.00    +0.000 A 
ENDBRANCH  11  12
ENDBRANCH   9  11
ENDBRANCH   8   9
ENDBRANCH   5   8
ENDBRANCH   1   2
BRANCH   1  20
ATOM     18  C   UNL     1      48.545   5.670  16.315  0.00  0.00    +0.000 C 
ATOM     19  O   UNL     1      49.231   4.722  16.691  0.00  0.00    +0.000 OA
ATOM     20  N   UNL     1      47.508   5.497  15.436  0.00  0.00    +0.000 N 
ATOM     21  H   UNL     1      46.958   6.289  15.140  0.00  0.00    +0.000 HD
BRANCH  18  29
ATOM     22  C   UNL     1      48.448   7.107  19.434  0.00  0.00    +0.000 A 
ATOM     23  N   UNL     1      48.548   7.883  20.530  0.00  0.00    +0.000 NA
ATOM     24  C   UNL     1      48.925   9.152  20.361  0.00  0.00    +0.000 A 
ATOM     25  N   UNL     1      49.210   9.760  19.211  0.00  0.00    +0.000 NA
ATOM     26  C   UNL     1      49.112   8.946  18.147  0.00  0.00    +0.000 A 
ATOM     27  S   UNL     1      49.425   9.551  16.594  0.00  0.00    +0.000 S 
ATOM     28  C   UNL     1      49.128   8.031  15.889  0.00  0.00    +0.000 A 
ATOM     29  C   UNL     1      48.796   7.039  16.804  0.00  0.00    +0.000 A 
ATOM     30  C   UNL     1      48.758   7.599  18.153  0.00  0.00    +0.000 A 
BRANCH  22  32
ATOM     31  C   UNL     1      48.997   5.023  20.348  0.00  0.00    +0.000 C 
ATOM     32  O   UNL     1      48.062   5.796  19.602  0.00  0.00    +0.000 OA
ENDBRANCH  22  32
ENDBRANCH  18  29
ENDBRANCH   1  20
TORSDOF 8
ENDMDL
MODEL 6
REMARK VINA RESULT:    -7.171      2.079      3.861
REMARK INTER + INTRA:         -12.101
REMARK INTER:                 -10.779
REMARK INTRA:                  -1.322
REMARK UNBOUND:                -1.576
REMARK  Name = 
REMARK  9 active torsions:
REMARK  status: ('A' for Active; 'I' for Inactive)
REMARK    1  A    between atoms: C_1  and  O_2
REMARK    2  A    between atoms: O_2  and  C_3
REMARK    3  A    between atoms: C_10  and  C_11
REMARK    4  A    between atoms: N_13  and  C_14
REMARK    5  A    between atoms: C_14  and  C_15
REMARK    6  A    between atoms: C_18  and  C_19
REMARK    7  A    between atoms: C_19  and  N_20
REMARK    8  A    between atoms: N_20  and  C_21
REMARK    9  A    between atoms: C_21  and  C_22
REMARK                            x       y       z     vdW  Elec       q    Type
REMARK                         _______ _______ _______ _____ _____    ______ ____
ROOT
ATOM      1  C   UNL     1      47.267   4.547  15.001  0.00  0.00    +0.000 C 
ENDROOT
BRANCH   1   2
ATOM      2  C   UNL     1      46.422   4.533  13.748  0.00  0.00    +0.000 A 
ATOM      3  C   UNL     1      46.109   3.325  13.110  0.00  0.00    +0.000 A 
ATOM      4  C   UNL     1      45.237   3.300  12.012  0.00  0.00    +0.000 A 
ATOM      5  C   UNL     1      44.669   4.481  11.513  0.00  0.00    +0.000 A 
ATOM      6  C   UNL     1      45.048   5.695  12.102  0.00  0.00    +0.000 A 
ATOM      7  C   UNL     1      45.916   5.721  13.203  0.00  0.00    +0.000 A 
BRANCH   5   8
ATOM      8  C   UNL     1      43.675   4.438  10.369  0.00  0.00    +0.000 C 
BRANCH   8   9
ATOM      9  N   UNL     1      44.063   3.448   9.359  0.00  0.00    +0.000 NA
ATOM     10  H   UNL     1      43.220   3.046   8.950  0.00  0.00    +0.000 HD
BRANCH   9  11
ATOM     11  C   UNL     1      44.874   4.041   8.294  0.00  0.00    +0.000 C 
BRANCH  11  12
ATOM     12  C   UNL     1      45.910   3.063   7.788  0.00  0.00    +0.000 A 
ATOM     13  C   UNL     1      46.897   3.453   6.877  0.00  0.00    +0.000 A 
ATOM     14  C   UNL     1      47.828   2.514   6.457  0.00  0.00    +0.000 A 
ATOM     15  N   UNL     1      47.848   1.232   6.876  0.00  0.00    +0.000 NA
ATOM     16  C   UNL     1      46.890   0.872   7.756  0.00  0.00    +0.000 A 
ATOM     17  C   UNL     1      45.919   1.737   8.237  0.00  0.00    +0.000 A 
ENDBRANCH  11  12
ENDBRANCH   9  11
ENDBRANCH   8   9
ENDBRANCH   5   8
ENDBRANCH   1   2
BRANCH   1  20
ATOM     18  C   UNL     1      48.649   6.104  16.324  0.00  0.00    +0.000 C 
ATOM     19  O   UNL     1      49.087   5.191  17.020  0.00  0.00    +0.000 OA
ATOM     20  N   UNL     1      47.754   5.866  15.314  0.00  0.00    +0.000 N 
ATOM     21  H   UNL     1      47.407   6.630  14.754  0.00  0.00    +0.000 HD
BRANCH  18  29
ATOM     22  C   UNL     1      49.092   8.798  14.237  0.00  0.00    +0.000 A 
ATOM     23  N   UNL     1      49.266  10.002  13.660  0.00  0.00    +0.000 NA
ATOM     24  C   UNL     1      49.587  11.029  14.451  0.00  0.00    +0.000 A 
ATOM     25  N   UNL     1      49.771  11.003  15.769  0.00  0.00    +0.000 NA
ATOM     26  C   UNL     1      49.573   9.787  16.303  0.00  0.00    +0.000 A 
ATOM     27  S   UNL     1      49.776   9.558  17.972  0.00  0.00    +0.000 S 
ATOM     28  C   UNL     1      49.360   7.913  17.847  0.00  0.00    +0.000 A 
ATOM     29  C   UNL     1      49.053   7.505  16.554  0.00  0.00    +0.000 A 
ATOM     30  C   UNL     1      49.212   8.624  15.628  0.00  0.00    +0.000 A 
BRANCH  22  32
ATOM     31  C   UNL     1      49.444   7.739  12.179  0.00  0.00    +0.000 C 
ATOM     32  O   UNL     1      48.758   7.735  13.428  0.00  0.00    +0.000 OA
ENDBRANCH  22  32
ENDBRANCH  18  29
ENDBRANCH   1  20
TORSDOF 8
ENDMDL
MODEL 7
REMARK VINA RESULT:    -6.918      2.852      4.762
REMARK INTER + INTRA:         -11.729
REMARK INTER:                 -10.365
REMARK INTRA:                  -1.364
REMARK UNBOUND:                -1.576
REMARK  Name = 
REMARK  9 active torsions:
REMARK  status: ('A' for Active; 'I' for Inactive)
REMARK    1  A    between atoms: C_1  and  O_2
REMARK    2  A    between atoms: O_2  and  C_3
REMARK    3  A    between atoms: C_10  and  C_11
REMARK    4  A    between atoms: N_13  and  C_14
REMARK    5  A    between atoms: C_14  and  C_15
REMARK    6  A    between atoms: C_18  and  C_19
REMARK    7  A    between atoms: C_19  and  N_20
REMARK    8  A    between atoms: N_20  and  C_21
REMARK    9  A    between atoms: C_21  and  C_22
REMARK                            x       y       z     vdW  Elec       q    Type
REMARK                         _______ _______ _______ _____ _____    ______ ____
ROOT
ATOM      1  C   UNL     1      47.631   5.965  14.375  0.00  0.00    +0.000 C 
ENDROOT
BRANCH   1   2
ATOM      2  C   UNL     1      46.664   5.485  13.316  0.00  0.00    +0.000 A 
ATOM      3  C   UNL     1      46.250   4.147  13.281  0.00  0.00    +0.000 A 
ATOM      4  C   UNL     1      45.272   3.724  12.370  0.00  0.00    +0.000 A 
ATOM      5  C   UNL     1      44.695   4.622  11.461  0.00  0.00    +0.000 A 
ATOM      6  C   UNL     1      45.170   5.941  11.444  0.00  0.00    +0.000 A 
ATOM      7  C   UNL     1      46.145   6.366  12.358  0.00  0.00    +0.000 A 
BRANCH   5   8
ATOM      8  C   UNL     1      43.590   4.172  10.524  0.00  0.00    +0.000 C 
BRANCH   8   9
ATOM      9  N   UNL     1      44.077   3.182   9.558  0.00  0.00    +0.000 NA
ATOM     10  H   UNL     1      43.283   2.648   9.206  0.00  0.00    +0.000 HD
BRANCH   9  11
ATOM     11  C   UNL     1      44.768   3.810   8.431  0.00  0.00    +0.000 C 
BRANCH  11  12
ATOM     12  C   UNL     1      45.826   2.893   7.861  0.00  0.00    +0.000 A 
ATOM     13  C   UNL     1      45.930   1.558   8.266  0.00  0.00    +0.000 A 
ATOM     14  C   UNL     1      46.914   0.761   7.699  0.00  0.00    +0.000 A 
ATOM     15  N   UNL     1      47.789   1.192   6.766  0.00  0.00    +0.000 NA
ATOM     16  C   UNL     1      47.675   2.482   6.385  0.00  0.00    +0.000 A 
ATOM     17  C   UNL     1      46.723   3.355   6.890  0.00  0.00    +0.000 A 
ENDBRANCH  11  12
ENDBRANCH   9  11
ENDBRANCH   8   9
ENDBRANCH   5   8
ENDBRANCH   1   2
BRANCH   1  20
ATOM     18  C   UNL     1      49.529   7.529  14.569  0.00  0.00    +0.000 C 
ATOM     19  O   UNL     1      49.361   7.649  15.780  0.00  0.00    +0.000 OA
ATOM     20  N   UNL     1      48.721   6.721  13.813  0.00  0.00    +0.000 N 
ATOM     21  H   UNL     1      48.877   6.637  12.820  0.00  0.00    +0.000 HD
BRANCH  18  29
ATOM     22  C   UNL     1      49.568   9.527  11.773  0.00  0.00    +0.000 A 
ATOM     23  N   UNL     1      49.840  10.384  10.771  0.00  0.00    +0.000 NA
ATOM     24  C   UNL     1      51.097  10.818  10.649  0.00  0.00    +0.000 A 
ATOM     25  N   UNL     1      52.139  10.489  11.408  0.00  0.00    +0.000 NA
ATOM     26  C   UNL     1      51.820   9.644  12.402  0.00  0.00    +0.000 A 
ATOM     27  S   UNL     1      53.025   9.102  13.466  0.00  0.00    +0.000 S 
ATOM     28  C   UNL     1      51.901   8.179  14.348  0.00  0.00    +0.000 A 
ATOM     29  C   UNL     1      50.599   8.264  13.867  0.00  0.00    +0.000 A 
ATOM     30  C   UNL     1      50.561   9.119  12.684  0.00  0.00    +0.000 A 
BRANCH  22  32
ATOM     31  C   UNL     1      47.362  10.093  12.313  0.00  0.00    +0.000 C 
ATOM     32  O   UNL     1      48.274   9.077  11.907  0.00  0.00    +0.000 OA
ENDBRANCH  22  32
ENDBRANCH  18  29
ENDBRANCH   1  20
TORSDOF 8
ENDMDL
MODEL 8
REMARK VINA RESULT:    -6.686      4.534      9.106
REMARK INTER + INTRA:         -11.389
REMARK INTER:                 -10.350
REMARK INTRA:                  -1.038
REMARK UNBOUND:                -1.576
REMARK  Name = 
REMARK  9 active torsions:
REMARK  status: ('A' for Active; 'I' for Inactive)
REMARK    1  A    between atoms: C_1  and  O_2
REMARK    2  A    between atoms: O_2  and  C_3
REMARK    3  A    between atoms: C_10  and  C_11
REMARK    4  A    between atoms: N_13  and  C_14
REMARK    5  A    between atoms: C_14  and  C_15
REMARK    6  A    between atoms: C_18  and  C_19
REMARK    7  A    between atoms: C_19  and  N_20
REMARK    8  A    between atoms: N_20  and  C_21
REMARK    9  A    between atoms: C_21  and  C_22
REMARK                            x       y       z     vdW  Elec       q    Type
REMARK                         _______ _______ _______ _____ _____    ______ ____
ROOT
ATOM      1  C   UNL     1      47.236   3.360  16.752  0.00  0.00    +0.000 C 
ENDROOT
BRANCH   1   2
ATOM      2  C   UNL     1      48.722   3.378  17.028  0.00  0.00    +0.000 A 
ATOM      3  C   UNL     1      49.366   4.567  17.399  0.00  0.00    +0.000 A 
ATOM      4  C   UNL     1      50.721   4.564  17.760  0.00  0.00    +0.000 A 
ATOM      5  C   UNL     1      51.470   3.380  17.745  0.00  0.00    +0.000 A 
ATOM      6  C   UNL     1      50.845   2.208  17.296  0.00  0.00    +0.000 A 
ATOM      7  C   UNL     1      49.489   2.208  16.938  0.00  0.00    +0.000 A 
BRANCH   5   8
ATOM      8  C   UNL     1      52.916   3.374  18.202  0.00  0.00    +0.000 C 
BRANCH   8   9
ATOM      9  N   UNL     1      53.210   2.205  19.037  0.00  0.00    +0.000 NA
ATOM     10  H   UNL     1      52.630   1.426  18.729  0.00  0.00    +0.000 HD
BRANCH   9  11
ATOM     11  C   UNL     1      54.618   1.814  18.954  0.00  0.00    +0.000 C 
BRANCH  11  12
ATOM     12  C   UNL     1      54.799   0.616  18.050  0.00  0.00    +0.000 A 
ATOM     13  C   UNL     1      55.189   0.763  16.714  0.00  0.00    +0.000 A 
ATOM     14  C   UNL     1      55.350  -0.374  15.935  0.00  0.00    +0.000 A 
ATOM     15  N   UNL     1      55.157  -1.631  16.386  0.00  0.00    +0.000 NA
ATOM     16  C   UNL     1      54.784  -1.756  17.677  0.00  0.00    +0.000 A 
ATOM     17  C   UNL     1      54.600  -0.682  18.535  0.00  0.00    +0.000 A 
ENDBRANCH  11  12
ENDBRANCH   9  11
ENDBRANCH   8   9
ENDBRANCH   5   8
ENDBRANCH   1   2
BRANCH   1  20
ATOM     18  C   UNL     1      46.847   4.161  14.451  0.00  0.00    +0.000 C 
ATOM     19  O   UNL     1      47.183   3.080  13.973  0.00  0.00    +0.000 OA
ATOM     20  N   UNL     1      46.847   4.373  15.805  0.00  0.00    +0.000 N 
ATOM     21  H   UNL     1      46.567   5.269  16.176  0.00  0.00    +0.000 HD
BRANCH  18  29
ATOM     22  C   UNL     1      44.008   4.839  12.639  0.00  0.00    +0.000 A 
ATOM     23  N   UNL     1      43.003   5.366  11.915  0.00  0.00    +0.000 NA
ATOM     24  C   UNL     1      43.194   6.571  11.372  0.00  0.00    +0.000 A 
ATOM     25  N   UNL     1      44.287   7.325  11.452  0.00  0.00    +0.000 NA
ATOM     26  C   UNL     1      45.257   6.768  12.195  0.00  0.00    +0.000 A 
ATOM     27  S   UNL     1      46.732   7.580  12.400  0.00  0.00    +0.000 S 
ATOM     28  C   UNL     1      47.338   6.334  13.386  0.00  0.00    +0.000 A 
ATOM     29  C   UNL     1      46.445   5.288  13.588  0.00  0.00    +0.000 A 
ATOM     30  C   UNL     1      45.211   5.539  12.848  0.00  0.00    +0.000 A 
BRANCH  22  32
ATOM     31  C   UNL     1      43.585   2.571  12.245  0.00  0.00    +0.000 C 
ATOM     32  O   UNL     1      43.817   3.598  13.204  0.00  0.00    +0.000 OA
ENDBRANCH  22  32
ENDBRANCH  18  29
ENDBRANCH   1  20
TORSDOF 8
ENDMDL
MODEL 9
REMARK VINA RESULT:    -6.483      3.466      4.952
REMARK INTER + INTRA:         -11.090
REMARK INTER:                  -9.985
REMARK INTRA:                  -1.105
REMARK UNBOUND:                -1.576
REMARK  Name = 
REMARK  9 active torsions:
REMARK  status: ('A' for Active; 'I' for Inactive)
REMARK    1  A    between atoms: C_1  and  O_2
REMARK    2  A    between atoms: O_2  and  C_3
REMARK    3  A    between atoms: C_10  and  C_11
REMARK    4  A    between atoms: N_13  and  C_14
REMARK    5  A    between atoms: C_14  and  C_15
REMARK    6  A    between atoms: C_18  and  C_19
REMARK    7  A    between atoms: C_19  and  N_20
REMARK    8  A    between atoms: N_20  and  C_21
REMARK    9  A    between atoms: C_21  and  C_22
REMARK                            x       y       z     vdW  Elec       q    Type
REMARK                         _______ _______ _______ _____ _____    ______ ____
ROOT
ATOM      1  C   UNL     1      47.836   6.935  14.012  0.00  0.00    +0.000 C 
ENDROOT
BRANCH   1   2
ATOM      2  C   UNL     1      46.884   6.257  13.054  0.00  0.00    +0.000 A 
ATOM      3  C   UNL     1      46.358   4.991  13.346  0.00  0.00    +0.000 A 
ATOM      4  C   UNL     1      45.393   4.407  12.513  0.00  0.00    +0.000 A 
ATOM      5  C   UNL     1      44.938   5.066  11.362  0.00  0.00    +0.000 A 
ATOM      6  C   UNL     1      45.525   6.295  11.029  0.00  0.00    +0.000 A 
ATOM      7  C   UNL     1      46.488   6.881  11.863  0.00  0.00    +0.000 A 
BRANCH   5   8
ATOM      8  C   UNL     1      43.845   4.458  10.504  0.00  0.00    +0.000 C 
BRANCH   8   9
ATOM      9  N   UNL     1      44.356   3.353   9.688  0.00  0.00    +0.000 NA
ATOM     10  H   UNL     1      43.618   2.659   9.574  0.00  0.00    +0.000 HD
BRANCH   9  11
ATOM     11  C   UNL     1      44.794   3.804   8.367  0.00  0.00    +0.000 C 
BRANCH  11  12
ATOM     12  C   UNL     1      45.870   2.899   7.810  0.00  0.00    +0.000 A 
ATOM     13  C   UNL     1      45.966   1.557   8.197  0.00  0.00    +0.000 A 
ATOM     14  C   UNL     1      46.968   0.772   7.644  0.00  0.00    +0.000 A 
ATOM     15  N   UNL     1      47.866   1.220   6.742  0.00  0.00    +0.000 NA
ATOM     16  C   UNL     1      47.758   2.515   6.378  0.00  0.00    +0.000 A 
ATOM     17  C   UNL     1      46.791   3.378   6.872  0.00  0.00    +0.000 A 
ENDBRANCH  11  12
ENDBRANCH   9  11
ENDBRANCH   8   9
ENDBRANCH   5   8
ENDBRANCH   1   2
BRANCH   1  20
ATOM     18  C   UNL     1      49.325   8.688  13.119  0.00  0.00    +0.000 C 
ATOM     19  O   UNL     1      48.547   9.579  13.454  0.00  0.00    +0.000 OA
ATOM     20  N   UNL     1      49.046   7.369  13.360  0.00  0.00    +0.000 N 
ATOM     21  H   UNL     1      49.698   6.654  13.076  0.00  0.00    +0.000 HD
BRANCH  18  29
ATOM     22  C   UNL     1      52.627   8.129  13.887  0.00  0.00    +0.000 A 
ATOM     23  N   UNL     1      53.964   7.975  13.917  0.00  0.00    +0.000 NA
ATOM     24  C   UNL     1      54.665   8.431  12.876  0.00  0.00    +0.000 A 
ATOM     25  N   UNL     1      54.191   9.044  11.794  0.00  0.00    +0.000 NA
ATOM     26  C   UNL     1      52.853   9.163  11.800  0.00  0.00    +0.000 A 
ATOM     27  S   UNL     1      52.071   9.931  10.505  0.00  0.00    +0.000 S 
ATOM     28  C   UNL     1      50.544   9.671  11.210  0.00  0.00    +0.000 A 
ATOM     29  C   UNL     1      50.590   8.997  12.425  0.00  0.00    +0.000 A 
ATOM     30  C   UNL     1      51.978   8.722  12.789  0.00  0.00    +0.000 A 
BRANCH  22  32
ATOM     31  C   UNL     1      52.707   7.233  16.048  0.00  0.00    +0.000 C 
ATOM     32  O   UNL     1      51.898   7.659  14.957  0.00  0.00    +0.000 OA
ENDBRANCH  22  32
ENDBRANCH  18  29
ENDBRANCH   1  20
TORSDOF 8
ENDMDL
