MODEL 1
REMARK VINA RESULT:    -8.469      0.000      0.000
REMARK INTER + INTRA:         -13.294
REMARK INTER:                 -11.935
REMARK INTRA:                  -1.359
REMARK UNBOUND:                -1.359
REMARK  Name = 
REMARK  8 active torsions:
REMARK  status: ('A' for Active; 'I' for Inactive)
REMARK    1  A    between atoms: C_1  and  C_2
REMARK    2  A    between atoms: C_2  and  N_3
REMARK    3  A    between atoms: C_2  and  C_25
REMARK    4  A    between atoms: N_3  and  C_4
REMARK    5  A    between atoms: C_4  and  C_5
REMARK    6  A    between atoms: C_8  and  C_9
REMARK    7  A    between atoms: C_9  and  N_10
REMARK    8  A    between atoms: C_11  and  C_13
REMARK                            x       y       z     vdW  Elec       q    Type
REMARK                         _______ _______ _______ _____ _____    ______ ____
ROOT
ATOM      1  C   UNL     1      44.583   5.685  11.042  0.00  0.00    +0.000 A 
ATOM      2  C   UNL     1      45.893   5.853  10.596  0.00  0.00    +0.000 A 
ATOM      3  C   UNL     1      46.768   6.639  11.341  0.00  0.00    +0.000 A 
ATOM      4  C   UNL     1      46.319   7.262  12.506  0.00  0.00    +0.000 A 
ATOM      5  C   UNL     1      44.997   7.041  12.876  0.00  0.00    +0.000 A 
ATOM      6  N   UNL     1      44.125   6.273  12.178  0.00  0.00    +0.000 NA
ENDROOT
BRANCH   1   7
ATOM      7  C   UNL     1      43.619   4.801  10.266  0.00  0.00    +0.000 C 
BRANCH   7   8
ATOM      8  N   UNL     1      44.181   4.396   8.975  0.00  0.00    +0.000 NA
ATOM      9  H   UNL     1      43.505   4.687   8.264  0.00  0.00    +0.000 HD
BRANCH   8  11
ATOM     10  C   UNL     1      44.443   2.228  10.204  0.00  0.00    +0.000 C 
ATOM     11  C   UNL     1      44.385   2.937   8.845  0.00  0.00    +0.000 C 
BRANCH  11  12
ATOM     12  C   UNL     1      45.668   2.615   8.069  0.00  0.00    +0.000 A 
ATOM     13  C   UNL     1      46.321   3.598   7.320  0.00  0.00    +0.000 A 
ATOM     14  C   UNL     1      47.459   3.259   6.595  0.00  0.00    +0.000 A 
ATOM     15  C   UNL     1      47.937   1.957   6.652  0.00  0.00    +0.000 A 
ATOM     16  C   UNL     1      47.256   1.046   7.443  0.00  0.00    +0.000 A 
ATOM     17  N   UNL     1      46.138   1.342   8.147  0.00  0.00    +0.000 NA
ENDBRANCH  11  12
ENDBRANCH   8  11
ENDBRANCH   7   8
ENDBRANCH   1   7
BRANCH   4  18
ATOM     18  C   UNL     1      47.243   8.080  13.360  0.00  0.00    +0.000 C 
BRANCH  18  19
ATOM     19  N   UNL     1      47.595   7.365  14.563  0.00  0.00    +0.000 N 
ATOM     20  C   UNL     1      48.852   6.850  14.749  0.00  0.00    +0.000 C 
ATOM     21  O   UNL     1      49.746   7.010  13.923  0.00  0.00    +0.000 OA
ATOM     22  H   UNL     1      46.831   7.024  15.136  0.00  0.00    +0.000 HD
BRANCH  20  23
ATOM     23  C   UNL     1      49.093   6.149  16.018  0.00  0.00    +0.000 A 
ATOM     24  C   UNL     1      50.114   6.579  16.855  0.00  0.00    +0.000 A 
ATOM     25  S   UNL     1      50.222   5.699  18.311  0.00  0.00    +0.000 S 
ATOM     26  C   UNL     1      48.940   4.677  17.854  0.00  0.00    +0.000 A 
ATOM     27  N   UNL     1      48.527   3.666  18.664  0.00  0.00    +0.000 NA
ATOM     28  C   UNL     1      47.564   2.954  18.182  0.00  0.00    +0.000 A 
ATOM     29  N   UNL     1      46.973   3.165  16.964  0.00  0.00    +0.000 N 
ATOM     30  C   UNL     1      47.341   4.186  16.121  0.00  0.00    +0.000 A 
ATOM     31  O   UNL     1      46.769   4.367  15.052  0.00  0.00    +0.000 OA
ATOM     32  C   UNL     1      48.428   5.013  16.613  0.00  0.00    +0.000 A 
ATOM     33  H   UNL     1      46.217   2.575  16.648  0.00  0.00    +0.000 HD
ENDBRANCH  20  23
ENDBRANCH  18  19
ENDBRANCH   4  18
TORSDOF 7
ENDMDL
MODEL 2
REMARK VINA RESULT:    -7.721      1.740      2.129
REMARK INTER + INTRA:         -12.240
REMARK INTER:                 -11.407
REMARK INTRA:                  -0.832
REMARK UNBOUND:                -1.359
REMARK  Name = 
REMARK  8 active torsions:
REMARK  status: ('A' for Active; 'I' for Inactive)
REMARK    1  A    between atoms: C_1  and  C_2
REMARK    2  A    between atoms: C_2  and  N_3
REMARK    3  A    between atoms: C_2  and  C_25
REMARK    4  A    between atoms: N_3  and  C_4
REMARK    5  A    between atoms: C_4  and  C_5
REMARK    6  A    between atoms: C_8  and  C_9
REMARK    7  A    between atoms: C_9  and  N_10
REMARK    8  A    between atoms: C_11  and  C_13
REMARK                            x       y       z     vdW  Elec       q    Type
REMARK                         _______ _______ _______ _____ _____    ______ ____
ROOT
ATOM      1  C   UNL     1      44.980   5.580  11.632  0.00  0.00    +0.000 A 
ATOM      2  C   UNL     1      45.930   6.364  10.978  0.00  0.00    +0.000 A 
ATOM      3  C   UNL     1      47.085   6.737  11.660  0.00  0.00    +0.000 A 
ATOM      4  C   UNL     1      47.267   6.343  12.986  0.00  0.00    +0.000 A 
ATOM      5  C   UNL     1      46.268   5.564  13.559  0.00  0.00    +0.000 A 
ATOM      6  N   UNL     1      45.137   5.175  12.919  0.00  0.00    +0.000 NA
ENDROOT
BRANCH   1   7
ATOM      7  C   UNL     1      43.727   5.128  10.898  0.00  0.00    +0.000 C 
BRANCH   7   8
ATOM      8  N   UNL     1      44.019   4.764   9.509  0.00  0.00    +0.000 NA
ATOM      9  H   UNL     1      43.240   5.124   8.949  0.00  0.00    +0.000 HD
BRANCH   8  11
ATOM     10  C   UNL     1      44.193   2.511  10.590  0.00  0.00    +0.000 C 
ATOM     11  C   UNL     1      44.112   3.307   9.281  0.00  0.00    +0.000 C 
BRANCH  11  12
ATOM     12  C   UNL     1      45.326   2.949   8.415  0.00  0.00    +0.000 A 
ATOM     13  C   UNL     1      45.833   1.646   8.392  0.00  0.00    +0.000 A 
ATOM     14  C   UNL     1      46.962   1.367   7.628  0.00  0.00    +0.000 A 
ATOM     15  C   UNL     1      47.545   2.383   6.883  0.00  0.00    +0.000 A 
ATOM     16  C   UNL     1      46.966   3.641   6.930  0.00  0.00    +0.000 A 
ATOM     17  N   UNL     1      45.878   3.946   7.675  0.00  0.00    +0.000 NA
ENDBRANCH  11  12
ENDBRANCH   8  11
ENDBRANCH   7   8
ENDBRANCH   1   7
BRANCH   4  18
ATOM     18  C   UNL     1      48.518   6.687  13.739  0.00  0.00    +0.000 C 
BRANCH  18  19
ATOM     19  N   UNL     1      48.254   6.780  15.154  0.00  0.00    +0.000 N 
ATOM     20  C   UNL     1      49.263   6.700  16.078  0.00  0.00    +0.000 C 
ATOM     21  O   UNL     1      50.440   6.589  15.744  0.00  0.00    +0.000 OA
ATOM     22  H   UNL     1      47.296   6.636  15.454  0.00  0.00    +0.000 HD
BRANCH  20  23
ATOM     23  C   UNL     1      48.872   6.815  17.490  0.00  0.00    +0.000 A 
ATOM     24  C   UNL     1      48.453   8.043  17.986  0.00  0.00    +0.000 A 
ATOM     25  S   UNL     1      47.979   7.994  19.623  0.00  0.00    +0.000 S 
ATOM     26  C   UNL     1      48.364   6.340  19.742  0.00  0.00    +0.000 A 
ATOM     27  N   UNL     1      48.206   5.667  20.914  0.00  0.00    +0.000 NA
ATOM     28  C   UNL     1      48.560   4.427  20.869  0.00  0.00    +0.000 A 
ATOM     29  N   UNL     1      49.055   3.797  19.758  0.00  0.00    +0.000 N 
ATOM     30  C   UNL     1      49.212   4.429  18.548  0.00  0.00    +0.000 A 
ATOM     31  O   UNL     1      49.626   3.826  17.564  0.00  0.00    +0.000 OA
ATOM     32  C   UNL     1      48.834   5.831  18.545  0.00  0.00    +0.000 A 
ATOM     33  H   UNL     1      49.307   2.819  19.788  0.00  0.00    +0.000 HD
ENDBRANCH  20  23
ENDBRANCH  18  19
ENDBRANCH   4  18
TORSDOF 7
ENDMDL
MODEL 3
REMARK VINA RESULT:    -7.717      2.833      3.602
REMARK INTER + INTRA:         -12.234
REMARK INTER:                 -11.171
REMARK INTRA:                  -1.063
REMARK UNBOUND:                -1.359
REMARK  Name = 
REMARK  8 active torsions:
REMARK  status: ('A' for Active; 'I' for Inactive)
REMARK    1  A    between atoms: C_1  and  C_2
REMARK    2  A    between atoms: C_2  and  N_3
REMARK    3  A    between atoms: C_2  and  C_25
REMARK    4  A    between atoms: N_3  and  C_4
REMARK    5  A    between atoms: C_4  and  C_5
REMARK    6  A    between atoms: C_8  and  C_9
REMARK    7  A    between atoms: C_9  and  N_10
REMARK    8  A    between atoms: C_11  and  C_13
REMARK                            x       y       z     vdW  Elec       q    Type
REMARK                         _______ _______ _______ _____ _____    ______ ____
ROOT
ATOM      1  C   UNL     1      46.566   4.707  13.501  0.00  0.00    +0.000 A 
ATOM      2  C   UNL     1      47.180   5.890  13.093  0.00  0.00    +0.000 A 
ATOM      3  C   UNL     1      47.999   6.572  13.989  0.00  0.00    +0.000 A 
ATOM      4  C   UNL     1      48.176   6.078  15.281  0.00  0.00    +0.000 A 
ATOM      5  C   UNL     1      47.524   4.893  15.603  0.00  0.00    +0.000 A 
ATOM      6  N   UNL     1      46.729   4.199  14.751  0.00  0.00    +0.000 NA
ENDROOT
BRANCH   1   7
ATOM      7  C   UNL     1      45.696   3.923  12.529  0.00  0.00    +0.000 C 
BRANCH   7   8
ATOM      8  N   UNL     1      45.218   4.769  11.433  0.00  0.00    +0.000 NA
ATOM      9  H   UNL     1      44.653   5.506  11.865  0.00  0.00    +0.000 HD
BRANCH   8  11
ATOM     10  C   UNL     1      43.595   2.892  11.088  0.00  0.00    +0.000 C 
ATOM     11  C   UNL     1      44.370   4.055  10.455  0.00  0.00    +0.000 C 
BRANCH  11  12
ATOM     12  C   UNL     1      45.195   3.513   9.282  0.00  0.00    +0.000 A 
ATOM     13  C   UNL     1      45.389   2.139   9.116  0.00  0.00    +0.000 A 
ATOM     14  C   UNL     1      46.180   1.684   8.065  0.00  0.00    +0.000 A 
ATOM     15  C   UNL     1      46.738   2.605   7.188  0.00  0.00    +0.000 A 
ATOM     16  C   UNL     1      46.474   3.948   7.398  0.00  0.00    +0.000 A 
ATOM     17  N   UNL     1      45.722   4.422   8.419  0.00  0.00    +0.000 NA
ENDBRANCH  11  12
ENDBRANCH   8  11
ENDBRANCH   7   8
ENDBRANCH   1   7
BRANCH   4  18
ATOM     18  C   UNL     1      49.085   6.761  16.261  0.00  0.00    +0.000 C 
BRANCH  18  19
ATOM     19  N   UNL     1      50.141   5.873  16.682  0.00  0.00    +0.000 N 
ATOM     20  C   UNL     1      50.298   5.518  17.997  0.00  0.00    +0.000 C 
ATOM     21  O   UNL     1      49.523   5.904  18.868  0.00  0.00    +0.000 OA
ATOM     22  H   UNL     1      50.914   5.737  16.038  0.00  0.00    +0.000 HD
BRANCH  20  23
ATOM     23  C   UNL     1      51.405   4.602  18.303  0.00  0.00    +0.000 A 
ATOM     24  C   UNL     1      52.504   5.068  19.013  0.00  0.00    +0.000 A 
ATOM     25  S   UNL     1      53.670   3.867  19.337  0.00  0.00    +0.000 S 
ATOM     26  C   UNL     1      52.773   2.692  18.495  0.00  0.00    +0.000 A 
ATOM     27  N   UNL     1      53.231   1.416  18.373  0.00  0.00    +0.000 NA
ATOM     28  C   UNL     1      52.463   0.637  17.688  0.00  0.00    +0.000 A 
ATOM     29  N   UNL     1      51.276   1.015  17.117  0.00  0.00    +0.000 N 
ATOM     30  C   UNL     1      50.764   2.285  17.231  0.00  0.00    +0.000 A 
ATOM     31  O   UNL     1      49.683   2.581  16.735  0.00  0.00    +0.000 OA
ATOM     32  C   UNL     1      51.593   3.206  17.987  0.00  0.00    +0.000 A 
ATOM     33  H   UNL     1      50.718   0.352  16.598  0.00  0.00    +0.000 HD
ENDBRANCH  20  23
ENDBRANCH  18  19
ENDBRANCH   4  18
TORSDOF 7
ENDMDL
MODEL 4
REMARK VINA RESULT:    -7.545      1.963      2.313
REMARK INTER + INTRA:         -11.991
REMARK INTER:                 -10.903
REMARK INTRA:                  -1.088
REMARK UNBOUND:                -1.359
REMARK  Name = 
REMARK  8 active torsions:
REMARK  status: ('A' for Active; 'I' for Inactive)
REMARK    1  A    between atoms: C_1  and  C_2
REMARK    2  A    between atoms: C_2  and  N_3
REMARK    3  A    between atoms: C_2  and  C_25
REMARK    4  A    between atoms: N_3  and  C_4
REMARK    5  A    between atoms: C_4  and  C_5
REMARK    6  A    between atoms: C_8  and  C_9
REMARK    7  A    between atoms: C_9  and  N_10
REMARK    8  A    between atoms: C_11  and  C_13
REMARK                            x       y       z     vdW  Elec       q    Type
REMARK                         _______ _______ _______ _____ _____    ______ ____
ROOT
ATOM      1  C   UNL     1      45.052   5.985  11.427  0.00  0.00    +0.000 A 
ATOM      2  C   UNL     1      46.115   5.247  11.947  0.00  0.00    +0.000 A 
ATOM      3  C   UNL     1      47.050   5.886  12.758  0.00  0.00    +0.000 A 
ATOM      4  C   UNL     1      46.924   7.251  13.020  0.00  0.00    +0.000 A 
ATOM      5  C   UNL     1      45.835   7.908  12.458  0.00  0.00    +0.000 A 
ATOM      6  N   UNL     1      44.902   7.312  11.674  0.00  0.00    +0.000 NA
ENDROOT
BRANCH   1   7
ATOM      7  C   UNL     1      43.997   5.303  10.569  0.00  0.00    +0.000 C 
BRANCH   7   8
ATOM      8  N   UNL     1      44.562   4.815   9.308  0.00  0.00    +0.000 NA
ATOM      9  H   UNL     1      44.070   5.313   8.561  0.00  0.00    +0.000 HD
BRANCH   8  11
ATOM     10  C   UNL     1      44.215   2.591  10.408  0.00  0.00    +0.000 C 
ATOM     11  C   UNL     1      44.376   3.364   9.093  0.00  0.00    +0.000 C 
BRANCH  11  12
ATOM     12  C   UNL     1      45.544   2.756   8.308  0.00  0.00    +0.000 A 
ATOM     13  C   UNL     1      46.322   3.543   7.454  0.00  0.00    +0.000 A 
ATOM     14  C   UNL     1      47.347   2.948   6.724  0.00  0.00    +0.000 A 
ATOM     15  C   UNL     1      47.593   1.591   6.881  0.00  0.00    +0.000 A 
ATOM     16  C   UNL     1      46.802   0.884   7.772  0.00  0.00    +0.000 A 
ATOM     17  N   UNL     1      45.788   1.430   8.483  0.00  0.00    +0.000 NA
ENDBRANCH  11  12
ENDBRANCH   8  11
ENDBRANCH   7   8
ENDBRANCH   1   7
BRANCH   4  18
ATOM     18  C   UNL     1      47.886   7.964  13.924  0.00  0.00    +0.000 C 
BRANCH  18  19
ATOM     19  N   UNL     1      47.877   7.379  15.243  0.00  0.00    +0.000 N 
ATOM     20  C   UNL     1      48.981   6.748  15.755  0.00  0.00    +0.000 C 
ATOM     21  O   UNL     1      50.039   6.690  15.134  0.00  0.00    +0.000 OA
ATOM     22  H   UNL     1      46.970   7.209  15.666  0.00  0.00    +0.000 HD
BRANCH  20  23
ATOM     23  C   UNL     1      48.853   6.198  17.111  0.00  0.00    +0.000 A 
ATOM     24  C   UNL     1      49.223   4.882  17.354  0.00  0.00    +0.000 A 
ATOM     25  S   UNL     1      49.071   4.418  18.988  0.00  0.00    +0.000 S 
ATOM     26  C   UNL     1      48.458   5.945  19.422  0.00  0.00    +0.000 A 
ATOM     27  N   UNL     1      48.098   6.216  20.706  0.00  0.00    +0.000 NA
ATOM     28  C   UNL     1      47.625   7.404  20.888  0.00  0.00    +0.000 A 
ATOM     29  N   UNL     1      47.483   8.346  19.904  0.00  0.00    +0.000 N 
ATOM     30  C   UNL     1      47.852   8.126  18.599  0.00  0.00    +0.000 A 
ATOM     31  O   UNL     1      47.742   9.003  17.750  0.00  0.00    +0.000 OA
ATOM     32  C   UNL     1      48.384   6.800  18.337  0.00  0.00    +0.000 A 
ATOM     33  H   UNL     1      47.112   9.262  20.116  0.00  0.00    +0.000 HD
ENDBRANCH  20  23
ENDBRANCH  18  19
ENDBRANCH   4  18
TORSDOF 7
ENDMDL
MODEL 5
REMARK VINA RESULT:    -7.006      2.908      8.301
REMARK INTER + INTRA:         -11.232
REMARK INTER:                  -9.957
REMARK INTRA:                  -1.275
REMARK UNBOUND:                -1.359
REMARK  Name = 
REMARK  8 active torsions:
REMARK  status: ('A' for Active; 'I' for Inactive)
REMARK    1  A    between atoms: C_1  and  C_2
REMARK    2  A    between atoms: C_2  and  N_3
REMARK    3  A    between atoms: C_2  and  C_25
REMARK    4  A    between atoms: N_3  and  C_4
REMARK    5  A    between atoms: C_4  and  C_5
REMARK    6  A    between atoms: C_8  and  C_9
REMARK    7  A    between atoms: C_9  and  N_10
REMARK    8  A    between atoms: C_11  and  C_13
REMARK                            x       y       z     vdW  Elec       q    Type
REMARK                         _______ _______ _______ _____ _____    ______ ____
ROOT
ATOM      1  C   UNL     1      49.641   7.789  15.234  0.00  0.00    +0.000 A 
ATOM      2  C   UNL     1      48.635   8.749  15.328  0.00  0.00    +0.000 A 
ATOM      3  C   UNL     1      47.694   8.848  14.306  0.00  0.00    +0.000 A 
ATOM      4  C   UNL     1      47.782   8.004  13.198  0.00  0.00    +0.000 A 
ATOM      5  C   UNL     1      48.819   7.077  13.186  0.00  0.00    +0.000 A 
ATOM      6  N   UNL     1      49.743   6.949  14.171  0.00  0.00    +0.000 NA
ENDROOT
BRANCH   1   7
ATOM      7  C   UNL     1      50.658   7.636  16.354  0.00  0.00    +0.000 C 
BRANCH   7   8
ATOM      8  N   UNL     1      51.228   6.286  16.383  0.00  0.00    +0.000 NA
ATOM      9  H   UNL     1      50.826   5.789  15.583  0.00  0.00    +0.000 HD
BRANCH   8  11
ATOM     10  C   UNL     1      52.038   4.591  18.040  0.00  0.00    +0.000 C 
ATOM     11  C   UNL     1      50.901   5.526  17.608  0.00  0.00    +0.000 C 
BRANCH  11  12
ATOM     12  C   UNL     1      49.624   4.695  17.431  0.00  0.00    +0.000 A 
ATOM     13  C   UNL     1      48.366   5.250  17.679  0.00  0.00    +0.000 A 
ATOM     14  C   UNL     1      47.232   4.454  17.551  0.00  0.00    +0.000 A 
ATOM     15  C   UNL     1      47.373   3.132  17.152  0.00  0.00    +0.000 A 
ATOM     16  C   UNL     1      48.650   2.662  16.892  0.00  0.00    +0.000 A 
ATOM     17  N   UNL     1      49.773   3.407  17.023  0.00  0.00    +0.000 NA
ENDBRANCH  11  12
ENDBRANCH   8  11
ENDBRANCH   7   8
ENDBRANCH   1   7
BRANCH   4  18
ATOM     18  C   UNL     1      46.762   8.049  12.099  0.00  0.00    +0.000 C 
BRANCH  18  19
ATOM     19  N   UNL     1      46.281   6.724  11.792  0.00  0.00    +0.000 N 
ATOM     20  C   UNL     1      44.953   6.481  11.555  0.00  0.00    +0.000 C 
ATOM     21  O   UNL     1      44.120   7.384  11.548  0.00  0.00    +0.000 OA
ATOM     22  H   UNL     1      46.892   5.948  12.021  0.00  0.00    +0.000 HD
BRANCH  20  23
ATOM     23  C   UNL     1      44.585   5.092  11.246  0.00  0.00    +0.000 A 
ATOM     24  C   UNL     1      43.808   4.374  12.145  0.00  0.00    +0.000 A 
ATOM     25  S   UNL     1      43.420   2.802  11.611  0.00  0.00    +0.000 S 
ATOM     26  C   UNL     1      44.318   3.006  10.180  0.00  0.00    +0.000 A 
ATOM     27  N   UNL     1      44.416   2.004   9.266  0.00  0.00    +0.000 NA
ATOM     28  C   UNL     1      45.149   2.286   8.241  0.00  0.00    +0.000 A 
ATOM     29  N   UNL     1      45.788   3.482   8.045  0.00  0.00    +0.000 N 
ATOM     30  C   UNL     1      45.701   4.530   8.929  0.00  0.00    +0.000 A 
ATOM     31  O   UNL     1      46.259   5.598   8.707  0.00  0.00    +0.000 OA
ATOM     32  C   UNL     1      44.894   4.262  10.106  0.00  0.00    +0.000 A 
ATOM     33  H   UNL     1      46.342   3.641   7.215  0.00  0.00    +0.000 HD
ENDBRANCH  20  23
ENDBRANCH  18  19
ENDBRANCH   4  18
TORSDOF 7
ENDMDL
MODEL 6
REMARK VINA RESULT:    -6.780      3.417      5.923
REMARK INTER + INTRA:         -10.914
REMARK INTER:                  -9.872
REMARK INTRA:                  -1.042
REMARK UNBOUND:                -1.359
REMARK  Name = 
REMARK  8 active torsions:
REMARK  status: ('A' for Active; 'I' for Inactive)
REMARK    1  A    between atoms: C_1  and  C_2
REMARK    2  A    between atoms: C_2  and  N_3
REMARK    3  A    between atoms: C_2  and  C_25
REMARK    4  A    between atoms: N_3  and  C_4
REMARK    5  A    between atoms: C_4  and  C_5
REMARK    6  A    between atoms: C_8  and  C_9
REMARK    7  A    between atoms: C_9  and  N_10
REMARK    8  A    between atoms: C_11  and  C_13
REMARK                            x       y       z     vdW  Elec       q    Type
REMARK                         _______ _______ _______ _____ _____    ______ ____
ROOT
ATOM      1  C   UNL     1      47.785   5.894  14.566  0.00  0.00    +0.000 A 
ATOM      2  C   UNL     1      47.090   4.686  14.560  0.00  0.00    +0.000 A 
ATOM      3  C   UNL     1      47.256   3.804  15.625  0.00  0.00    +0.000 A 
ATOM      4  C   UNL     1      48.124   4.130  16.667  0.00  0.00    +0.000 A 
ATOM      5  C   UNL     1      48.777   5.355  16.591  0.00  0.00    +0.000 A 
ATOM      6  N   UNL     1      48.629   6.240  15.573  0.00  0.00    +0.000 NA
ENDROOT
BRANCH   1   7
ATOM      7  C   UNL     1      47.593   6.891  13.433  0.00  0.00    +0.000 C 
BRANCH   7   8
ATOM      8  N   UNL     1      46.191   7.295  13.303  0.00  0.00    +0.000 NA
ATOM      9  H   UNL     1      45.666   6.725  13.973  0.00  0.00    +0.000 HD
BRANCH   8  11
ATOM     10  C   UNL     1      44.729   8.216  11.488  0.00  0.00    +0.000 C 
ATOM     11  C   UNL     1      45.625   7.061  11.958  0.00  0.00    +0.000 C 
BRANCH  11  12
ATOM     12  C   UNL     1      44.814   5.761  11.906  0.00  0.00    +0.000 A 
ATOM     13  C   UNL     1      44.861   4.930  10.783  0.00  0.00    +0.000 A 
ATOM     14  C   UNL     1      44.078   3.779  10.753  0.00  0.00    +0.000 A 
ATOM     15  C   UNL     1      43.287   3.468  11.851  0.00  0.00    +0.000 A 
ATOM     16  C   UNL     1      43.318   4.323  12.940  0.00  0.00    +0.000 A 
ATOM     17  N   UNL     1      44.057   5.456  12.993  0.00  0.00    +0.000 NA
ENDBRANCH  11  12
ENDBRANCH   8  11
ENDBRANCH   7   8
ENDBRANCH   1   7
BRANCH   4  18
ATOM     18  C   UNL     1      48.294   3.226  17.853  0.00  0.00    +0.000 C 
BRANCH  18  19
ATOM     19  N   UNL     1      49.689   2.939  18.081  0.00  0.00    +0.000 N 
ATOM     20  C   UNL     1      50.409   2.150  17.222  0.00  0.00    +0.000 C 
ATOM     21  O   UNL     1      49.912   1.687  16.198  0.00  0.00    +0.000 OA
ATOM     22  H   UNL     1      50.048   3.107  19.015  0.00  0.00    +0.000 HD
BRANCH  20  23
ATOM     23  C   UNL     1      51.824   1.936  17.555  0.00  0.00    +0.000 A 
ATOM     24  C   UNL     1      52.308   0.641  17.690  0.00  0.00    +0.000 A 
ATOM     25  S   UNL     1      53.979   0.565  18.018  0.00  0.00    +0.000 S 
ATOM     26  C   UNL     1      54.107   2.261  18.043  0.00  0.00    +0.000 A 
ATOM     27  N   UNL     1      55.298   2.870  18.296  0.00  0.00    +0.000 NA
ATOM     28  C   UNL     1      55.246   4.160  18.310  0.00  0.00    +0.000 A 
ATOM     29  N   UNL     1      54.112   4.897  18.090  0.00  0.00    +0.000 N 
ATOM     30  C   UNL     1      52.893   4.328  17.810  0.00  0.00    +0.000 A 
ATOM     31  O   UNL     1      51.905   5.018  17.586  0.00  0.00    +0.000 OA
ATOM     32  C   UNL     1      52.894   2.876  17.790  0.00  0.00    +0.000 A 
ATOM     33  H   UNL     1      54.141   5.907  18.108  0.00  0.00    +0.000 HD
ENDBRANCH  20  23
ENDBRANCH  18  19
ENDBRANCH   4  18
TORSDOF 7
ENDMDL
MODEL 7
REMARK VINA RESULT:    -6.771      4.624      9.528
REMARK INTER + INTRA:         -10.901
REMARK INTER:                 -10.023
REMARK INTRA:                  -0.879
REMARK UNBOUND:                -1.359
REMARK  Name = 
REMARK  8 active torsions:
REMARK  status: ('A' for Active; 'I' for Inactive)
REMARK    1  A    between atoms: C_1  and  C_2
REMARK    2  A    between atoms: C_2  and  N_3
REMARK    3  A    between atoms: C_2  and  C_25
REMARK    4  A    between atoms: N_3  and  C_4
REMARK    5  A    between atoms: C_4  and  C_5
REMARK    6  A    between atoms: C_8  and  C_9
REMARK    7  A    between atoms: C_9  and  N_10
REMARK    8  A    between atoms: C_11  and  C_13
REMARK                            x       y       z     vdW  Elec       q    Type
REMARK                         _______ _______ _______ _____ _____    ______ ____
ROOT
ATOM      1  C   UNL     1      51.315   3.453  17.771  0.00  0.00    +0.000 A 
ATOM      2  C   UNL     1      50.568   4.613  17.969  0.00  0.00    +0.000 A 
ATOM      3  C   UNL     1      49.206   4.600  17.678  0.00  0.00    +0.000 A 
ATOM      4  C   UNL     1      48.615   3.440  17.176  0.00  0.00    +0.000 A 
ATOM      5  C   UNL     1      49.436   2.330  17.009  0.00  0.00    +0.000 A 
ATOM      6  N   UNL     1      50.762   2.308  17.293  0.00  0.00    +0.000 NA
ENDROOT
BRANCH   1   7
ATOM      7  C   UNL     1      52.796   3.430  18.116  0.00  0.00    +0.000 C 
BRANCH   7   8
ATOM      8  N   UNL     1      53.163   2.206  18.833  0.00  0.00    +0.000 NA
ATOM      9  H   UNL     1      53.027   2.405  19.828  0.00  0.00    +0.000 HD
BRANCH   8  11
ATOM     10  C   UNL     1      55.264   2.598  17.526  0.00  0.00    +0.000 C 
ATOM     11  C   UNL     1      54.570   1.797  18.635  0.00  0.00    +0.000 C 
BRANCH  11  12
ATOM     12  C   UNL     1      54.681   0.304  18.303  0.00  0.00    +0.000 A 
ATOM     13  C   UNL     1      55.010  -0.122  17.013  0.00  0.00    +0.000 A 
ATOM     14  C   UNL     1      55.059  -1.485  16.737  0.00  0.00    +0.000 A 
ATOM     15  C   UNL     1      54.808  -2.394  17.756  0.00  0.00    +0.000 A 
ATOM     16  C   UNL     1      54.522  -1.896  19.017  0.00  0.00    +0.000 A 
ATOM     17  N   UNL     1      54.451  -0.577  19.312  0.00  0.00    +0.000 NA
ENDBRANCH  11  12
ENDBRANCH   8  11
ENDBRANCH   7   8
ENDBRANCH   1   7
BRANCH   4  18
ATOM     18  C   UNL     1      47.143   3.373  16.893  0.00  0.00    +0.000 C 
BRANCH  18  19
ATOM     19  N   UNL     1      46.764   4.368  15.919  0.00  0.00    +0.000 N 
ATOM     20  C   UNL     1      46.889   4.138  14.573  0.00  0.00    +0.000 C 
ATOM     21  O   UNL     1      47.288   3.062  14.134  0.00  0.00    +0.000 OA
ATOM     22  H   UNL     1      46.662   5.321  16.250  0.00  0.00    +0.000 HD
BRANCH  20  23
ATOM     23  C   UNL     1      46.464   5.224  13.679  0.00  0.00    +0.000 A 
ATOM     24  C   UNL     1      47.328   6.281  13.426  0.00  0.00    +0.000 A 
ATOM     25  S   UNL     1      46.707   7.424  12.324  0.00  0.00    +0.000 S 
ATOM     26  C   UNL     1      45.240   6.573  12.183  0.00  0.00    +0.000 A 
ATOM     27  N   UNL     1      44.236   7.034  11.388  0.00  0.00    +0.000 NA
ATOM     28  C   UNL     1      43.171   6.304  11.396  0.00  0.00    +0.000 A 
ATOM     29  N   UNL     1      43.020   5.153  12.123  0.00  0.00    +0.000 N 
ATOM     30  C   UNL     1      44.011   4.638  12.923  0.00  0.00    +0.000 A 
ATOM     31  O   UNL     1      43.854   3.588  13.535  0.00  0.00    +0.000 OA
ATOM     32  C   UNL     1      45.230   5.426  12.956  0.00  0.00    +0.000 A 
ATOM     33  H   UNL     1      42.160   4.624  12.078  0.00  0.00    +0.000 HD
ENDBRANCH  20  23
ENDBRANCH  18  19
ENDBRANCH   4  18
TORSDOF 7
ENDMDL
MODEL 8
REMARK VINA RESULT:    -6.761      3.154      7.920
REMARK INTER + INTRA:         -10.886
REMARK INTER:                  -9.450
REMARK INTRA:                  -1.436
REMARK UNBOUND:                -1.359
REMARK  Name = 
REMARK  8 active torsions:
REMARK  status: ('A' for Active; 'I' for Inactive)
REMARK    1  A    between atoms: C_1  and  C_2
REMARK    2  A    between atoms: C_2  and  N_3
REMARK    3  A    between atoms: C_2  and  C_25
REMARK    4  A    between atoms: N_3  and  C_4
REMARK    5  A    between atoms: C_4  and  C_5
REMARK    6  A    between atoms: C_8  and  C_9
REMARK    7  A    between atoms: C_9  and  N_10
REMARK    8  A    between atoms: C_11  and  C_13
REMARK                            x       y       z     vdW  Elec       q    Type
REMARK                         _______ _______ _______ _____ _____    ______ ____
ROOT
ATOM      1  C   UNL     1      48.709   8.100  16.040  0.00  0.00    +0.000 A 
ATOM      2  C   UNL     1      48.827   6.887  15.364  0.00  0.00    +0.000 A 
ATOM      3  C   UNL     1      48.706   6.869  13.977  0.00  0.00    +0.000 A 
ATOM      4  C   UNL     1      48.448   8.054  13.288  0.00  0.00    +0.000 A 
ATOM      5  C   UNL     1      48.343   9.218  14.042  0.00  0.00    +0.000 A 
ATOM      6  N   UNL     1      48.467   9.269  15.392  0.00  0.00    +0.000 NA
ENDROOT
BRANCH   1   7
ATOM      7  C   UNL     1      48.874   8.152  17.551  0.00  0.00    +0.000 C 
BRANCH   7   8
ATOM      8  N   UNL     1      47.941   7.247  18.226  0.00  0.00    +0.000 NA
ATOM      9  H   UNL     1      47.412   7.822  18.888  0.00  0.00    +0.000 HD
BRANCH   8  11
ATOM     10  C   UNL     1      50.052   6.507  19.355  0.00  0.00    +0.000 C 
ATOM     11  C   UNL     1      48.602   6.165  18.985  0.00  0.00    +0.000 C 
BRANCH  11  12
ATOM     12  C   UNL     1      48.596   4.844  18.206  0.00  0.00    +0.000 A 
ATOM     13  C   UNL     1      49.733   4.032  18.160  0.00  0.00    +0.000 A 
ATOM     14  C   UNL     1      49.704   2.861  17.408  0.00  0.00    +0.000 A 
ATOM     15  C   UNL     1      48.539   2.511  16.740  0.00  0.00    +0.000 A 
ATOM     16  C   UNL     1      47.442   3.350  16.860  0.00  0.00    +0.000 A 
ATOM     17  N   UNL     1      47.444   4.502  17.571  0.00  0.00    +0.000 NA
ENDBRANCH  11  12
ENDBRANCH   8  11
ENDBRANCH   7   8
ENDBRANCH   1   7
BRANCH   4  18
ATOM     18  C   UNL     1      48.355   8.083  11.791  0.00  0.00    +0.000 C 
BRANCH  18  19
ATOM     19  N   UNL     1      47.624   6.939  11.302  0.00  0.00    +0.000 N 
ATOM     20  C   UNL     1      46.253   6.923  11.274  0.00  0.00    +0.000 C 
ATOM     21  O   UNL     1      45.587   7.895  11.621  0.00  0.00    +0.000 OA
ATOM     22  H   UNL     1      48.130   6.062  11.237  0.00  0.00    +0.000 HD
BRANCH  20  23
ATOM     23  C   UNL     1      45.621   5.706  10.748  0.00  0.00    +0.000 A 
ATOM     24  C   UNL     1      45.758   5.389   9.403  0.00  0.00    +0.000 A 
ATOM     25  S   UNL     1      45.017   3.917   8.967  0.00  0.00    +0.000 S 
ATOM     26  C   UNL     1      44.442   3.674  10.550  0.00  0.00    +0.000 A 
ATOM     27  N   UNL     1      43.695   2.580  10.864  0.00  0.00    +0.000 NA
ATOM     28  C   UNL     1      43.304   2.536  12.093  0.00  0.00    +0.000 A 
ATOM     29  N   UNL     1      43.596   3.483  13.039  0.00  0.00    +0.000 N 
ATOM     30  C   UNL     1      44.363   4.592  12.775  0.00  0.00    +0.000 A 
ATOM     31  O   UNL     1      44.632   5.404  13.653  0.00  0.00    +0.000 OA
ATOM     32  C   UNL     1      44.823   4.695  11.401  0.00  0.00    +0.000 A 
ATOM     33  H   UNL     1      43.264   3.385  13.988  0.00  0.00    +0.000 HD
ENDBRANCH  20  23
ENDBRANCH  18  19
ENDBRANCH   4  18
TORSDOF 7
ENDMDL
MODEL 9
REMARK VINA RESULT:    -6.721      1.859      2.204
REMARK INTER + INTRA:         -10.830
REMARK INTER:                  -9.810
REMARK INTRA:                  -1.020
REMARK UNBOUND:                -1.359
REMARK  Name = 
REMARK  8 active torsions:
REMARK  status: ('A' for Active; 'I' for Inactive)
REMARK    1  A    between atoms: C_1  and  C_2
REMARK    2  A    between atoms: C_2  and  N_3
REMARK    3  A    between atoms: C_2  and  C_25
REMARK    4  A    between atoms: N_3  and  C_4
REMARK    5  A    between atoms: C_4  and  C_5
REMARK    6  A    between atoms: C_8  and  C_9
REMARK    7  A    between atoms: C_9  and  N_10
REMARK    8  A    between atoms: C_11  and  C_13
REMARK                            x       y       z     vdW  Elec       q    Type
REMARK                         _______ _______ _______ _____ _____    ______ ____
ROOT
ATOM      1  C   UNL     1      45.639   4.960  11.677  0.00  0.00    +0.000 A 
ATOM      2  C   UNL     1      46.058   6.124  11.033  0.00  0.00    +0.000 A 
ATOM      3  C   UNL     1      46.778   7.074  11.753  0.00  0.00    +0.000 A 
ATOM      4  C   UNL     1      47.051   6.861  13.105  0.00  0.00    +0.000 A 
ATOM      5  C   UNL     1      46.594   5.673  13.665  0.00  0.00    +0.000 A 
ATOM      6  N   UNL     1      45.900   4.724  12.989  0.00  0.00    +0.000 NA
ENDROOT
BRANCH   1   7
ATOM      7  C   UNL     1      44.884   3.890  10.904  0.00  0.00    +0.000 C 
BRANCH   7   8
ATOM      8  N   UNL     1      44.854   4.183   9.469  0.00  0.00    +0.000 NA
ATOM      9  H   UNL     1      44.085   4.844   9.327  0.00  0.00    +0.000 HD
BRANCH   8  11
ATOM     10  C   UNL     1      44.258   1.750   9.447  0.00  0.00    +0.000 C 
ATOM     11  C   UNL     1      44.601   2.998   8.622  0.00  0.00    +0.000 C 
BRANCH  11  12
ATOM     12  C   UNL     1      45.805   2.677   7.728  0.00  0.00    +0.000 A 
ATOM     13  C   UNL     1      46.172   3.532   6.685  0.00  0.00    +0.000 A 
ATOM     14  C   UNL     1      47.243   3.187   5.866  0.00  0.00    +0.000 A 
ATOM     15  C   UNL     1      47.942   2.015   6.120  0.00  0.00    +0.000 A 
ATOM     16  C   UNL     1      47.540   1.235   7.192  0.00  0.00    +0.000 A 
ATOM     17  N   UNL     1      46.493   1.536   7.996  0.00  0.00    +0.000 NA
ENDBRANCH  11  12
ENDBRANCH   8  11
ENDBRANCH   7   8
ENDBRANCH   1   7
BRANCH   4  18
ATOM     18  C   UNL     1      47.862   7.840  13.902  0.00  0.00    +0.000 C 
BRANCH  18  19
ATOM     19  N   UNL     1      49.003   7.191  14.500  0.00  0.00    +0.000 N 
ATOM     20  C   UNL     1      49.849   7.863  15.344  0.00  0.00    +0.000 C 
ATOM     21  O   UNL     1      49.652   9.033  15.663  0.00  0.00    +0.000 OA
ATOM     22  H   UNL     1      49.314   6.323  14.077  0.00  0.00    +0.000 HD
BRANCH  20  23
ATOM     23  C   UNL     1      50.972   7.094  15.897  0.00  0.00    +0.000 A 
ATOM     24  C   UNL     1      52.275   7.483  15.614  0.00  0.00    +0.000 A 
ATOM     25  S   UNL     1      53.458   6.525  16.380  0.00  0.00    +0.000 S 
ATOM     26  C   UNL     1      52.274   5.522  17.078  0.00  0.00    +0.000 A 
ATOM     27  N   UNL     1      52.623   4.465  17.859  0.00  0.00    +0.000 NA
ATOM     28  C   UNL     1      51.625   3.775  18.302  0.00  0.00    +0.000 A 
ATOM     29  N   UNL     1      50.309   4.050  18.038  0.00  0.00    +0.000 N 
ATOM     30  C   UNL     1      49.908   5.118  17.272  0.00  0.00    +0.000 A 
ATOM     31  O   UNL     1      48.720   5.354  17.083  0.00  0.00    +0.000 OA
ATOM     32  C   UNL     1      50.993   5.923  16.742  0.00  0.00    +0.000 A 
ATOM     33  H   UNL     1      49.575   3.473  18.422  0.00  0.00    +0.000 HD
ENDBRANCH  20  23
ENDBRANCH  18  19
ENDBRANCH   4  18
TORSDOF 7
ENDMDL
