MODEL 1
REMARK VINA RESULT:    -7.426      0.000      0.000
REMARK INTER + INTRA:          -9.863
REMARK INTER:                  -9.380
REMARK INTRA:                  -0.483
REMARK UNBOUND:                -0.483
REMARK  Name = 
REMARK  6 active torsions:
REMARK  status: ('A' for Active; 'I' for Inactive)
REMARK    1  A    between atoms: C_1  and  C_2
REMARK    2  A    between atoms: C_5  and  C_6
REMARK    3  A    between atoms: C_6  and  O_7
REMARK    4  A    between atoms: O_7  and  C_8
REMARK    5  A    between atoms: C_11  and  C_12
REMARK    6  A    between atoms: C_12  and  N_13
REMARK                            x       y       z     vdW  Elec       q    Type
REMARK                         _______ _______ _______ _____ _____    ______ ____
ROOT
ATOM      1  C   UNL     1      44.501   3.247   9.330  0.00  0.00    +0.000 A 
ATOM      2  C   UNL     1      45.161   4.157   8.506  0.00  0.00    +0.000 A 
ATOM      3  C   UNL     1      46.132   3.711   7.600  0.00  0.00    +0.000 A 
ATOM      4  C   UNL     1      46.455   2.350   7.507  0.00  0.00    +0.000 A 
ATOM      5  C   UNL     1      45.793   1.446   8.347  0.00  0.00    +0.000 A 
ATOM      6  C   UNL     1      44.826   1.893   9.248  0.00  0.00    +0.000 A 
ENDROOT
BRANCH   1   7
ATOM      7  O   UNL     1      43.527   3.543  10.241  0.00  0.00    +0.000 OA
BRANCH   7   8
ATOM      8  C   UNL     1      43.720   3.083  11.582  0.00  0.00    +0.000 C 
BRANCH   8  13
ATOM      9  C   UNL     1      47.844   6.021  14.352  0.00  0.00    +0.000 C 
ATOM     10  C   UNL     1      46.752   5.309  13.620  0.00  0.00    +0.000 A 
ATOM     11  C   UNL     1      45.725   5.999  12.982  0.00  0.00    +0.000 A 
ATOM     12  C   UNL     1      44.732   5.290  12.310  0.00  0.00    +0.000 A 
ATOM     13  C   UNL     1      44.792   3.899  12.277  0.00  0.00    +0.000 A 
ATOM     14  N   UNL     1      45.774   3.207  12.911  0.00  0.00    +0.000 NA
ATOM     15  C   UNL     1      46.724   3.922  13.557  0.00  0.00    +0.000 A 
ENDBRANCH   8  13
ENDBRANCH   7   8
ENDBRANCH   1   7
BRANCH   4  16
ATOM     16  C   UNL     1      47.463   1.859   6.499  0.00  0.00    +0.000 C 
BRANCH  16  17
ATOM     17  N   UNL     1      48.647   2.709   6.456  0.00  0.00    +0.000 NA
ATOM     18  H   UNL     1      49.055   2.748   7.389  0.00  0.00    +0.000 HD
ATOM     19  H   UNL     1      48.367   3.659   6.222  0.00  0.00    +0.000 HD
ENDBRANCH  16  17
ENDBRANCH   4  16
TORSDOF 5
ENDMDL
MODEL 2
REMARK VINA RESULT:    -7.011      1.789      5.852
REMARK INTER + INTRA:          -9.338
REMARK INTER:                  -8.960
REMARK INTRA:                  -0.379
REMARK UNBOUND:                -0.483
REMARK  Name = 
REMARK  6 active torsions:
REMARK  status: ('A' for Active; 'I' for Inactive)
REMARK    1  A    between atoms: C_1  and  C_2
REMARK    2  A    between atoms: C_5  and  C_6
REMARK    3  A    between atoms: C_6  and  O_7
REMARK    4  A    between atoms: O_7  and  C_8
REMARK    5  A    between atoms: C_11  and  C_12
REMARK    6  A    between atoms: C_12  and  N_13
REMARK                            x       y       z     vdW  Elec       q    Type
REMARK                         _______ _______ _______ _____ _____    ______ ____
ROOT
ATOM      1  C   UNL     1      45.043   4.707  11.343  0.00  0.00    +0.000 A 
ATOM      2  C   UNL     1      45.468   4.082  12.515  0.00  0.00    +0.000 A 
ATOM      3  C   UNL     1      46.433   4.691  13.326  0.00  0.00    +0.000 A 
ATOM      4  C   UNL     1      46.984   5.933  12.978  0.00  0.00    +0.000 A 
ATOM      5  C   UNL     1      46.557   6.546  11.795  0.00  0.00    +0.000 A 
ATOM      6  C   UNL     1      45.595   5.937  10.987  0.00  0.00    +0.000 A 
ENDROOT
BRANCH   1   7
ATOM      7  O   UNL     1      44.102   4.234  10.473  0.00  0.00    +0.000 OA
BRANCH   7   8
ATOM      8  C   UNL     1      44.204   2.863  10.076  0.00  0.00    +0.000 C 
BRANCH   8  13
ATOM      9  C   UNL     1      47.895   2.156   5.696  0.00  0.00    +0.000 C 
ATOM     10  C   UNL     1      46.929   2.391   6.812  0.00  0.00    +0.000 A 
ATOM     11  C   UNL     1      46.268   3.607   6.967  0.00  0.00    +0.000 A 
ATOM     12  C   UNL     1      45.375   3.777   8.022  0.00  0.00    +0.000 A 
ATOM     13  C   UNL     1      45.146   2.718   8.898  0.00  0.00    +0.000 A 
ATOM     14  N   UNL     1      45.796   1.532   8.776  0.00  0.00    +0.000 NA
ATOM     15  C   UNL     1      46.659   1.396   7.744  0.00  0.00    +0.000 A 
ENDBRANCH   8  13
ENDBRANCH   7   8
ENDBRANCH   1   7
BRANCH   4  16
ATOM     16  C   UNL     1      47.985   6.616  13.875  0.00  0.00    +0.000 C 
BRANCH  16  17
ATOM     17  N   UNL     1      49.327   6.599  13.303  0.00  0.00    +0.000 NA
ATOM     18  H   UNL     1      49.340   7.199  12.480  0.00  0.00    +0.000 HD
ATOM     19  H   UNL     1      49.538   5.657  12.979  0.00  0.00    +0.000 HD
ENDBRANCH  16  17
ENDBRANCH   4  16
TORSDOF 5
ENDMDL
MODEL 3
REMARK VINA RESULT:    -6.863      1.793      5.860
REMARK INTER + INTRA:          -9.152
REMARK INTER:                  -8.751
REMARK INTRA:                  -0.401
REMARK UNBOUND:                -0.483
REMARK  Name = 
REMARK  6 active torsions:
REMARK  status: ('A' for Active; 'I' for Inactive)
REMARK    1  A    between atoms: C_1  and  C_2
REMARK    2  A    between atoms: C_5  and  C_6
REMARK    3  A    between atoms: C_6  and  O_7
REMARK    4  A    between atoms: O_7  and  C_8
REMARK    5  A    between atoms: C_11  and  C_12
REMARK    6  A    between atoms: C_12  and  N_13
REMARK                            x       y       z     vdW  Elec       q    Type
REMARK                         _______ _______ _______ _____ _____    ______ ____
ROOT
ATOM      1  C   UNL     1      45.130   4.852  11.879  0.00  0.00    +0.000 A 
ATOM      2  C   UNL     1      45.598   6.094  11.454  0.00  0.00    +0.000 A 
ATOM      3  C   UNL     1      46.600   6.753  12.177  0.00  0.00    +0.000 A 
ATOM      4  C   UNL     1      47.148   6.178  13.333  0.00  0.00    +0.000 A 
ATOM      5  C   UNL     1      46.663   4.935  13.755  0.00  0.00    +0.000 A 
ATOM      6  C   UNL     1      45.664   4.280  13.034  0.00  0.00    +0.000 A 
ENDROOT
BRANCH   1   7
ATOM      7  O   UNL     1      44.172   4.096  11.263  0.00  0.00    +0.000 OA
BRANCH   7   8
ATOM      8  C   UNL     1      43.927   4.351   9.877  0.00  0.00    +0.000 C 
BRANCH   8  13
ATOM      9  C   UNL     1      47.747   1.719   6.443  0.00  0.00    +0.000 C 
ATOM     10  C   UNL     1      46.747   2.351   7.357  0.00  0.00    +0.000 A 
ATOM     11  C   UNL     1      46.041   1.608   8.299  0.00  0.00    +0.000 A 
ATOM     12  C   UNL     1      45.122   2.244   9.130  0.00  0.00    +0.000 A 
ATOM     13  C   UNL     1      44.936   3.620   9.014  0.00  0.00    +0.000 A 
ATOM     14  N   UNL     1      45.599   4.358   8.087  0.00  0.00    +0.000 NA
ATOM     15  C   UNL     1      46.484   3.714   7.292  0.00  0.00    +0.000 A 
ENDBRANCH   8  13
ENDBRANCH   7   8
ENDBRANCH   1   7
BRANCH   4  16
ATOM     16  C   UNL     1      48.262   6.860  14.085  0.00  0.00    +0.000 C 
BRANCH  16  17
ATOM     17  N   UNL     1      49.534   6.761  13.378  0.00  0.00    +0.000 NA
ATOM     18  H   UNL     1      50.262   6.515  14.047  0.00  0.00    +0.000 HD
ATOM     19  H   UNL     1      49.779   7.675  13.005  0.00  0.00    +0.000 HD
ENDBRANCH  16  17
ENDBRANCH   4  16
TORSDOF 5
ENDMDL
MODEL 4
REMARK VINA RESULT:    -6.160      2.277      6.204
REMARK INTER + INTRA:          -8.263
REMARK INTER:                  -8.341
REMARK INTRA:                   0.078
REMARK UNBOUND:                -0.483
REMARK  Name = 
REMARK  6 active torsions:
REMARK  status: ('A' for Active; 'I' for Inactive)
REMARK    1  A    between atoms: C_1  and  C_2
REMARK    2  A    between atoms: C_5  and  C_6
REMARK    3  A    between atoms: C_6  and  O_7
REMARK    4  A    between atoms: O_7  and  C_8
REMARK    5  A    between atoms: C_11  and  C_12
REMARK    6  A    between atoms: C_12  and  N_13
REMARK                            x       y       z     vdW  Elec       q    Type
REMARK                         _______ _______ _______ _____ _____    ______ ____
ROOT
ATOM      1  C   UNL     1      44.349   5.079  10.585  0.00  0.00    +0.000 A 
ATOM      2  C   UNL     1      45.698   5.425  10.657  0.00  0.00    +0.000 A 
ATOM      3  C   UNL     1      46.099   6.545  11.396  0.00  0.00    +0.000 A 
ATOM      4  C   UNL     1      45.157   7.333  12.073  0.00  0.00    +0.000 A 
ATOM      5  C   UNL     1      43.804   6.982  11.986  0.00  0.00    +0.000 A 
ATOM      6  C   UNL     1      43.407   5.865  11.248  0.00  0.00    +0.000 A 
ENDROOT
BRANCH   1   7
ATOM      7  O   UNL     1      43.826   4.009   9.916  0.00  0.00    +0.000 OA
BRANCH   7   8
ATOM      8  C   UNL     1      44.565   2.785   9.954  0.00  0.00    +0.000 C 
BRANCH   8  13
ATOM      9  C   UNL     1      47.928   2.077   5.318  0.00  0.00    +0.000 C 
ATOM     10  C   UNL     1      47.045   2.312   6.500  0.00  0.00    +0.000 A 
ATOM     11  C   UNL     1      46.371   3.517   6.685  0.00  0.00    +0.000 A 
ATOM     12  C   UNL     1      45.556   3.686   7.803  0.00  0.00    +0.000 A 
ATOM     13  C   UNL     1      45.418   2.638   8.710  0.00  0.00    +0.000 A 
ATOM     14  N   UNL     1      46.083   1.464   8.559  0.00  0.00    +0.000 NA
ATOM     15  C   UNL     1      46.869   1.328   7.466  0.00  0.00    +0.000 A 
ENDBRANCH   8  13
ENDBRANCH   7   8
ENDBRANCH   1   7
BRANCH   4  16
ATOM     16  C   UNL     1      45.588   8.509  12.912  0.00  0.00    +0.000 C 
BRANCH  16  17
ATOM     17  N   UNL     1      44.699   9.652  12.742  0.00  0.00    +0.000 NA
ATOM     18  H   UNL     1      44.370   9.950  13.659  0.00  0.00    +0.000 HD
ATOM     19  H   UNL     1      43.877   9.359  12.219  0.00  0.00    +0.000 HD
ENDBRANCH  16  17
ENDBRANCH   4  16
TORSDOF 5
ENDMDL
MODEL 5
REMARK VINA RESULT:    -5.449      4.019      6.179
REMARK INTER + INTRA:          -7.365
REMARK INTER:                  -7.111
REMARK INTRA:                  -0.254
REMARK UNBOUND:                -0.483
REMARK  Name = 
REMARK  6 active torsions:
REMARK  status: ('A' for Active; 'I' for Inactive)
REMARK    1  A    between atoms: C_1  and  C_2
REMARK    2  A    between atoms: C_5  and  C_6
REMARK    3  A    between atoms: C_6  and  O_7
REMARK    4  A    between atoms: O_7  and  C_8
REMARK    5  A    between atoms: C_11  and  C_12
REMARK    6  A    between atoms: C_12  and  N_13
REMARK                            x       y       z     vdW  Elec       q    Type
REMARK                         _______ _______ _______ _____ _____    ______ ____
ROOT
ATOM      1  C   UNL     1      46.846   4.040  13.840  0.00  0.00    +0.000 A 
ATOM      2  C   UNL     1      46.979   5.423  13.723  0.00  0.00    +0.000 A 
ATOM      3  C   UNL     1      46.150   6.138  12.850  0.00  0.00    +0.000 A 
ATOM      4  C   UNL     1      45.178   5.480  12.082  0.00  0.00    +0.000 A 
ATOM      5  C   UNL     1      45.060   4.090  12.201  0.00  0.00    +0.000 A 
ATOM      6  C   UNL     1      45.887   3.379  13.072  0.00  0.00    +0.000 A 
ENDROOT
BRANCH   1   7
ATOM      7  O   UNL     1      47.574   3.226  14.662  0.00  0.00    +0.000 OA
BRANCH   7   8
ATOM      8  C   UNL     1      47.560   3.524  16.061  0.00  0.00    +0.000 C 
BRANCH   8  13
ATOM      9  C   UNL     1      52.829   2.861  18.321  0.00  0.00    +0.000 C 
ATOM     10  C   UNL     1      51.461   2.977  17.729  0.00  0.00    +0.000 A 
ATOM     11  C   UNL     1      50.746   1.859  17.309  0.00  0.00    +0.000 A 
ATOM     12  C   UNL     1      49.472   2.018  16.767  0.00  0.00    +0.000 A 
ATOM     13  C   UNL     1      48.930   3.298  16.668  0.00  0.00    +0.000 A 
ATOM     14  N   UNL     1      49.620   4.402  17.052  0.00  0.00    +0.000 NA
ATOM     15  C   UNL     1      50.854   4.217  17.573  0.00  0.00    +0.000 A 
ENDBRANCH   8  13
ENDBRANCH   7   8
ENDBRANCH   1   7
BRANCH   4  16
ATOM     16  C   UNL     1      44.250   6.251  11.179  0.00  0.00    +0.000 C 
BRANCH  16  17
ATOM     17  N   UNL     1      43.448   5.367  10.341  0.00  0.00    +0.000 NA
ATOM     18  H   UNL     1      44.055   4.933   9.648  0.00  0.00    +0.000 HD
ATOM     19  H   UNL     1      42.769   5.923   9.826  0.00  0.00    +0.000 HD
ENDBRANCH  16  17
ENDBRANCH   4  16
TORSDOF 5
ENDMDL
MODEL 6
REMARK VINA RESULT:    -5.340      3.727      5.527
REMARK INTER + INTRA:          -7.228
REMARK INTER:                  -6.929
REMARK INTRA:                  -0.299
REMARK UNBOUND:                -0.483
REMARK  Name = 
REMARK  6 active torsions:
REMARK  status: ('A' for Active; 'I' for Inactive)
REMARK    1  A    between atoms: C_1  and  C_2
REMARK    2  A    between atoms: C_5  and  C_6
REMARK    3  A    between atoms: C_6  and  O_7
REMARK    4  A    between atoms: O_7  and  C_8
REMARK    5  A    between atoms: C_11  and  C_12
REMARK    6  A    between atoms: C_12  and  N_13
REMARK                            x       y       z     vdW  Elec       q    Type
REMARK                         _______ _______ _______ _____ _____    ______ ____
ROOT
ATOM      1  C   UNL     1      46.691   4.879  13.563  0.00  0.00    +0.000 A 
ATOM      2  C   UNL     1      46.001   3.700  13.286  0.00  0.00    +0.000 A 
ATOM      3  C   UNL     1      45.266   3.576  12.101  0.00  0.00    +0.000 A 
ATOM      4  C   UNL     1      45.210   4.630  11.177  0.00  0.00    +0.000 A 
ATOM      5  C   UNL     1      45.899   5.813  11.470  0.00  0.00    +0.000 A 
ATOM      6  C   UNL     1      46.631   5.934  12.652  0.00  0.00    +0.000 A 
ENDROOT
BRANCH   1   7
ATOM      7  O   UNL     1      47.456   5.126  14.668  0.00  0.00    +0.000 OA
BRANCH   7   8
ATOM      8  C   UNL     1      47.159   4.380  15.852  0.00  0.00    +0.000 C 
BRANCH   8  13
ATOM      9  C   UNL     1      51.810   1.578  17.807  0.00  0.00    +0.000 C 
ATOM     10  C   UNL     1      50.620   2.348  17.332  0.00  0.00    +0.000 A 
ATOM     11  C   UNL     1      50.355   3.640  17.779  0.00  0.00    +0.000 A 
ATOM     12  C   UNL     1      49.235   4.318  17.305  0.00  0.00    +0.000 A 
ATOM     13  C   UNL     1      48.404   3.694  16.376  0.00  0.00    +0.000 A 
ATOM     14  N   UNL     1      48.634   2.427  15.944  0.00  0.00    +0.000 NA
ATOM     15  C   UNL     1      49.728   1.793  16.423  0.00  0.00    +0.000 A 
ENDBRANCH   8  13
ENDBRANCH   7   8
ENDBRANCH   1   7
BRANCH   4  16
ATOM     16  C   UNL     1      44.462   4.483   9.877  0.00  0.00    +0.000 C 
BRANCH  16  17
ATOM     17  N   UNL     1      45.259   4.926   8.738  0.00  0.00    +0.000 NA
ATOM     18  H   UNL     1      44.775   4.669   7.880  0.00  0.00    +0.000 HD
ATOM     19  H   UNL     1      46.143   4.422   8.735  0.00  0.00    +0.000 HD
ENDBRANCH  16  17
ENDBRANCH   4  16
TORSDOF 5
ENDMDL
MODEL 7
REMARK VINA RESULT:    -5.183      3.746      5.465
REMARK INTER + INTRA:          -7.029
REMARK INTER:                  -6.786
REMARK INTRA:                  -0.243
REMARK UNBOUND:                -0.483
REMARK  Name = 
REMARK  6 active torsions:
REMARK  status: ('A' for Active; 'I' for Inactive)
REMARK    1  A    between atoms: C_1  and  C_2
REMARK    2  A    between atoms: C_5  and  C_6
REMARK    3  A    between atoms: C_6  and  O_7
REMARK    4  A    between atoms: O_7  and  C_8
REMARK    5  A    between atoms: C_11  and  C_12
REMARK    6  A    between atoms: C_12  and  N_13
REMARK                            x       y       z     vdW  Elec       q    Type
REMARK                         _______ _______ _______ _____ _____    ______ ____
ROOT
ATOM      1  C   UNL     1      46.807   5.034  13.444  0.00  0.00    +0.000 A 
ATOM      2  C   UNL     1      46.656   6.065  12.517  0.00  0.00    +0.000 A 
ATOM      3  C   UNL     1      45.835   5.890  11.397  0.00  0.00    +0.000 A 
ATOM      4  C   UNL     1      45.154   4.682  11.188  0.00  0.00    +0.000 A 
ATOM      5  C   UNL     1      45.320   3.650  12.120  0.00  0.00    +0.000 A 
ATOM      6  C   UNL     1      46.139   3.827  13.236  0.00  0.00    +0.000 A 
ENDROOT
BRANCH   1   7
ATOM      7  O   UNL     1      47.560   5.077  14.583  0.00  0.00    +0.000 OA
BRANCH   7   8
ATOM      8  C   UNL     1      47.189   4.198  15.649  0.00  0.00    +0.000 C 
BRANCH   8  13
ATOM      9  C   UNL     1      50.569   5.047  20.249  0.00  0.00    +0.000 C 
ATOM     10  C   UNL     1      49.650   4.845  19.088  0.00  0.00    +0.000 A 
ATOM     11  C   UNL     1      48.286   5.117  19.175  0.00  0.00    +0.000 A 
ATOM     12  C   UNL     1      47.471   4.915  18.063  0.00  0.00    +0.000 A 
ATOM     13  C   UNL     1      48.039   4.458  16.876  0.00  0.00    +0.000 A 
ATOM     14  N   UNL     1      49.362   4.168  16.778  0.00  0.00    +0.000 NA
ATOM     15  C   UNL     1      50.129   4.371  17.873  0.00  0.00    +0.000 A 
ENDBRANCH   8  13
ENDBRANCH   7   8
ENDBRANCH   1   7
BRANCH   4  16
ATOM     16  C   UNL     1      44.229   4.507  10.010  0.00  0.00    +0.000 C 
BRANCH  16  17
ATOM     17  N   UNL     1      44.910   4.753   8.744  0.00  0.00    +0.000 NA
ATOM     18  H   UNL     1      45.305   3.876   8.409  0.00  0.00    +0.000 HD
ATOM     19  H   UNL     1      45.694   5.381   8.905  0.00  0.00    +0.000 HD
ENDBRANCH  16  17
ENDBRANCH   4  16
TORSDOF 5
ENDMDL
MODEL 8
REMARK VINA RESULT:    -5.154      3.123      4.472
REMARK INTER + INTRA:          -6.992
REMARK INTER:                  -6.728
REMARK INTRA:                  -0.264
REMARK UNBOUND:                -0.483
REMARK  Name = 
REMARK  6 active torsions:
REMARK  status: ('A' for Active; 'I' for Inactive)
REMARK    1  A    between atoms: C_1  and  C_2
REMARK    2  A    between atoms: C_5  and  C_6
REMARK    3  A    between atoms: C_6  and  O_7
REMARK    4  A    between atoms: O_7  and  C_8
REMARK    5  A    between atoms: C_11  and  C_12
REMARK    6  A    between atoms: C_12  and  N_13
REMARK                            x       y       z     vdW  Elec       q    Type
REMARK                         _______ _______ _______ _____ _____    ______ ____
ROOT
ATOM      1  C   UNL     1      45.809   4.936  12.623  0.00  0.00    +0.000 A 
ATOM      2  C   UNL     1      45.979   5.868  11.600  0.00  0.00    +0.000 A 
ATOM      3  C   UNL     1      45.596   5.554  10.290  0.00  0.00    +0.000 A 
ATOM      4  C   UNL     1      45.039   4.304   9.986  0.00  0.00    +0.000 A 
ATOM      5  C   UNL     1      44.881   3.372  11.019  0.00  0.00    +0.000 A 
ATOM      6  C   UNL     1      45.263   3.688  12.323  0.00  0.00    +0.000 A 
ENDROOT
BRANCH   1   7
ATOM      7  O   UNL     1      46.122   5.118  13.940  0.00  0.00    +0.000 OA
BRANCH   7   8
ATOM      8  C   UNL     1      47.480   5.439  14.254  0.00  0.00    +0.000 C 
BRANCH   8  13
ATOM      9  C   UNL     1      48.909   4.034  19.666  0.00  0.00    +0.000 C 
ATOM     10  C   UNL     1      48.499   4.359  18.266  0.00  0.00    +0.000 A 
ATOM     11  C   UNL     1      47.465   3.678  17.627  0.00  0.00    +0.000 A 
ATOM     12  C   UNL     1      47.117   4.020  16.322  0.00  0.00    +0.000 A 
ATOM     13  C   UNL     1      47.803   5.050  15.682  0.00  0.00    +0.000 A 
ATOM     14  N   UNL     1      48.828   5.711  16.280  0.00  0.00    +0.000 NA
ATOM     15  C   UNL     1      49.145   5.357  17.547  0.00  0.00    +0.000 A 
ENDBRANCH   8  13
ENDBRANCH   7   8
ENDBRANCH   1   7
BRANCH   4  16
ATOM     16  C   UNL     1      44.579   3.979   8.587  0.00  0.00    +0.000 C 
BRANCH  16  17
ATOM     17  N   UNL     1      45.668   4.068   7.623  0.00  0.00    +0.000 NA
ATOM     18  H   UNL     1      45.993   3.127   7.407  0.00  0.00    +0.000 HD
ATOM     19  H   UNL     1      46.453   4.555   8.051  0.00  0.00    +0.000 HD
ENDBRANCH  16  17
ENDBRANCH   4  16
TORSDOF 5
ENDMDL
MODEL 9
REMARK VINA RESULT:    -5.014      4.371      6.031
REMARK INTER + INTRA:          -6.816
REMARK INTER:                  -6.503
REMARK INTRA:                  -0.313
REMARK UNBOUND:                -0.483
REMARK  Name = 
REMARK  6 active torsions:
REMARK  status: ('A' for Active; 'I' for Inactive)
REMARK    1  A    between atoms: C_1  and  C_2
REMARK    2  A    between atoms: C_5  and  C_6
REMARK    3  A    between atoms: C_6  and  O_7
REMARK    4  A    between atoms: O_7  and  C_8
REMARK    5  A    between atoms: C_11  and  C_12
REMARK    6  A    between atoms: C_12  and  N_13
REMARK                            x       y       z     vdW  Elec       q    Type
REMARK                         _______ _______ _______ _____ _____    ______ ____
ROOT
ATOM      1  C   UNL     1      46.937   5.517  13.136  0.00  0.00    +0.000 A 
ATOM      2  C   UNL     1      45.924   4.675  13.593  0.00  0.00    +0.000 A 
ATOM      3  C   UNL     1      44.685   4.648  12.941  0.00  0.00    +0.000 A 
ATOM      4  C   UNL     1      44.442   5.461  11.824  0.00  0.00    +0.000 A 
ATOM      5  C   UNL     1      45.464   6.309  11.380  0.00  0.00    +0.000 A 
ATOM      6  C   UNL     1      46.698   6.335  12.031  0.00  0.00    +0.000 A 
ENDROOT
BRANCH   1   7
ATOM      7  O   UNL     1      48.191   5.630  13.665  0.00  0.00    +0.000 OA
BRANCH   7   8
ATOM      8  C   UNL     1      48.440   6.741  14.532  0.00  0.00    +0.000 C 
BRANCH   8  13
ATOM      9  C   UNL     1      49.230   4.752  19.892  0.00  0.00    +0.000 C 
ATOM     10  C   UNL     1      49.028   5.319  18.524  0.00  0.00    +0.000 A 
ATOM     11  C   UNL     1      48.968   6.693  18.300  0.00  0.00    +0.000 A 
ATOM     12  C   UNL     1      48.781   7.173  17.006  0.00  0.00    +0.000 A 
ATOM     13  C   UNL     1      48.672   6.267  15.953  0.00  0.00    +0.000 A 
ATOM     14  N   UNL     1      48.707   4.925  16.154  0.00  0.00    +0.000 NA
ATOM     15  C   UNL     1      48.887   4.487  17.421  0.00  0.00    +0.000 A 
ENDBRANCH   8  13
ENDBRANCH   7   8
ENDBRANCH   1   7
BRANCH   4  16
ATOM     16  C   UNL     1      43.128   5.397  11.089  0.00  0.00    +0.000 C 
BRANCH  16  17
ATOM     17  N   UNL     1      42.110   6.225  11.724  0.00  0.00    +0.000 NA
ATOM     18  H   UNL     1      41.733   5.724  12.526  0.00  0.00    +0.000 HD
ATOM     19  H   UNL     1      41.337   6.357  11.075  0.00  0.00    +0.000 HD
ENDBRANCH  16  17
ENDBRANCH   4  16
TORSDOF 5
ENDMDL
