MODEL 1
REMARK VINA RESULT:    -7.874      0.000      0.000
REMARK INTER + INTRA:         -10.318
REMARK INTER:                  -9.715
REMARK INTRA:                  -0.603
REMARK UNBOUND:                -0.603
REMARK  Name = 
REMARK  5 active torsions:
REMARK  status: ('A' for Active; 'I' for Inactive)
REMARK    1  A    between atoms: C_1  and  C_2
REMARK    2  A    between atoms: C_2  and  C_3
REMARK    3  A    between atoms: C_2  and  C_14
REMARK    4  A    between atoms: C_3  and  N_4
REMARK    5  A    between atoms: C_8  and  C_9
REMARK                            x       y       z     vdW  Elec       q    Type
REMARK                         _______ _______ _______ _____ _____    ______ ____
ROOT
ATOM      1  N   UNL     1      43.877   3.299  10.393  0.00  0.00    +0.000 N 
ATOM      2  C   UNL     1      44.816   3.072   9.377  0.00  0.00    +0.000 A 
ATOM      3  C   UNL     1      45.167   1.761   9.067  0.00  0.00    +0.000 A 
ATOM      4  C   UNL     1      46.099   1.518   8.054  0.00  0.00    +0.000 A 
ATOM      5  C   UNL     1      46.662   2.590   7.363  0.00  0.00    +0.000 A 
ATOM      6  C   UNL     1      46.273   3.860   7.750  0.00  0.00    +0.000 A 
ATOM      7  N   UNL     1      45.378   4.117   8.733  0.00  0.00    +0.000 NA
ATOM      8  H   UNL     1      43.029   2.782  10.175  0.00  0.00    +0.000 HD
ENDROOT
BRANCH   5   9
ATOM      9  C   UNL     1      47.633   2.333   6.271  0.00  0.00    +0.000 C 
ATOM     10  N   UNL     1      47.655   3.169   5.191  0.00  0.00    +0.000 N 
ATOM     11  O   UNL     1      48.401   1.380   6.321  0.00  0.00    +0.000 OA
ATOM     12  H   UNL     1      47.055   3.963   5.035  0.00  0.00    +0.000 HD
ATOM     13  H   UNL     1      48.324   2.944   4.462  0.00  0.00    +0.000 HD
ENDBRANCH   5   9
BRANCH   1  14
ATOM     14  C   UNL     1      43.588   4.713  10.610  0.00  0.00    +0.000 C 
BRANCH  14  16
ATOM     15  C   UNL     1      42.898   5.280  13.020  0.00  0.00    +0.000 C 
ATOM     16  C   UNL     1      43.983   5.045  12.019  0.00  0.00    +0.000 C 
BRANCH  16  17
ATOM     17  C   UNL     1      45.356   5.504  12.273  0.00  0.00    +0.000 A 
ATOM     18  C   UNL     1      45.975   6.418  11.408  0.00  0.00    +0.000 A 
ATOM     19  C   UNL     1      47.231   6.948  11.713  0.00  0.00    +0.000 A 
ATOM     20  C   UNL     1      47.882   6.567  12.884  0.00  0.00    +0.000 A 
ATOM     21  C   UNL     1      47.293   5.630  13.730  0.00  0.00    +0.000 A 
ATOM     22  C   UNL     1      46.043   5.092  13.419  0.00  0.00    +0.000 A 
ENDBRANCH  16  17
ENDBRANCH  14  16
ENDBRANCH   1  14
TORSDOF 4
ENDMDL
MODEL 2
REMARK VINA RESULT:    -7.834      0.096      1.110
REMARK INTER + INTRA:         -10.268
REMARK INTER:                  -9.683
REMARK INTRA:                  -0.585
REMARK UNBOUND:                -0.603
REMARK  Name = 
REMARK  5 active torsions:
REMARK  status: ('A' for Active; 'I' for Inactive)
REMARK    1  A    between atoms: C_1  and  C_2
REMARK    2  A    between atoms: C_2  and  C_3
REMARK    3  A    between atoms: C_2  and  C_14
REMARK    4  A    between atoms: C_3  and  N_4
REMARK    5  A    between atoms: C_8  and  C_9
REMARK                            x       y       z     vdW  Elec       q    Type
REMARK                         _______ _______ _______ _____ _____    ______ ____
ROOT
ATOM      1  N   UNL     1      43.882   3.334  10.401  0.00  0.00    +0.000 N 
ATOM      2  C   UNL     1      44.808   3.103   9.374  0.00  0.00    +0.000 A 
ATOM      3  C   UNL     1      45.138   1.790   9.050  0.00  0.00    +0.000 A 
ATOM      4  C   UNL     1      46.057   1.542   8.026  0.00  0.00    +0.000 A 
ATOM      5  C   UNL     1      46.628   2.612   7.339  0.00  0.00    +0.000 A 
ATOM      6  C   UNL     1      46.260   3.884   7.739  0.00  0.00    +0.000 A 
ATOM      7  N   UNL     1      45.378   4.146   8.733  0.00  0.00    +0.000 NA
ATOM      8  H   UNL     1      43.025   2.831  10.187  0.00  0.00    +0.000 HD
ENDROOT
BRANCH   5   9
ATOM      9  C   UNL     1      47.584   2.351   6.236  0.00  0.00    +0.000 C 
ATOM     10  N   UNL     1      47.553   3.147   5.125  0.00  0.00    +0.000 N 
ATOM     11  O   UNL     1      48.389   1.429   6.303  0.00  0.00    +0.000 OA
ATOM     12  H   UNL     1      46.920   3.911   4.954  0.00  0.00    +0.000 HD
ATOM     13  H   UNL     1      48.215   2.920   4.390  0.00  0.00    +0.000 HD
ENDBRANCH   5   9
BRANCH   1  14
ATOM     14  C   UNL     1      43.614   4.751  10.631  0.00  0.00    +0.000 C 
BRANCH  14  16
ATOM     15  C   UNL     1      42.827   5.188  13.039  0.00  0.00    +0.000 C 
ATOM     16  C   UNL     1      43.951   5.048  12.063  0.00  0.00    +0.000 C 
BRANCH  16  17
ATOM     17  C   UNL     1      45.290   5.567  12.376  0.00  0.00    +0.000 A 
ATOM     18  C   UNL     1      45.965   5.154  13.534  0.00  0.00    +0.000 A 
ATOM     19  C   UNL     1      47.283   5.551  13.768  0.00  0.00    +0.000 A 
ATOM     20  C   UNL     1      47.939   6.366  12.850  0.00  0.00    +0.000 A 
ATOM     21  C   UNL     1      47.265   6.815  11.716  0.00  0.00    +0.000 A 
ATOM     22  C   UNL     1      45.943   6.427  11.487  0.00  0.00    +0.000 A 
ENDBRANCH  16  17
ENDBRANCH  14  16
ENDBRANCH   1  14
TORSDOF 4
ENDMDL
MODEL 3
REMARK VINA RESULT:    -7.477      1.460      1.822
REMARK INTER + INTRA:          -9.829
REMARK INTER:                  -9.505
REMARK INTRA:                  -0.323
REMARK UNBOUND:                -0.603
REMARK  Name = 
REMARK  5 active torsions:
REMARK  status: ('A' for Active; 'I' for Inactive)
REMARK    1  A    between atoms: C_1  and  C_2
REMARK    2  A    between atoms: C_2  and  C_3
REMARK    3  A    between atoms: C_2  and  C_14
REMARK    4  A    between atoms: C_3  and  N_4
REMARK    5  A    between atoms: C_8  and  C_9
REMARK                            x       y       z     vdW  Elec       q    Type
REMARK                         _______ _______ _______ _____ _____    ______ ____
ROOT
ATOM      1  N   UNL     1      44.351   5.221   9.761  0.00  0.00    +0.000 N 
ATOM      2  C   UNL     1      45.004   4.144   9.144  0.00  0.00    +0.000 A 
ATOM      3  C   UNL     1      45.965   4.409   8.174  0.00  0.00    +0.000 A 
ATOM      4  C   UNL     1      46.628   3.347   7.551  0.00  0.00    +0.000 A 
ATOM      5  C   UNL     1      46.322   2.036   7.914  0.00  0.00    +0.000 A 
ATOM      6  C   UNL     1      45.338   1.863   8.872  0.00  0.00    +0.000 A 
ATOM      7  N   UNL     1      44.680   2.878   9.481  0.00  0.00    +0.000 NA
ATOM      8  H   UNL     1      45.051   5.841  10.162  0.00  0.00    +0.000 HD
ENDROOT
BRANCH   5   9
ATOM      9  C   UNL     1      47.040   0.908   7.273  0.00  0.00    +0.000 C 
ATOM     10  N   UNL     1      46.753  -0.370   7.660  0.00  0.00    +0.000 N 
ATOM     11  O   UNL     1      47.892   1.109   6.415  0.00  0.00    +0.000 OA
ATOM     12  H   UNL     1      46.094  -0.647   8.370  0.00  0.00    +0.000 HD
ATOM     13  H   UNL     1      47.282  -1.108   7.206  0.00  0.00    +0.000 HD
ENDBRANCH   5   9
BRANCH   1  14
ATOM     14  C   UNL     1      43.378   4.809  10.768  0.00  0.00    +0.000 C 
BRANCH  14  16
ATOM     15  C   UNL     1      43.305   4.425  13.309  0.00  0.00    +0.000 C 
ATOM     16  C   UNL     1      44.031   4.950  12.112  0.00  0.00    +0.000 C 
BRANCH  16  17
ATOM     17  C   UNL     1      45.131   5.913  12.260  0.00  0.00    +0.000 A 
ATOM     18  C   UNL     1      44.878   7.292  12.263  0.00  0.00    +0.000 A 
ATOM     19  C   UNL     1      45.904   8.204  12.524  0.00  0.00    +0.000 A 
ATOM     20  C   UNL     1      47.193   7.745  12.783  0.00  0.00    +0.000 A 
ATOM     21  C   UNL     1      47.464   6.379  12.743  0.00  0.00    +0.000 A 
ATOM     22  C   UNL     1      46.441   5.469  12.470  0.00  0.00    +0.000 A 
ENDBRANCH  16  17
ENDBRANCH  14  16
ENDBRANCH   1  14
TORSDOF 4
ENDMDL
MODEL 4
REMARK VINA RESULT:    -7.118      2.985      6.428
REMARK INTER + INTRA:          -9.385
REMARK INTER:                  -8.950
REMARK INTRA:                  -0.435
REMARK UNBOUND:                -0.603
REMARK  Name = 
REMARK  5 active torsions:
REMARK  status: ('A' for Active; 'I' for Inactive)
REMARK    1  A    between atoms: C_1  and  C_2
REMARK    2  A    between atoms: C_2  and  C_3
REMARK    3  A    between atoms: C_2  and  C_14
REMARK    4  A    between atoms: C_3  and  N_4
REMARK    5  A    between atoms: C_8  and  C_9
REMARK                            x       y       z     vdW  Elec       q    Type
REMARK                         _______ _______ _______ _____ _____    ______ ____
ROOT
ATOM      1  N   UNL     1      43.817   4.743  10.307  0.00  0.00    +0.000 N 
ATOM      2  C   UNL     1      44.722   5.461  11.102  0.00  0.00    +0.000 A 
ATOM      3  C   UNL     1      44.382   5.735  12.424  0.00  0.00    +0.000 A 
ATOM      4  C   UNL     1      45.274   6.447  13.232  0.00  0.00    +0.000 A 
ATOM      5  C   UNL     1      46.494   6.870  12.705  0.00  0.00    +0.000 A 
ATOM      6  C   UNL     1      46.741   6.573  11.377  0.00  0.00    +0.000 A 
ATOM      7  N   UNL     1      45.888   5.891  10.576  0.00  0.00    +0.000 NA
ATOM      8  H   UNL     1      43.600   3.865  10.772  0.00  0.00    +0.000 HD
ENDROOT
BRANCH   5   9
ATOM      9  C   UNL     1      47.453   7.604  13.567  0.00  0.00    +0.000 C 
ATOM     10  N   UNL     1      47.023   8.702  14.256  0.00  0.00    +0.000 N 
ATOM     11  O   UNL     1      48.621   7.246  13.657  0.00  0.00    +0.000 OA
ATOM     12  H   UNL     1      46.096   9.098  14.235  0.00  0.00    +0.000 HD
ATOM     13  H   UNL     1      47.718   9.182  14.819  0.00  0.00    +0.000 HD
ENDBRANCH   5   9
BRANCH   1  14
ATOM     14  C   UNL     1      44.298   4.511   8.948  0.00  0.00    +0.000 C 
BRANCH  14  16
ATOM     15  C   UNL     1      44.234   2.135   9.927  0.00  0.00    +0.000 C 
ATOM     16  C   UNL     1      44.684   3.064   8.846  0.00  0.00    +0.000 C 
BRANCH  16  17
ATOM     17  C   UNL     1      45.782   2.693   7.941  0.00  0.00    +0.000 A 
ATOM     18  C   UNL     1      46.419   1.450   8.062  0.00  0.00    +0.000 A 
ATOM     19  C   UNL     1      47.376   1.047   7.128  0.00  0.00    +0.000 A 
ATOM     20  C   UNL     1      47.708   1.884   6.066  0.00  0.00    +0.000 A 
ATOM     21  C   UNL     1      47.110   3.138   5.958  0.00  0.00    +0.000 A 
ATOM     22  C   UNL     1      46.161   3.545   6.899  0.00  0.00    +0.000 A 
ENDBRANCH  16  17
ENDBRANCH  14  16
ENDBRANCH   1  14
TORSDOF 4
ENDMDL
MODEL 5
REMARK VINA RESULT:    -6.707      3.180      5.869
REMARK INTER + INTRA:          -8.879
REMARK INTER:                  -8.281
REMARK INTRA:                  -0.598
REMARK UNBOUND:                -0.603
REMARK  Name = 
REMARK  5 active torsions:
REMARK  status: ('A' for Active; 'I' for Inactive)
REMARK    1  A    between atoms: C_1  and  C_2
REMARK    2  A    between atoms: C_2  and  C_3
REMARK    3  A    between atoms: C_2  and  C_14
REMARK    4  A    between atoms: C_3  and  N_4
REMARK    5  A    between atoms: C_8  and  C_9
REMARK                            x       y       z     vdW  Elec       q    Type
REMARK                         _______ _______ _______ _____ _____    ______ ____
ROOT
ATOM      1  N   UNL     1      44.691   4.931  12.524  0.00  0.00    +0.000 N 
ATOM      2  C   UNL     1      45.917   5.608  12.590  0.00  0.00    +0.000 A 
ATOM      3  C   UNL     1      46.641   5.571  13.778  0.00  0.00    +0.000 A 
ATOM      4  C   UNL     1      47.867   6.237  13.860  0.00  0.00    +0.000 A 
ATOM      5  C   UNL     1      48.352   6.927  12.750  0.00  0.00    +0.000 A 
ATOM      6  C   UNL     1      47.558   6.931  11.617  0.00  0.00    +0.000 A 
ATOM      7  N   UNL     1      46.365   6.298  11.520  0.00  0.00    +0.000 NA
ATOM      8  H   UNL     1      44.841   3.958  12.778  0.00  0.00    +0.000 HD
ENDROOT
BRANCH   5   9
ATOM      9  C   UNL     1      49.664   7.615  12.827  0.00  0.00    +0.000 C 
ATOM     10  N   UNL     1      50.585   7.404  11.840  0.00  0.00    +0.000 N 
ATOM     11  O   UNL     1      49.934   8.356  13.765  0.00  0.00    +0.000 OA
ATOM     12  H   UNL     1      50.479   6.798  11.042  0.00  0.00    +0.000 HD
ATOM     13  H   UNL     1      51.474   7.882  11.944  0.00  0.00    +0.000 HD
ENDBRANCH   5   9
BRANCH   1  14
ATOM     14  C   UNL     1      44.040   5.037  11.221  0.00  0.00    +0.000 C 
BRANCH  14  16
ATOM     15  C   UNL     1      43.355   2.574  11.483  0.00  0.00    +0.000 C 
ATOM     16  C   UNL     1      43.956   3.654  10.644  0.00  0.00    +0.000 C 
BRANCH  16  17
ATOM     17  C   UNL     1      44.793   3.328   9.479  0.00  0.00    +0.000 A 
ATOM     18  C   UNL     1      45.330   4.346   8.678  0.00  0.00    +0.000 A 
ATOM     19  C   UNL     1      46.223   4.043   7.647  0.00  0.00    +0.000 A 
ATOM     20  C   UNL     1      46.584   2.720   7.405  0.00  0.00    +0.000 A 
ATOM     21  C   UNL     1      46.025   1.698   8.169  0.00  0.00    +0.000 A 
ATOM     22  C   UNL     1      45.124   2.000   9.193  0.00  0.00    +0.000 A 
ENDBRANCH  16  17
ENDBRANCH  14  16
ENDBRANCH   1  14
TORSDOF 4
ENDMDL
MODEL 6
REMARK VINA RESULT:    -6.356      4.358      6.346
REMARK INTER + INTRA:          -8.445
REMARK INTER:                  -8.056
REMARK INTRA:                  -0.389
REMARK UNBOUND:                -0.603
REMARK  Name = 
REMARK  5 active torsions:
REMARK  status: ('A' for Active; 'I' for Inactive)
REMARK    1  A    between atoms: C_1  and  C_2
REMARK    2  A    between atoms: C_2  and  C_3
REMARK    3  A    between atoms: C_2  and  C_14
REMARK    4  A    between atoms: C_3  and  N_4
REMARK    5  A    between atoms: C_8  and  C_9
REMARK                            x       y       z     vdW  Elec       q    Type
REMARK                         _______ _______ _______ _____ _____    ______ ____
ROOT
ATOM      1  N   UNL     1      47.409   5.108  15.210  0.00  0.00    +0.000 N 
ATOM      2  C   UNL     1      46.708   5.051  13.997  0.00  0.00    +0.000 A 
ATOM      3  C   UNL     1      46.860   6.091  13.084  0.00  0.00    +0.000 A 
ATOM      4  C   UNL     1      46.172   6.048  11.868  0.00  0.00    +0.000 A 
ATOM      5  C   UNL     1      45.345   4.962  11.582  0.00  0.00    +0.000 A 
ATOM      6  C   UNL     1      45.235   3.984  12.554  0.00  0.00    +0.000 A 
ATOM      7  N   UNL     1      45.888   4.010  13.741  0.00  0.00    +0.000 NA
ATOM      8  H   UNL     1      48.400   5.218  15.010  0.00  0.00    +0.000 HD
ENDROOT
BRANCH   5   9
ATOM      9  C   UNL     1      44.633   4.902  10.283  0.00  0.00    +0.000 C 
ATOM     10  N   UNL     1      45.341   5.064   9.126  0.00  0.00    +0.000 N 
ATOM     11  O   UNL     1      43.421   4.722  10.236  0.00  0.00    +0.000 OA
ATOM     12  H   UNL     1      46.330   5.242   9.050  0.00  0.00    +0.000 HD
ATOM     13  H   UNL     1      44.809   5.031   8.263  0.00  0.00    +0.000 HD
ENDBRANCH   5   9
BRANCH   1  14
ATOM     14  C   UNL     1      47.173   3.952  16.070  0.00  0.00    +0.000 C 
BRANCH  14  16
ATOM     15  C   UNL     1      47.514   5.174  18.306  0.00  0.00    +0.000 C 
ATOM     16  C   UNL     1      47.978   4.149  17.322  0.00  0.00    +0.000 C 
BRANCH  16  17
ATOM     17  C   UNL     1      49.356   3.638  17.357  0.00  0.00    +0.000 A 
ATOM     18  C   UNL     1      50.422   4.481  17.703  0.00  0.00    +0.000 A 
ATOM     19  C   UNL     1      51.713   3.969  17.855  0.00  0.00    +0.000 A 
ATOM     20  C   UNL     1      51.951   2.611  17.661  0.00  0.00    +0.000 A 
ATOM     21  C   UNL     1      50.907   1.772  17.279  0.00  0.00    +0.000 A 
ATOM     22  C   UNL     1      49.618   2.286  17.115  0.00  0.00    +0.000 A 
ENDBRANCH  16  17
ENDBRANCH  14  16
ENDBRANCH   1  14
TORSDOF 4
ENDMDL
MODEL 7
REMARK VINA RESULT:    -6.145      3.790      6.871
REMARK INTER + INTRA:          -8.185
REMARK INTER:                  -7.815
REMARK INTRA:                  -0.370
REMARK UNBOUND:                -0.603
REMARK  Name = 
REMARK  5 active torsions:
REMARK  status: ('A' for Active; 'I' for Inactive)
REMARK    1  A    between atoms: C_1  and  C_2
REMARK    2  A    between atoms: C_2  and  C_3
REMARK    3  A    between atoms: C_2  and  C_14
REMARK    4  A    between atoms: C_3  and  N_4
REMARK    5  A    between atoms: C_8  and  C_9
REMARK                            x       y       z     vdW  Elec       q    Type
REMARK                         _______ _______ _______ _____ _____    ______ ____
ROOT
ATOM      1  N   UNL     1      45.517   3.864  12.764  0.00  0.00    +0.000 N 
ATOM      2  C   UNL     1      46.404   4.575  13.584  0.00  0.00    +0.000 A 
ATOM      3  C   UNL     1      46.798   4.012  14.794  0.00  0.00    +0.000 A 
ATOM      4  C   UNL     1      47.685   4.707  15.622  0.00  0.00    +0.000 A 
ATOM      5  C   UNL     1      48.167   5.952  15.224  0.00  0.00    +0.000 A 
ATOM      6  C   UNL     1      47.707   6.447  14.016  0.00  0.00    +0.000 A 
ATOM      7  N   UNL     1      46.843   5.794  13.204  0.00  0.00    +0.000 NA
ATOM      8  H   UNL     1      45.910   2.945  12.577  0.00  0.00    +0.000 HD
ENDROOT
BRANCH   5   9
ATOM      9  C   UNL     1      49.127   6.681  16.089  0.00  0.00    +0.000 C 
ATOM     10  N   UNL     1      48.687   7.747  16.820  0.00  0.00    +0.000 N 
ATOM     11  O   UNL     1      50.305   6.347  16.145  0.00  0.00    +0.000 OA
ATOM     12  H   UNL     1      47.752   8.123  16.830  0.00  0.00    +0.000 HD
ATOM     13  H   UNL     1      49.383   8.225  17.384  0.00  0.00    +0.000 HD
ENDBRANCH   5   9
BRANCH   1  14
ATOM     14  C   UNL     1      45.195   4.557  11.520  0.00  0.00    +0.000 C 
BRANCH  14  16
ATOM     15  C   UNL     1      43.468   2.684  11.177  0.00  0.00    +0.000 C 
ATOM     16  C   UNL     1      44.532   3.566  10.608  0.00  0.00    +0.000 C 
BRANCH  16  17
ATOM     17  C   UNL     1      45.196   3.227   9.341  0.00  0.00    +0.000 A 
ATOM     18  C   UNL     1      45.563   4.232   8.435  0.00  0.00    +0.000 A 
ATOM     19  C   UNL     1      46.301   3.923   7.290  0.00  0.00    +0.000 A 
ATOM     20  C   UNL     1      46.676   2.606   7.038  0.00  0.00    +0.000 A 
ATOM     21  C   UNL     1      46.283   1.594   7.910  0.00  0.00    +0.000 A 
ATOM     22  C   UNL     1      45.535   1.902   9.049  0.00  0.00    +0.000 A 
ENDBRANCH  16  17
ENDBRANCH  14  16
ENDBRANCH   1  14
TORSDOF 4
ENDMDL
MODEL 8
REMARK VINA RESULT:    -6.133      4.281      7.322
REMARK INTER + INTRA:          -8.170
REMARK INTER:                  -7.806
REMARK INTRA:                  -0.364
REMARK UNBOUND:                -0.603
REMARK  Name = 
REMARK  5 active torsions:
REMARK  status: ('A' for Active; 'I' for Inactive)
REMARK    1  A    between atoms: C_1  and  C_2
REMARK    2  A    between atoms: C_2  and  C_3
REMARK    3  A    between atoms: C_2  and  C_14
REMARK    4  A    between atoms: C_3  and  N_4
REMARK    5  A    between atoms: C_8  and  C_9
REMARK                            x       y       z     vdW  Elec       q    Type
REMARK                         _______ _______ _______ _____ _____    ______ ____
ROOT
ATOM      1  N   UNL     1      46.225   5.519  12.869  0.00  0.00    +0.000 N 
ATOM      2  C   UNL     1      46.904   5.313  14.078  0.00  0.00    +0.000 A 
ATOM      3  C   UNL     1      47.871   6.235  14.471  0.00  0.00    +0.000 A 
ATOM      4  C   UNL     1      48.555   6.046  15.675  0.00  0.00    +0.000 A 
ATOM      5  C   UNL     1      48.257   4.941  16.470  0.00  0.00    +0.000 A 
ATOM      6  C   UNL     1      47.299   4.064  15.994  0.00  0.00    +0.000 A 
ATOM      7  N   UNL     1      46.631   4.224  14.827  0.00  0.00    +0.000 NA
ATOM      8  H   UNL     1      45.800   6.443  12.886  0.00  0.00    +0.000 HD
ENDROOT
BRANCH   5   9
ATOM      9  C   UNL     1      48.964   4.751  17.761  0.00  0.00    +0.000 C 
ATOM     10  N   UNL     1      48.807   3.576  18.440  0.00  0.00    +0.000 N 
ATOM     11  O   UNL     1      49.672   5.635  18.228  0.00  0.00    +0.000 OA
ATOM     12  H   UNL     1      48.231   2.797  18.163  0.00  0.00    +0.000 HD
ATOM     13  H   UNL     1      49.296   3.499  19.325  0.00  0.00    +0.000 HD
ENDBRANCH   5   9
BRANCH   1  14
ATOM     14  C   UNL     1      45.230   4.490  12.581  0.00  0.00    +0.000 C 
BRANCH  14  16
ATOM     15  C   UNL     1      43.273   5.604  11.341  0.00  0.00    +0.000 C 
ATOM     16  C   UNL     1      44.565   4.855  11.285  0.00  0.00    +0.000 C 
BRANCH  16  17
ATOM     17  C   UNL     1      44.976   4.149  10.063  0.00  0.00    +0.000 A 
ATOM     18  C   UNL     1      45.620   4.836   9.024  0.00  0.00    +0.000 A 
ATOM     19  C   UNL     1      46.120   4.144   7.917  0.00  0.00    +0.000 A 
ATOM     20  C   UNL     1      45.977   2.762   7.837  0.00  0.00    +0.000 A 
ATOM     21  C   UNL     1      45.304   2.075   8.845  0.00  0.00    +0.000 A 
ATOM     22  C   UNL     1      44.795   2.767   9.946  0.00  0.00    +0.000 A 
ENDBRANCH  16  17
ENDBRANCH  14  16
ENDBRANCH   1  14
TORSDOF 4
ENDMDL
MODEL 9
REMARK VINA RESULT:    -5.817      4.622      7.418
REMARK INTER + INTRA:          -7.781
REMARK INTER:                  -7.256
REMARK INTRA:                  -0.525
REMARK UNBOUND:                -0.603
REMARK  Name = 
REMARK  5 active torsions:
REMARK  status: ('A' for Active; 'I' for Inactive)
REMARK    1  A    between atoms: C_1  and  C_2
REMARK    2  A    between atoms: C_2  and  C_3
REMARK    3  A    between atoms: C_2  and  C_14
REMARK    4  A    between atoms: C_3  and  N_4
REMARK    5  A    between atoms: C_8  and  C_9
REMARK                            x       y       z     vdW  Elec       q    Type
REMARK                         _______ _______ _______ _____ _____    ______ ____
ROOT
ATOM      1  N   UNL     1      48.366   7.072  13.688  0.00  0.00    +0.000 N 
ATOM      2  C   UNL     1      48.166   6.120  14.698  0.00  0.00    +0.000 A 
ATOM      3  C   UNL     1      48.608   6.404  15.986  0.00  0.00    +0.000 A 
ATOM      4  C   UNL     1      48.412   5.467  17.005  0.00  0.00    +0.000 A 
ATOM      5  C   UNL     1      47.773   4.262  16.719  0.00  0.00    +0.000 A 
ATOM      6  C   UNL     1      47.385   4.052  15.408  0.00  0.00    +0.000 A 
ATOM      7  N   UNL     1      47.572   4.944  14.405  0.00  0.00    +0.000 NA
ATOM      8  H   UNL     1      47.952   7.953  13.983  0.00  0.00    +0.000 HD
ENDROOT
BRANCH   5   9
ATOM      9  C   UNL     1      47.543   3.276  17.803  0.00  0.00    +0.000 C 
ATOM     10  N   UNL     1      48.397   3.246  18.869  0.00  0.00    +0.000 N 
ATOM     11  O   UNL     1      46.609   2.485  17.748  0.00  0.00    +0.000 OA
ATOM     12  H   UNL     1      49.208   3.829  19.004  0.00  0.00    +0.000 HD
ATOM     13  H   UNL     1      48.209   2.544  19.577  0.00  0.00    +0.000 HD
ENDBRANCH   5   9
BRANCH   1  14
ATOM     14  C   UNL     1      47.845   6.658  12.389  0.00  0.00    +0.000 C 
BRANCH  14  16
ATOM     15  C   UNL     1      46.225   8.613  12.791  0.00  0.00    +0.000 C 
ATOM     16  C   UNL     1      46.470   7.243  12.246  0.00  0.00    +0.000 C 
BRANCH  16  17
ATOM     17  C   UNL     1      45.350   6.338  11.947  0.00  0.00    +0.000 A 
ATOM     18  C   UNL     1      45.253   5.712  10.696  0.00  0.00    +0.000 A 
ATOM     19  C   UNL     1      44.259   4.759  10.453  0.00  0.00    +0.000 A 
ATOM     20  C   UNL     1      43.354   4.427  11.457  0.00  0.00    +0.000 A 
ATOM     21  C   UNL     1      43.417   5.072  12.690  0.00  0.00    +0.000 A 
ATOM     22  C   UNL     1      44.403   6.032  12.929  0.00  0.00    +0.000 A 
ENDBRANCH  16  17
ENDBRANCH  14  16
ENDBRANCH   1  14
TORSDOF 4
ENDMDL
