MODEL 1
REMARK VINA RESULT:    -8.011      0.000      0.000
REMARK INTER + INTRA:         -11.776
REMARK INTER:                 -10.821
REMARK INTRA:                  -0.954
REMARK UNBOUND:                -0.954
REMARK  Name = 
REMARK  7 active torsions:
REMARK  status: ('A' for Active; 'I' for Inactive)
REMARK    1  A    between atoms: C_1  and  C_2
REMARK    2  A    between atoms: C_2  and  C_3
REMARK    3  A    between atoms: C_7  and  C_8
REMARK    4  A    between atoms: C_8  and  C_9
REMARK    5  A    between atoms: C_9  and  N_10
REMARK    6  A    between atoms: N_10  and  C_11
REMARK    7  A    between atoms: C_14  and  C_15
REMARK                            x       y       z     vdW  Elec       q    Type
REMARK                         _______ _______ _______ _____ _____    ______ ____
ROOT
ATOM      1  C   UNL     1      43.273   4.542  11.146  0.00  0.00    +0.000 C 
ENDROOT
BRANCH   1   2
ATOM      2  N   UNL     1      43.748   4.929   9.811  0.00  0.00    +0.000 N 
ATOM      3  H   UNL     1      44.157   5.863   9.800  0.00  0.00    +0.000 HD
BRANCH   2   4
ATOM      4  C   UNL     1      44.566   3.996   9.145  0.00  0.00    +0.000 A 
ATOM      5  C   UNL     1      45.559   4.369   8.233  0.00  0.00    +0.000 A 
ATOM      6  C   UNL     1      46.384   3.414   7.640  0.00  0.00    +0.000 A 
ATOM      7  C   UNL     1      46.216   2.088   8.000  0.00  0.00    +0.000 A 
ATOM      8  N   UNL     1      45.302   1.664   8.915  0.00  0.00    +0.000 NA
ATOM      9  C   UNL     1      44.524   2.634   9.468  0.00  0.00    +0.000 A 
BRANCH   7  10
ATOM     10  C   UNL     1      47.092   1.050   7.370  0.00  0.00    +0.000 C 
ATOM     11  N   UNL     1      46.788  -0.246   7.683  0.00  0.00    +0.000 N 
ATOM     12  O   UNL     1      48.020   1.330   6.622  0.00  0.00    +0.000 OA
ATOM     13  H   UNL     1      46.021  -0.439   8.322  0.00  0.00    +0.000 HD
ATOM     14  H   UNL     1      47.351  -0.994   7.308  0.00  0.00    +0.000 HD
ENDBRANCH   7  10
ENDBRANCH   2   4
ENDBRANCH   1   2
BRANCH   1  15
ATOM     15  C   UNL     1      43.625   5.586  12.213  0.00  0.00    +0.000 C 
BRANCH  15  20
ATOM     16  C   UNL     1      47.284   6.435  12.978  0.00  0.00    +0.000 A 
ATOM     17  C   UNL     1      47.676   5.243  13.617  0.00  0.00    +0.000 A 
ATOM     18  C   UNL     1      46.797   4.168  13.762  0.00  0.00    +0.000 A 
ATOM     19  C   UNL     1      45.496   4.260  13.278  0.00  0.00    +0.000 A 
ATOM     20  C   UNL     1      45.074   5.422  12.625  0.00  0.00    +0.000 A 
ATOM     21  C   UNL     1      45.979   6.488  12.462  0.00  0.00    +0.000 A 
BRANCH  16  23
ATOM     22  C   UNL     1      48.723   7.848  11.504  0.00  0.00    +0.000 C 
ATOM     23  C   UNL     1      48.248   7.637  12.954  0.00  0.00    +0.000 C 
ATOM     24  C   UNL     1      47.587   8.895  13.530  0.00  0.00    +0.000 C 
ATOM     25  C   UNL     1      48.019   8.928  14.990  0.00  0.00    +0.000 C 
ATOM     26  O   UNL     1      49.045   7.947  15.171  0.00  0.00    +0.000 OA
ATOM     27  C   UNL     1      49.479   7.545  13.868  0.00  0.00    +0.000 C 
ENDBRANCH  16  23
ENDBRANCH  15  20
ENDBRANCH   1  15
TORSDOF 6
ENDMDL
MODEL 2
REMARK VINA RESULT:    -7.834      2.528      3.643
REMARK INTER + INTRA:         -11.536
REMARK INTER:                 -10.806
REMARK INTRA:                  -0.731
REMARK UNBOUND:                -0.954
REMARK  Name = 
REMARK  7 active torsions:
REMARK  status: ('A' for Active; 'I' for Inactive)
REMARK    1  A    between atoms: C_1  and  C_2
REMARK    2  A    between atoms: C_2  and  C_3
REMARK    3  A    between atoms: C_7  and  C_8
REMARK    4  A    between atoms: C_8  and  C_9
REMARK    5  A    between atoms: C_9  and  N_10
REMARK    6  A    between atoms: N_10  and  C_11
REMARK    7  A    between atoms: C_14  and  C_15
REMARK                            x       y       z     vdW  Elec       q    Type
REMARK                         _______ _______ _______ _____ _____    ______ ____
ROOT
ATOM      1  C   UNL     1      44.592   4.764  11.832  0.00  0.00    +0.000 C 
ENDROOT
BRANCH   1   2
ATOM      2  N   UNL     1      43.959   4.074  10.700  0.00  0.00    +0.000 N 
ATOM      3  H   UNL     1      43.176   4.599  10.313  0.00  0.00    +0.000 HD
BRANCH   2   4
ATOM      4  C   UNL     1      44.824   3.612   9.689  0.00  0.00    +0.000 A 
ATOM      5  C   UNL     1      45.056   2.253   9.448  0.00  0.00    +0.000 A 
ATOM      6  C   UNL     1      45.875   1.840   8.399  0.00  0.00    +0.000 A 
ATOM      7  C   UNL     1      46.431   2.807   7.580  0.00  0.00    +0.000 A 
ATOM      8  N   UNL     1      46.207   4.142   7.730  0.00  0.00    +0.000 NA
ATOM      9  C   UNL     1      45.398   4.494   8.765  0.00  0.00    +0.000 A 
BRANCH   7  10
ATOM     10  C   UNL     1      47.315   2.381   6.450  0.00  0.00    +0.000 C 
ATOM     11  N   UNL     1      47.293   3.187   5.346  0.00  0.00    +0.000 N 
ATOM     12  O   UNL     1      48.018   1.379   6.500  0.00  0.00    +0.000 OA
ATOM     13  H   UNL     1      46.683   4.001   5.336  0.00  0.00    +0.000 HD
ATOM     14  H   UNL     1      47.851   2.946   4.542  0.00  0.00    +0.000 HD
ENDBRANCH   7  10
ENDBRANCH   2   4
ENDBRANCH   1   2
BRANCH   1  15
ATOM     15  C   UNL     1      45.543   3.848  12.612  0.00  0.00    +0.000 C 
BRANCH  15  20
ATOM     16  C   UNL     1      47.605   4.928  15.658  0.00  0.00    +0.000 A 
ATOM     17  C   UNL     1      48.251   6.058  15.119  0.00  0.00    +0.000 A 
ATOM     18  C   UNL     1      47.998   6.492  13.816  0.00  0.00    +0.000 A 
ATOM     19  C   UNL     1      47.096   5.803  13.013  0.00  0.00    +0.000 A 
ATOM     20  C   UNL     1      46.424   4.685  13.517  0.00  0.00    +0.000 A 
ATOM     21  C   UNL     1      46.669   4.273  14.841  0.00  0.00    +0.000 A 
BRANCH  16  23
ATOM     22  C   UNL     1      47.194   5.182  18.108  0.00  0.00    +0.000 C 
ATOM     23  C   UNL     1      48.011   4.414  17.052  0.00  0.00    +0.000 C 
ATOM     24  C   UNL     1      47.816   2.897  17.167  0.00  0.00    +0.000 C 
ATOM     25  C   UNL     1      49.184   2.304  16.854  0.00  0.00    +0.000 C 
ATOM     26  O   UNL     1      50.135   3.373  16.831  0.00  0.00    +0.000 OA
ATOM     27  C   UNL     1      49.501   4.516  17.412  0.00  0.00    +0.000 C 
ENDBRANCH  16  23
ENDBRANCH  15  20
ENDBRANCH   1  15
TORSDOF 6
ENDMDL
MODEL 3
REMARK VINA RESULT:    -7.496      1.489      2.325
REMARK INTER + INTRA:         -11.080
REMARK INTER:                 -10.206
REMARK INTRA:                  -0.874
REMARK UNBOUND:                -0.954
REMARK  Name = 
REMARK  7 active torsions:
REMARK  status: ('A' for Active; 'I' for Inactive)
REMARK    1  A    between atoms: C_1  and  C_2
REMARK    2  A    between atoms: C_2  and  C_3
REMARK    3  A    between atoms: C_7  and  C_8
REMARK    4  A    between atoms: C_8  and  C_9
REMARK    5  A    between atoms: C_9  and  N_10
REMARK    6  A    between atoms: N_10  and  C_11
REMARK    7  A    between atoms: C_14  and  C_15
REMARK                            x       y       z     vdW  Elec       q    Type
REMARK                         _______ _______ _______ _____ _____    ______ ____
ROOT
ATOM      1  C   UNL     1      44.377   5.361  11.216  0.00  0.00    +0.000 C 
ENDROOT
BRANCH   1   2
ATOM      2  N   UNL     1      43.747   4.552  10.164  0.00  0.00    +0.000 N 
ATOM      3  H   UNL     1      43.058   5.078   9.629  0.00  0.00    +0.000 HD
BRANCH   2   4
ATOM      4  C   UNL     1      44.619   3.832   9.324  0.00  0.00    +0.000 A 
ATOM      5  C   UNL     1      45.493   4.451   8.425  0.00  0.00    +0.000 A 
ATOM      6  C   UNL     1      46.380   3.701   7.654  0.00  0.00    +0.000 A 
ATOM      7  C   UNL     1      46.397   2.328   7.824  0.00  0.00    +0.000 A 
ATOM      8  N   UNL     1      45.608   1.668   8.715  0.00  0.00    +0.000 NA
ATOM      9  C   UNL     1      44.763   2.444   9.447  0.00  0.00    +0.000 A 
BRANCH   7  10
ATOM     10  C   UNL     1      47.342   1.508   7.002  0.00  0.00    +0.000 C 
ATOM     11  N   UNL     1      48.480   2.148   6.597  0.00  0.00    +0.000 N 
ATOM     12  O   UNL     1      47.122   0.339   6.708  0.00  0.00    +0.000 OA
ATOM     13  H   UNL     1      48.619   3.124   6.847  0.00  0.00    +0.000 HD
ATOM     14  H   UNL     1      49.150   1.657   6.025  0.00  0.00    +0.000 HD
ENDBRANCH   7  10
ENDBRANCH   2   4
ENDBRANCH   1   2
BRANCH   1  15
ATOM     15  C   UNL     1      43.742   6.753  11.335  0.00  0.00    +0.000 C 
BRANCH  15  20
ATOM     16  C   UNL     1      47.136   8.220  12.349  0.00  0.00    +0.000 A 
ATOM     17  C   UNL     1      46.857   9.593  12.193  0.00  0.00    +0.000 A 
ATOM     18  C   UNL     1      45.592  10.042  11.812  0.00  0.00    +0.000 A 
ATOM     19  C   UNL     1      44.570   9.131  11.569  0.00  0.00    +0.000 A 
ATOM     20  C   UNL     1      44.804   7.762  11.726  0.00  0.00    +0.000 A 
ATOM     21  C   UNL     1      46.077   7.322  12.136  0.00  0.00    +0.000 A 
BRANCH  16  23
ATOM     22  C   UNL     1      49.447   8.077  11.413  0.00  0.00    +0.000 C 
ATOM     23  C   UNL     1      48.578   7.767  12.646  0.00  0.00    +0.000 C 
ATOM     24  C   UNL     1      49.123   8.433  13.915  0.00  0.00    +0.000 C 
ATOM     25  C   UNL     1      48.869   7.423  15.026  0.00  0.00    +0.000 C 
ATOM     26  O   UNL     1      48.471   6.189  14.420  0.00  0.00    +0.000 OA
ATOM     27  C   UNL     1      48.767   6.289  13.024  0.00  0.00    +0.000 C 
ENDBRANCH  16  23
ENDBRANCH  15  20
ENDBRANCH   1  15
TORSDOF 6
ENDMDL
MODEL 4
REMARK VINA RESULT:    -7.246      1.512      2.228
REMARK INTER + INTRA:         -10.742
REMARK INTER:                  -9.940
REMARK INTRA:                  -0.803
REMARK UNBOUND:                -0.954
REMARK  Name = 
REMARK  7 active torsions:
REMARK  status: ('A' for Active; 'I' for Inactive)
REMARK    1  A    between atoms: C_1  and  C_2
REMARK    2  A    between atoms: C_2  and  C_3
REMARK    3  A    between atoms: C_7  and  C_8
REMARK    4  A    between atoms: C_8  and  C_9
REMARK    5  A    between atoms: C_9  and  N_10
REMARK    6  A    between atoms: N_10  and  C_11
REMARK    7  A    between atoms: C_14  and  C_15
REMARK                            x       y       z     vdW  Elec       q    Type
REMARK                         _______ _______ _______ _____ _____    ______ ____
ROOT
ATOM      1  C   UNL     1      43.863   4.992  10.894  0.00  0.00    +0.000 C 
ENDROOT
BRANCH   1   2
ATOM      2  N   UNL     1      43.736   3.660  10.289  0.00  0.00    +0.000 N 
ATOM      3  H   UNL     1      42.801   3.489   9.920  0.00  0.00    +0.000 HD
BRANCH   2   4
ATOM      4  C   UNL     1      44.735   3.297   9.366  0.00  0.00    +0.000 A 
ATOM      5  C   UNL     1      45.169   1.978   9.195  0.00  0.00    +0.000 A 
ATOM      6  C   UNL     1      46.120   1.656   8.227  0.00  0.00    +0.000 A 
ATOM      7  C   UNL     1      46.601   2.669   7.418  0.00  0.00    +0.000 A 
ATOM      8  N   UNL     1      46.185   3.962   7.499  0.00  0.00    +0.000 NA
ATOM      9  C   UNL     1      45.254   4.226   8.455  0.00  0.00    +0.000 A 
BRANCH   7  10
ATOM     10  C   UNL     1      47.625   2.340   6.375  0.00  0.00    +0.000 C 
ATOM     11  N   UNL     1      47.636   3.159   5.280  0.00  0.00    +0.000 N 
ATOM     12  O   UNL     1      48.406   1.404   6.485  0.00  0.00    +0.000 OA
ATOM     13  H   UNL     1      46.960   3.916   5.217  0.00  0.00    +0.000 HD
ATOM     14  H   UNL     1      48.288   2.981   4.532  0.00  0.00    +0.000 HD
ENDBRANCH   7  10
ENDBRANCH   2   4
ENDBRANCH   1   2
BRANCH   1  15
ATOM     15  C   UNL     1      44.936   5.032  11.990  0.00  0.00    +0.000 C 
BRANCH  15  20
ATOM     16  C   UNL     1      47.334   7.962  12.598  0.00  0.00    +0.000 A 
ATOM     17  C   UNL     1      46.513   9.030  12.184  0.00  0.00    +0.000 A 
ATOM     18  C   UNL     1      45.200   8.820  11.759  0.00  0.00    +0.000 A 
ATOM     19  C   UNL     1      44.673   7.534  11.728  0.00  0.00    +0.000 A 
ATOM     20  C   UNL     1      45.451   6.450  12.144  0.00  0.00    +0.000 A 
ATOM     21  C   UNL     1      46.765   6.677  12.596  0.00  0.00    +0.000 A 
BRANCH  16  23
ATOM     22  C   UNL     1      49.631   8.140  11.635  0.00  0.00    +0.000 C 
ATOM     23  C   UNL     1      48.813   8.227  12.937  0.00  0.00    +0.000 C 
ATOM     24  C   UNL     1      48.992   9.579  13.638  0.00  0.00    +0.000 C 
ATOM     25  C   UNL     1      48.995   9.249  15.125  0.00  0.00    +0.000 C 
ATOM     26  O   UNL     1      49.087   7.828  15.263  0.00  0.00    +0.000 OA
ATOM     27  C   UNL     1      49.451   7.302  13.984  0.00  0.00    +0.000 C 
ENDBRANCH  16  23
ENDBRANCH  15  20
ENDBRANCH   1  15
TORSDOF 6
ENDMDL
MODEL 5
REMARK VINA RESULT:    -6.771      5.137      8.126
REMARK INTER + INTRA:         -10.100
REMARK INTER:                  -9.473
REMARK INTRA:                  -0.627
REMARK UNBOUND:                -0.954
REMARK  Name = 
REMARK  7 active torsions:
REMARK  status: ('A' for Active; 'I' for Inactive)
REMARK    1  A    between atoms: C_1  and  C_2
REMARK    2  A    between atoms: C_2  and  C_3
REMARK    3  A    between atoms: C_7  and  C_8
REMARK    4  A    between atoms: C_8  and  C_9
REMARK    5  A    between atoms: C_9  and  N_10
REMARK    6  A    between atoms: N_10  and  C_11
REMARK    7  A    between atoms: C_14  and  C_15
REMARK                            x       y       z     vdW  Elec       q    Type
REMARK                         _______ _______ _______ _____ _____    ______ ____
ROOT
ATOM      1  C   UNL     1      48.008   5.187  15.871  0.00  0.00    +0.000 C 
ENDROOT
BRANCH   1   2
ATOM      2  N   UNL     1      48.335   4.671  17.206  0.00  0.00    +0.000 N 
ATOM      3  H   UNL     1      47.528   4.257  17.672  0.00  0.00    +0.000 HD
BRANCH   2   4
ATOM      4  C   UNL     1      49.468   3.839  17.293  0.00  0.00    +0.000 A 
ATOM      5  C   UNL     1      50.701   4.280  17.786  0.00  0.00    +0.000 A 
ATOM      6  C   UNL     1      51.780   3.406  17.908  0.00  0.00    +0.000 A 
ATOM      7  C   UNL     1      51.593   2.080  17.558  0.00  0.00    +0.000 A 
ATOM      8  N   UNL     1      50.407   1.576  17.117  0.00  0.00    +0.000 NA
ATOM      9  C   UNL     1      49.384   2.468  17.020  0.00  0.00    +0.000 A 
BRANCH   7  10
ATOM     10  C   UNL     1      52.742   1.129  17.681  0.00  0.00    +0.000 C 
ATOM     11  N   UNL     1      52.440  -0.095  18.210  0.00  0.00    +0.000 N 
ATOM     12  O   UNL     1      53.880   1.415  17.331  0.00  0.00    +0.000 OA
ATOM     13  H   UNL     1      51.486  -0.290  18.505  0.00  0.00    +0.000 HD
ATOM     14  H   UNL     1      53.173  -0.777  18.338  0.00  0.00    +0.000 HD
ENDBRANCH   7  10
ENDBRANCH   2   4
ENDBRANCH   1   2
BRANCH   1  15
ATOM     15  C   UNL     1      46.939   4.342  15.168  0.00  0.00    +0.000 C 
BRANCH  15  20
ATOM     16  C   UNL     1      45.228   5.041  11.809  0.00  0.00    +0.000 A 
ATOM     17  C   UNL     1      46.057   6.075  11.331  0.00  0.00    +0.000 A 
ATOM     18  C   UNL     1      47.170   6.512  12.052  0.00  0.00    +0.000 A 
ATOM     19  C   UNL     1      47.481   5.930  13.276  0.00  0.00    +0.000 A 
ATOM     20  C   UNL     1      46.691   4.892  13.777  0.00  0.00    +0.000 A 
ATOM     21  C   UNL     1      45.586   4.442  13.028  0.00  0.00    +0.000 A 
BRANCH  16  23
ATOM     22  C   UNL     1      42.895   5.779  11.308  0.00  0.00    +0.000 C 
ATOM     23  C   UNL     1      43.942   4.681  11.041  0.00  0.00    +0.000 C 
ATOM     24  C   UNL     1      44.217   4.504   9.542  0.00  0.00    +0.000 C 
ATOM     25  C   UNL     1      44.418   3.005   9.358  0.00  0.00    +0.000 C 
ATOM     26  O   UNL     1      44.027   2.354  10.571  0.00  0.00    +0.000 OA
ATOM     27  C   UNL     1      43.315   3.315  11.356  0.00  0.00    +0.000 C 
ENDBRANCH  16  23
ENDBRANCH  15  20
ENDBRANCH   1  15
TORSDOF 6
ENDMDL
MODEL 6
REMARK VINA RESULT:    -6.619      3.550      5.652
REMARK INTER + INTRA:          -9.895
REMARK INTER:                  -9.019
REMARK INTRA:                  -0.876
REMARK UNBOUND:                -0.954
REMARK  Name = 
REMARK  7 active torsions:
REMARK  status: ('A' for Active; 'I' for Inactive)
REMARK    1  A    between atoms: C_1  and  C_2
REMARK    2  A    between atoms: C_2  and  C_3
REMARK    3  A    between atoms: C_7  and  C_8
REMARK    4  A    between atoms: C_8  and  C_9
REMARK    5  A    between atoms: C_9  and  N_10
REMARK    6  A    between atoms: N_10  and  C_11
REMARK    7  A    between atoms: C_14  and  C_15
REMARK                            x       y       z     vdW  Elec       q    Type
REMARK                         _______ _______ _______ _____ _____    ______ ____
ROOT
ATOM      1  C   UNL     1      48.247   7.162  13.503  0.00  0.00    +0.000 C 
ENDROOT
BRANCH   1   2
ATOM      2  N   UNL     1      46.785   7.214  13.631  0.00  0.00    +0.000 N 
ATOM      3  H   UNL     1      46.408   8.134  13.408  0.00  0.00    +0.000 HD
BRANCH   2   4
ATOM      4  C   UNL     1      46.066   6.188  12.988  0.00  0.00    +0.000 A 
ATOM      5  C   UNL     1      45.656   6.266  11.653  0.00  0.00    +0.000 A 
ATOM      6  C   UNL     1      44.996   5.201  11.041  0.00  0.00    +0.000 A 
ATOM      7  C   UNL     1      44.783   4.050  11.779  0.00  0.00    +0.000 A 
ATOM      8  N   UNL     1      45.199   3.891  13.066  0.00  0.00    +0.000 NA
ATOM      9  C   UNL     1      45.841   4.956  13.617  0.00  0.00    +0.000 A 
BRANCH   7  10
ATOM     10  C   UNL     1      44.074   2.898  11.138  0.00  0.00    +0.000 C 
ATOM     11  N   UNL     1      44.708   2.340  10.062  0.00  0.00    +0.000 N 
ATOM     12  O   UNL     1      42.999   2.473  11.542  0.00  0.00    +0.000 OA
ATOM     13  H   UNL     1      45.592   2.731   9.746  0.00  0.00    +0.000 HD
ATOM     14  H   UNL     1      44.275   1.572   9.573  0.00  0.00    +0.000 HD
ENDBRANCH   7  10
ENDBRANCH   2   4
ENDBRANCH   1   2
BRANCH   1  15
ATOM     15  C   UNL     1      48.951   8.076  14.514  0.00  0.00    +0.000 C 
BRANCH  15  20
ATOM     16  C   UNL     1      49.775   5.298  17.024  0.00  0.00    +0.000 A 
ATOM     17  C   UNL     1      51.165   5.492  17.145  0.00  0.00    +0.000 A 
ATOM     18  C   UNL     1      51.821   6.523  16.469  0.00  0.00    +0.000 A 
ATOM     19  C   UNL     1      51.104   7.384  15.645  0.00  0.00    +0.000 A 
ATOM     20  C   UNL     1      49.722   7.232  15.509  0.00  0.00    +0.000 A 
ATOM     21  C   UNL     1      49.068   6.205  16.217  0.00  0.00    +0.000 A 
BRANCH  16  23
ATOM     22  C   UNL     1      49.055   4.320  19.206  0.00  0.00    +0.000 C 
ATOM     23  C   UNL     1      49.119   4.072  17.687  0.00  0.00    +0.000 C 
ATOM     24  C   UNL     1      47.733   3.790  17.093  0.00  0.00    +0.000 C 
ATOM     25  C   UNL     1      47.976   2.735  16.022  0.00  0.00    +0.000 C 
ATOM     26  O   UNL     1      49.316   2.256  16.169  0.00  0.00    +0.000 OA
ATOM     27  C   UNL     1      49.793   2.715  17.437  0.00  0.00    +0.000 C 
ENDBRANCH  16  23
ENDBRANCH  15  20
ENDBRANCH   1  15
TORSDOF 6
ENDMDL
MODEL 7
REMARK VINA RESULT:    -6.345      4.747      7.697
REMARK INTER + INTRA:          -9.525
REMARK INTER:                  -8.764
REMARK INTRA:                  -0.761
REMARK UNBOUND:                -0.954
REMARK  Name = 
REMARK  7 active torsions:
REMARK  status: ('A' for Active; 'I' for Inactive)
REMARK    1  A    between atoms: C_1  and  C_2
REMARK    2  A    between atoms: C_2  and  C_3
REMARK    3  A    between atoms: C_7  and  C_8
REMARK    4  A    between atoms: C_8  and  C_9
REMARK    5  A    between atoms: C_9  and  N_10
REMARK    6  A    between atoms: N_10  and  C_11
REMARK    7  A    between atoms: C_14  and  C_15
REMARK                            x       y       z     vdW  Elec       q    Type
REMARK                         _______ _______ _______ _____ _____    ______ ____
ROOT
ATOM      1  C   UNL     1      48.595   7.895  14.970  0.00  0.00    +0.000 C 
ENDROOT
BRANCH   1   2
ATOM      2  N   UNL     1      48.275   7.361  16.300  0.00  0.00    +0.000 N 
ATOM      3  H   UNL     1      47.271   7.341  16.479  0.00  0.00    +0.000 HD
BRANCH   2   4
ATOM      4  C   UNL     1      48.889   6.143  16.648  0.00  0.00    +0.000 A 
ATOM      5  C   UNL     1      48.184   4.941  16.766  0.00  0.00    +0.000 A 
ATOM      6  C   UNL     1      48.843   3.747  17.056  0.00  0.00    +0.000 A 
ATOM      7  C   UNL     1      50.219   3.775  17.194  0.00  0.00    +0.000 A 
ATOM      8  N   UNL     1      50.970   4.900  17.044  0.00  0.00    +0.000 NA
ATOM      9  C   UNL     1      50.282   6.038  16.757  0.00  0.00    +0.000 A 
BRANCH   7  10
ATOM     10  C   UNL     1      50.943   2.502  17.507  0.00  0.00    +0.000 C 
ATOM     11  N   UNL     1      52.004   2.621  18.361  0.00  0.00    +0.000 N 
ATOM     12  O   UNL     1      50.613   1.420  17.038  0.00  0.00    +0.000 OA
ATOM     13  H   UNL     1      52.257   3.540  18.717  0.00  0.00    +0.000 HD
ATOM     14  H   UNL     1      52.546   1.805  18.599  0.00  0.00    +0.000 HD
ENDBRANCH   7  10
ENDBRANCH   2   4
ENDBRANCH   1   2
BRANCH   1  15
ATOM     15  C   UNL     1      48.528   6.818  13.880  0.00  0.00    +0.000 C 
BRANCH  15  20
ATOM     16  C   UNL     1      45.506   6.153  11.616  0.00  0.00    +0.000 A 
ATOM     17  C   UNL     1      44.951   7.448  11.574  0.00  0.00    +0.000 A 
ATOM     18  C   UNL     1      45.558   8.524  12.224  0.00  0.00    +0.000 A 
ATOM     19  C   UNL     1      46.734   8.334  12.941  0.00  0.00    +0.000 A 
ATOM     20  C   UNL     1      47.323   7.067  12.995  0.00  0.00    +0.000 A 
ATOM     21  C   UNL     1      46.716   5.995  12.313  0.00  0.00    +0.000 A 
BRANCH  16  23
ATOM     22  C   UNL     1      45.260   4.758   9.559  0.00  0.00    +0.000 C 
ATOM     23  C   UNL     1      44.735   4.975  10.991  0.00  0.00    +0.000 C 
ATOM     24  C   UNL     1      44.859   3.709  11.846  0.00  0.00    +0.000 C 
ATOM     25  C   UNL     1      43.612   3.704  12.719  0.00  0.00    +0.000 C 
ATOM     26  O   UNL     1      42.723   4.712  12.227  0.00  0.00    +0.000 OA
ATOM     27  C   UNL     1      43.205   5.109  10.940  0.00  0.00    +0.000 C 
ENDBRANCH  16  23
ENDBRANCH  15  20
ENDBRANCH   1  15
TORSDOF 6
ENDMDL
MODEL 8
REMARK VINA RESULT:    -6.064      2.419      7.157
REMARK INTER + INTRA:          -9.146
REMARK INTER:                  -8.615
REMARK INTRA:                  -0.530
REMARK UNBOUND:                -0.954
REMARK  Name = 
REMARK  7 active torsions:
REMARK  status: ('A' for Active; 'I' for Inactive)
REMARK    1  A    between atoms: C_1  and  C_2
REMARK    2  A    between atoms: C_2  and  C_3
REMARK    3  A    between atoms: C_7  and  C_8
REMARK    4  A    between atoms: C_8  and  C_9
REMARK    5  A    between atoms: C_9  and  N_10
REMARK    6  A    between atoms: N_10  and  C_11
REMARK    7  A    between atoms: C_14  and  C_15
REMARK                            x       y       z     vdW  Elec       q    Type
REMARK                         _______ _______ _______ _____ _____    ______ ____
ROOT
ATOM      1  C   UNL     1      44.106   2.823  12.447  0.00  0.00    +0.000 C 
ENDROOT
BRANCH   1   2
ATOM      2  N   UNL     1      44.021   4.068  13.221  0.00  0.00    +0.000 N 
ATOM      3  H   UNL     1      43.652   3.919  14.159  0.00  0.00    +0.000 HD
BRANCH   2   4
ATOM      4  C   UNL     1      45.178   4.871  13.239  0.00  0.00    +0.000 A 
ATOM      5  C   UNL     1      45.161   6.238  12.942  0.00  0.00    +0.000 A 
ATOM      6  C   UNL     1      46.321   7.006  13.029  0.00  0.00    +0.000 A 
ATOM      7  C   UNL     1      47.486   6.389  13.449  0.00  0.00    +0.000 A 
ATOM      8  N   UNL     1      47.561   5.076  13.800  0.00  0.00    +0.000 NA
ATOM      9  C   UNL     1      46.402   4.370  13.702  0.00  0.00    +0.000 A 
BRANCH   7  10
ATOM     10  C   UNL     1      48.742   7.199  13.547  0.00  0.00    +0.000 C 
ATOM     11  N   UNL     1      48.862   7.968  14.671  0.00  0.00    +0.000 N 
ATOM     12  O   UNL     1      49.611   7.181  12.685  0.00  0.00    +0.000 OA
ATOM     13  H   UNL     1      48.111   7.969  15.357  0.00  0.00    +0.000 HD
ATOM     14  H   UNL     1      49.675   8.552  14.790  0.00  0.00    +0.000 HD
ENDBRANCH   7  10
ENDBRANCH   2   4
ENDBRANCH   1   2
BRANCH   1  15
ATOM     15  C   UNL     1      43.477   2.960  11.055  0.00  0.00    +0.000 C 
BRANCH  15  20
ATOM     16  C   UNL     1      46.082   2.696   8.254  0.00  0.00    +0.000 A 
ATOM     17  C   UNL     1      46.316   4.065   8.018  0.00  0.00    +0.000 A 
ATOM     18  C   UNL     1      45.684   5.055   8.772  0.00  0.00    +0.000 A 
ATOM     19  C   UNL     1      44.792   4.703   9.779  0.00  0.00    +0.000 A 
ATOM     20  C   UNL     1      44.544   3.355  10.053  0.00  0.00    +0.000 A 
ATOM     21  C   UNL     1      45.208   2.365   9.304  0.00  0.00    +0.000 A 
BRANCH  16  23
ATOM     22  C   UNL     1      46.253   0.249   7.783  0.00  0.00    +0.000 C 
ATOM     23  C   UNL     1      46.704   1.645   7.315  0.00  0.00    +0.000 C 
ATOM     24  C   UNL     1      46.327   1.910   5.852  0.00  0.00    +0.000 C 
ATOM     25  C   UNL     1      47.496   2.706   5.287  0.00  0.00    +0.000 C 
ATOM     26  O   UNL     1      48.561   2.668   6.242  0.00  0.00    +0.000 OA
ATOM     27  C   UNL     1      48.236   1.654   7.197  0.00  0.00    +0.000 C 
ENDBRANCH  16  23
ENDBRANCH  15  20
ENDBRANCH   1  15
TORSDOF 6
ENDMDL
MODEL 9
REMARK VINA RESULT:    -6.019      3.583      5.700
REMARK INTER + INTRA:          -9.085
REMARK INTER:                  -8.040
REMARK INTRA:                  -1.045
REMARK UNBOUND:                -0.954
REMARK  Name = 
REMARK  7 active torsions:
REMARK  status: ('A' for Active; 'I' for Inactive)
REMARK    1  A    between atoms: C_1  and  C_2
REMARK    2  A    between atoms: C_2  and  C_3
REMARK    3  A    between atoms: C_7  and  C_8
REMARK    4  A    between atoms: C_8  and  C_9
REMARK    5  A    between atoms: C_9  and  N_10
REMARK    6  A    between atoms: N_10  and  C_11
REMARK    7  A    between atoms: C_14  and  C_15
REMARK                            x       y       z     vdW  Elec       q    Type
REMARK                         _______ _______ _______ _____ _____    ______ ____
ROOT
ATOM      1  C   UNL     1      48.951   7.249  13.101  0.00  0.00    +0.000 C 
ENDROOT
BRANCH   1   2
ATOM      2  N   UNL     1      47.609   7.521  12.568  0.00  0.00    +0.000 N 
ATOM      3  H   UNL     1      47.630   8.152  11.768  0.00  0.00    +0.000 HD
BRANCH   2   4
ATOM      4  C   UNL     1      46.796   6.398  12.323  0.00  0.00    +0.000 A 
ATOM      5  C   UNL     1      46.523   5.429  13.295  0.00  0.00    +0.000 A 
ATOM      6  C   UNL     1      45.665   4.364  13.025  0.00  0.00    +0.000 A 
ATOM      7  C   UNL     1      45.065   4.304  11.780  0.00  0.00    +0.000 A 
ATOM      8  N   UNL     1      45.249   5.238  10.808  0.00  0.00    +0.000 NA
ATOM      9  C   UNL     1      46.092   6.260  11.120  0.00  0.00    +0.000 A 
BRANCH   7  10
ATOM     10  C   UNL     1      44.142   3.165  11.474  0.00  0.00    +0.000 C 
ATOM     11  N   UNL     1      43.781   2.395  12.544  0.00  0.00    +0.000 N 
ATOM     12  O   UNL     1      43.731   2.931  10.345  0.00  0.00    +0.000 OA
ATOM     13  H   UNL     1      44.157   2.611  13.464  0.00  0.00    +0.000 HD
ATOM     14  H   UNL     1      43.176   1.600  12.403  0.00  0.00    +0.000 HD
ENDBRANCH   7  10
ENDBRANCH   2   4
ENDBRANCH   1   2
BRANCH   1  15
ATOM     15  C   UNL     1      49.282   8.128  14.314  0.00  0.00    +0.000 C 
BRANCH  15  20
ATOM     16  C   UNL     1      49.462   5.518  17.116  0.00  0.00    +0.000 A 
ATOM     17  C   UNL     1      50.858   5.469  17.305  0.00  0.00    +0.000 A 
ATOM     18  C   UNL     1      51.723   6.289  16.579  0.00  0.00    +0.000 A 
ATOM     19  C   UNL     1      51.217   7.177  15.636  0.00  0.00    +0.000 A 
ATOM     20  C   UNL     1      49.837   7.265  15.429  0.00  0.00    +0.000 A 
ATOM     21  C   UNL     1      48.973   6.452  16.187  0.00  0.00    +0.000 A 
BRANCH  16  23
ATOM     22  C   UNL     1      48.531   3.203  17.030  0.00  0.00    +0.000 C 
ATOM     23  C   UNL     1      48.560   4.507  17.849  0.00  0.00    +0.000 C 
ATOM     24  C   UNL     1      49.037   4.272  19.287  0.00  0.00    +0.000 C 
ATOM     25  C   UNL     1      48.197   5.218  20.136  0.00  0.00    +0.000 C 
ATOM     26  O   UNL     1      47.153   5.744  19.311  0.00  0.00    +0.000 OA
ATOM     27  C   UNL     1      47.115   4.951  18.121  0.00  0.00    +0.000 C 
ENDBRANCH  16  23
ENDBRANCH  15  20
ENDBRANCH   1  15
TORSDOF 6
ENDMDL
