MODEL 1
REMARK VINA RESULT:    -7.133      0.000      0.000
REMARK INTER + INTRA:          -9.326
REMARK INTER:                  -8.800
REMARK INTRA:                  -0.526
REMARK UNBOUND:                -0.526
REMARK  Name = 
REMARK  4 active torsions:
REMARK  status: ('A' for Active; 'I' for Inactive)
REMARK    1  A    between atoms: C_2  and  C_3
REMARK    2  A    between atoms: C_6  and  N_7
REMARK    3  A    between atoms: N_7  and  C_8
REMARK    4  A    between atoms: C_8  and  C_9
REMARK                            x       y       z     vdW  Elec       q    Type
REMARK                         _______ _______ _______ _____ _____    ______ ____
ROOT
ATOM      1  N   UNL     1      43.717   3.862  10.354  0.00  0.00    +0.000 N 
ATOM      2  H   UNL     1      43.687   3.185  11.115  0.00  0.00    +0.000 HD
ENDROOT
BRANCH   1   6
ATOM      3  C   UNL     1      46.559   2.502   7.534  0.00  0.00    +0.000 A 
ATOM      4  C   UNL     1      46.247   3.863   7.590  0.00  0.00    +0.000 A 
ATOM      5  C   UNL     1      45.304   4.336   8.514  0.00  0.00    +0.000 A 
ATOM      6  C   UNL     1      44.642   3.460   9.380  0.00  0.00    +0.000 A 
ATOM      7  C   UNL     1      45.009   2.108   9.351  0.00  0.00    +0.000 A 
ATOM      8  C   UNL     1      45.941   1.625   8.424  0.00  0.00    +0.000 A 
BRANCH   3  10
ATOM      9  N   UNL     1      48.276   1.622   5.796  0.00  0.00    +0.000 NA
ATOM     10  C   UNL     1      47.507   2.015   6.575  0.00  0.00    +0.000 C 
ENDBRANCH   3  10
ENDBRANCH   1   6
BRANCH   1  11
ATOM     11  C   UNL     1      43.807   5.226  10.869  0.00  0.00    +0.000 C 
BRANCH  11  12
ATOM     12  C   UNL     1      44.990   5.365  11.803  0.00  0.00    +0.000 A 
ATOM     13  C   UNL     1      45.152   4.496  12.893  0.00  0.00    +0.000 A 
ATOM     14  C   UNL     1      46.281   4.579  13.710  0.00  0.00    +0.000 A 
ATOM     15  C   UNL     1      47.263   5.534  13.450  0.00  0.00    +0.000 A 
ATOM     16  C   UNL     1      47.111   6.410  12.379  0.00  0.00    +0.000 A 
ATOM     17  C   UNL     1      45.983   6.327  11.559  0.00  0.00    +0.000 A 
ENDBRANCH  11  12
ENDBRANCH   1  11
TORSDOF 4
ENDMDL
MODEL 2
REMARK VINA RESULT:    -6.923      1.926      5.758
REMARK INTER + INTRA:          -9.067
REMARK INTER:                  -8.579
REMARK INTRA:                  -0.488
REMARK UNBOUND:                -0.526
REMARK  Name = 
REMARK  4 active torsions:
REMARK  status: ('A' for Active; 'I' for Inactive)
REMARK    1  A    between atoms: C_2  and  C_3
REMARK    2  A    between atoms: C_6  and  N_7
REMARK    3  A    between atoms: N_7  and  C_8
REMARK    4  A    between atoms: C_8  and  C_9
REMARK                            x       y       z     vdW  Elec       q    Type
REMARK                         _______ _______ _______ _____ _____    ______ ____
ROOT
ATOM      1  N   UNL     1      44.622   4.814   9.506  0.00  0.00    +0.000 N 
ATOM      2  H   UNL     1      45.104   5.374   8.804  0.00  0.00    +0.000 HD
ENDROOT
BRANCH   1   6
ATOM      3  C   UNL     1      46.528   4.887  13.279  0.00  0.00    +0.000 A 
ATOM      4  C   UNL     1      46.666   5.981  12.420  0.00  0.00    +0.000 A 
ATOM      5  C   UNL     1      46.047   5.977  11.162  0.00  0.00    +0.000 A 
ATOM      6  C   UNL     1      45.300   4.876  10.731  0.00  0.00    +0.000 A 
ATOM      7  C   UNL     1      45.122   3.813  11.626  0.00  0.00    +0.000 A 
ATOM      8  C   UNL     1      45.746   3.804  12.880  0.00  0.00    +0.000 A 
BRANCH   3  10
ATOM      9  N   UNL     1      47.707   4.880  15.593  0.00  0.00    +0.000 NA
ATOM     10  C   UNL     1      47.179   4.882  14.556  0.00  0.00    +0.000 C 
ENDBRANCH   3  10
ENDBRANCH   1   6
BRANCH   1  11
ATOM     11  C   UNL     1      44.274   3.497   8.977  0.00  0.00    +0.000 C 
BRANCH  11  12
ATOM     12  C   UNL     1      45.444   2.901   8.225  0.00  0.00    +0.000 A 
ATOM     13  C   UNL     1      45.821   1.563   8.424  0.00  0.00    +0.000 A 
ATOM     14  C   UNL     1      46.855   0.995   7.677  0.00  0.00    +0.000 A 
ATOM     15  C   UNL     1      47.527   1.755   6.721  0.00  0.00    +0.000 A 
ATOM     16  C   UNL     1      47.172   3.087   6.520  0.00  0.00    +0.000 A 
ATOM     17  C   UNL     1      46.136   3.657   7.265  0.00  0.00    +0.000 A 
ENDBRANCH  11  12
ENDBRANCH   1  11
TORSDOF 4
ENDMDL
MODEL 3
REMARK VINA RESULT:    -6.813      1.968      5.817
REMARK INTER + INTRA:          -8.932
REMARK INTER:                  -8.410
REMARK INTRA:                  -0.522
REMARK UNBOUND:                -0.526
REMARK  Name = 
REMARK  4 active torsions:
REMARK  status: ('A' for Active; 'I' for Inactive)
REMARK    1  A    between atoms: C_2  and  C_3
REMARK    2  A    between atoms: C_6  and  N_7
REMARK    3  A    between atoms: N_7  and  C_8
REMARK    4  A    between atoms: C_8  and  C_9
REMARK                            x       y       z     vdW  Elec       q    Type
REMARK                         _______ _______ _______ _____ _____    ______ ____
ROOT
ATOM      1  N   UNL     1      44.235   3.697  10.489  0.00  0.00    +0.000 N 
ATOM      2  H   UNL     1      43.289   3.796  10.855  0.00  0.00    +0.000 HD
ENDROOT
BRANCH   1   6
ATOM      3  C   UNL     1      46.946   5.410  13.245  0.00  0.00    +0.000 A 
ATOM      4  C   UNL     1      46.518   6.162  12.148  0.00  0.00    +0.000 A 
ATOM      5  C   UNL     1      45.623   5.613  11.218  0.00  0.00    +0.000 A 
ATOM      6  C   UNL     1      45.158   4.301  11.354  0.00  0.00    +0.000 A 
ATOM      7  C   UNL     1      45.550   3.581  12.491  0.00  0.00    +0.000 A 
ATOM      8  C   UNL     1      46.453   4.117  13.418  0.00  0.00    +0.000 A 
BRANCH   3  10
ATOM      9  N   UNL     1      48.636   6.410  14.944  0.00  0.00    +0.000 NA
ATOM     10  C   UNL     1      47.879   5.963  14.183  0.00  0.00    +0.000 C 
ENDBRANCH   3  10
ENDBRANCH   1   6
BRANCH   1  11
ATOM     11  C   UNL     1      44.288   4.046   9.072  0.00  0.00    +0.000 C 
BRANCH  11  12
ATOM     12  C   UNL     1      45.315   3.197   8.355  0.00  0.00    +0.000 A 
ATOM     13  C   UNL     1      46.217   3.773   7.446  0.00  0.00    +0.000 A 
ATOM     14  C   UNL     1      47.210   3.000   6.840  0.00  0.00    +0.000 A 
ATOM     15  C   UNL     1      47.316   1.642   7.134  0.00  0.00    +0.000 A 
ATOM     16  C   UNL     1      46.422   1.053   8.025  0.00  0.00    +0.000 A 
ATOM     17  C   UNL     1      45.428   1.825   8.633  0.00  0.00    +0.000 A 
ENDBRANCH  11  12
ENDBRANCH   1  11
TORSDOF 4
ENDMDL
MODEL 4
REMARK VINA RESULT:    -6.796      1.907      5.984
REMARK INTER + INTRA:          -8.911
REMARK INTER:                  -8.521
REMARK INTRA:                  -0.390
REMARK UNBOUND:                -0.526
REMARK  Name = 
REMARK  4 active torsions:
REMARK  status: ('A' for Active; 'I' for Inactive)
REMARK    1  A    between atoms: C_2  and  C_3
REMARK    2  A    between atoms: C_6  and  N_7
REMARK    3  A    between atoms: N_7  and  C_8
REMARK    4  A    between atoms: C_8  and  C_9
REMARK                            x       y       z     vdW  Elec       q    Type
REMARK                         _______ _______ _______ _____ _____    ______ ____
ROOT
ATOM      1  N   UNL     1      44.882   2.602  10.766  0.00  0.00    +0.000 N 
ATOM      2  H   UNL     1      44.329   2.013  11.387  0.00  0.00    +0.000 HD
ENDROOT
BRANCH   1   6
ATOM      3  C   UNL     1      45.561   6.461  12.355  0.00  0.00    +0.000 A 
ATOM      4  C   UNL     1      45.999   5.340  13.067  0.00  0.00    +0.000 A 
ATOM      5  C   UNL     1      45.780   4.051  12.561  0.00  0.00    +0.000 A 
ATOM      6  C   UNL     1      45.104   3.856  11.353  0.00  0.00    +0.000 A 
ATOM      7  C   UNL     1      44.724   4.991  10.624  0.00  0.00    +0.000 A 
ATOM      8  C   UNL     1      44.928   6.282  11.126  0.00  0.00    +0.000 A 
BRANCH   3  10
ATOM      9  N   UNL     1      45.928   8.847  13.312  0.00  0.00    +0.000 NA
ATOM     10  C   UNL     1      45.764   7.779  12.883  0.00  0.00    +0.000 C 
ENDBRANCH   3  10
ENDBRANCH   1   6
BRANCH   1  11
ATOM     11  C   UNL     1      44.359   2.563   9.402  0.00  0.00    +0.000 C 
BRANCH  11  12
ATOM     12  C   UNL     1      45.488   2.406   8.406  0.00  0.00    +0.000 A 
ATOM     13  C   UNL     1      46.147   1.176   8.252  0.00  0.00    +0.000 A 
ATOM     14  C   UNL     1      47.139   1.014   7.282  0.00  0.00    +0.000 A 
ATOM     15  C   UNL     1      47.486   2.080   6.453  0.00  0.00    +0.000 A 
ATOM     16  C   UNL     1      46.849   3.309   6.600  0.00  0.00    +0.000 A 
ATOM     17  C   UNL     1      45.855   3.473   7.569  0.00  0.00    +0.000 A 
ENDBRANCH  11  12
ENDBRANCH   1  11
TORSDOF 4
ENDMDL
MODEL 5
REMARK VINA RESULT:    -6.443      2.041      5.576
REMARK INTER + INTRA:          -8.475
REMARK INTER:                  -7.949
REMARK INTRA:                  -0.526
REMARK UNBOUND:                -0.526
REMARK  Name = 
REMARK  4 active torsions:
REMARK  status: ('A' for Active; 'I' for Inactive)
REMARK    1  A    between atoms: C_2  and  C_3
REMARK    2  A    between atoms: C_6  and  N_7
REMARK    3  A    between atoms: N_7  and  C_8
REMARK    4  A    between atoms: C_8  and  C_9
REMARK                            x       y       z     vdW  Elec       q    Type
REMARK                         _______ _______ _______ _____ _____    ______ ____
ROOT
ATOM      1  N   UNL     1      44.108   4.149  11.144  0.00  0.00    +0.000 N 
ATOM      2  H   UNL     1      43.251   4.373  11.649  0.00  0.00    +0.000 HD
ENDROOT
BRANCH   1   6
ATOM      3  C   UNL     1      47.372   5.922  13.162  0.00  0.00    +0.000 A 
ATOM      4  C   UNL     1      46.851   6.545  12.024  0.00  0.00    +0.000 A 
ATOM      5  C   UNL     1      45.772   5.972  11.336  0.00  0.00    +0.000 A 
ATOM      6  C   UNL     1      45.210   4.762  11.756  0.00  0.00    +0.000 A 
ATOM      7  C   UNL     1      45.705   4.182  12.932  0.00  0.00    +0.000 A 
ATOM      8  C   UNL     1      46.790   4.741  13.619  0.00  0.00    +0.000 A 
BRANCH   3  10
ATOM      9  N   UNL     1      49.397   6.964  14.413  0.00  0.00    +0.000 NA
ATOM     10  C   UNL     1      48.490   6.496  13.853  0.00  0.00    +0.000 C 
ENDBRANCH   3  10
ENDBRANCH   1   6
BRANCH   1  11
ATOM     11  C   UNL     1      43.930   4.327   9.705  0.00  0.00    +0.000 C 
BRANCH  11  12
ATOM     12  C   UNL     1      44.974   3.542   8.940  0.00  0.00    +0.000 A 
ATOM     13  C   UNL     1      45.090   2.153   9.102  0.00  0.00    +0.000 A 
ATOM     14  C   UNL     1      46.005   1.420   8.342  0.00  0.00    +0.000 A 
ATOM     15  C   UNL     1      46.816   2.067   7.411  0.00  0.00    +0.000 A 
ATOM     16  C   UNL     1      46.721   3.446   7.247  0.00  0.00    +0.000 A 
ATOM     17  C   UNL     1      45.805   4.180   8.005  0.00  0.00    +0.000 A 
ENDBRANCH  11  12
ENDBRANCH   1  11
TORSDOF 4
ENDMDL
MODEL 6
REMARK VINA RESULT:    -5.624      2.571      6.264
REMARK INTER + INTRA:          -7.465
REMARK INTER:                  -6.997
REMARK INTRA:                  -0.468
REMARK UNBOUND:                -0.526
REMARK  Name = 
REMARK  4 active torsions:
REMARK  status: ('A' for Active; 'I' for Inactive)
REMARK    1  A    between atoms: C_2  and  C_3
REMARK    2  A    between atoms: C_6  and  N_7
REMARK    3  A    between atoms: N_7  and  C_8
REMARK    4  A    between atoms: C_8  and  C_9
REMARK                            x       y       z     vdW  Elec       q    Type
REMARK                         _______ _______ _______ _____ _____    ______ ____
ROOT
ATOM      1  N   UNL     1      44.957   4.875  11.505  0.00  0.00    +0.000 N 
ATOM      2  H   UNL     1      44.391   4.609  12.310  0.00  0.00    +0.000 HD
ENDROOT
BRANCH   1   6
ATOM      3  C   UNL     1      46.698   8.684  12.087  0.00  0.00    +0.000 A 
ATOM      4  C   UNL     1      47.515   7.550  12.089  0.00  0.00    +0.000 A 
ATOM      5  C   UNL     1      46.959   6.276  11.903  0.00  0.00    +0.000 A 
ATOM      6  C   UNL     1      45.581   6.110  11.734  0.00  0.00    +0.000 A 
ATOM      7  C   UNL     1      44.784   7.261  11.675  0.00  0.00    +0.000 A 
ATOM      8  C   UNL     1      45.329   8.536  11.871  0.00  0.00    +0.000 A 
BRANCH   3  10
ATOM      9  N   UNL     1      47.725  11.038  12.471  0.00  0.00    +0.000 NA
ATOM     10  C   UNL     1      47.264   9.984  12.299  0.00  0.00    +0.000 C 
ENDBRANCH   3  10
ENDBRANCH   1   6
BRANCH   1  11
ATOM     11  C   UNL     1      44.213   4.699  10.260  0.00  0.00    +0.000 C 
BRANCH  11  12
ATOM     12  C   UNL     1      45.011   3.871   9.277  0.00  0.00    +0.000 A 
ATOM     13  C   UNL     1      45.820   4.486   8.308  0.00  0.00    +0.000 A 
ATOM     14  C   UNL     1      46.612   3.721   7.449  0.00  0.00    +0.000 A 
ATOM     15  C   UNL     1      46.605   2.330   7.546  0.00  0.00    +0.000 A 
ATOM     16  C   UNL     1      45.799   1.705   8.494  0.00  0.00    +0.000 A 
ATOM     17  C   UNL     1      45.008   2.469   9.355  0.00  0.00    +0.000 A 
ENDBRANCH  11  12
ENDBRANCH   1  11
TORSDOF 4
ENDMDL
MODEL 7
REMARK VINA RESULT:    -5.551      2.537      5.954
REMARK INTER + INTRA:          -7.375
REMARK INTER:                  -6.914
REMARK INTRA:                  -0.461
REMARK UNBOUND:                -0.526
REMARK  Name = 
REMARK  4 active torsions:
REMARK  status: ('A' for Active; 'I' for Inactive)
REMARK    1  A    between atoms: C_2  and  C_3
REMARK    2  A    between atoms: C_6  and  N_7
REMARK    3  A    between atoms: N_7  and  C_8
REMARK    4  A    between atoms: C_8  and  C_9
REMARK                            x       y       z     vdW  Elec       q    Type
REMARK                         _______ _______ _______ _____ _____    ______ ____
ROOT
ATOM      1  N   UNL     1      44.876   4.834  12.168  0.00  0.00    +0.000 N 
ATOM      2  H   UNL     1      44.207   4.911  12.933  0.00  0.00    +0.000 HD
ENDROOT
BRANCH   1   6
ATOM      3  C   UNL     1      48.387   6.906  13.289  0.00  0.00    +0.000 A 
ATOM      4  C   UNL     1      47.717   7.276  12.119  0.00  0.00    +0.000 A 
ATOM      5  C   UNL     1      46.554   6.600  11.725  0.00  0.00    +0.000 A 
ATOM      6  C   UNL     1      46.052   5.533  12.476  0.00  0.00    +0.000 A 
ATOM      7  C   UNL     1      46.701   5.212  13.676  0.00  0.00    +0.000 A 
ATOM      8  C   UNL     1      47.870   5.875  14.072  0.00  0.00    +0.000 A 
BRANCH   3  10
ATOM      9  N   UNL     1      50.564   8.133  13.996  0.00  0.00    +0.000 NA
ATOM     10  C   UNL     1      49.589   7.583  13.680  0.00  0.00    +0.000 C 
ENDBRANCH   3  10
ENDBRANCH   1   6
BRANCH   1  11
ATOM     11  C   UNL     1      44.234   5.098  10.882  0.00  0.00    +0.000 C 
BRANCH  11  12
ATOM     12  C   UNL     1      44.786   4.178   9.815  0.00  0.00    +0.000 A 
ATOM     13  C   UNL     1      45.545   4.687   8.749  0.00  0.00    +0.000 A 
ATOM     14  C   UNL     1      46.114   3.829   7.805  0.00  0.00    +0.000 A 
ATOM     15  C   UNL     1      45.932   2.451   7.914  0.00  0.00    +0.000 A 
ATOM     16  C   UNL     1      45.172   1.932   8.959  0.00  0.00    +0.000 A 
ATOM     17  C   UNL     1      44.603   2.789   9.905  0.00  0.00    +0.000 A 
ENDBRANCH  11  12
ENDBRANCH   1  11
TORSDOF 4
ENDMDL
MODEL 8
REMARK VINA RESULT:    -5.119      2.874      6.617
REMARK INTER + INTRA:          -6.842
REMARK INTER:                  -6.441
REMARK INTRA:                  -0.400
REMARK UNBOUND:                -0.526
REMARK  Name = 
REMARK  4 active torsions:
REMARK  status: ('A' for Active; 'I' for Inactive)
REMARK    1  A    between atoms: C_2  and  C_3
REMARK    2  A    between atoms: C_6  and  N_7
REMARK    3  A    between atoms: N_7  and  C_8
REMARK    4  A    between atoms: C_8  and  C_9
REMARK                            x       y       z     vdW  Elec       q    Type
REMARK                         _______ _______ _______ _____ _____    ______ ____
ROOT
ATOM      1  N   UNL     1      46.373   6.129  11.738  0.00  0.00    +0.000 N 
ATOM      2  H   UNL     1      47.013   5.846  10.996  0.00  0.00    +0.000 HD
ENDROOT
BRANCH   1   6
ATOM      3  C   UNL     1      47.913   5.258  15.578  0.00  0.00    +0.000 A 
ATOM      4  C   UNL     1      48.323   6.423  14.924  0.00  0.00    +0.000 A 
ATOM      5  C   UNL     1      47.829   6.729  13.647  0.00  0.00    +0.000 A 
ATOM      6  C   UNL     1      46.938   5.872  12.995  0.00  0.00    +0.000 A 
ATOM      7  C   UNL     1      46.492   4.739  13.688  0.00  0.00    +0.000 A 
ATOM      8  C   UNL     1      46.988   4.419  14.958  0.00  0.00    +0.000 A 
BRANCH   3  10
ATOM      9  N   UNL     1      48.859   4.671  17.924  0.00  0.00    +0.000 NA
ATOM     10  C   UNL     1      48.434   4.933  16.873  0.00  0.00    +0.000 C 
ENDBRANCH   3  10
ENDBRANCH   1   6
BRANCH   1  11
ATOM     11  C   UNL     1      45.020   5.641  11.477  0.00  0.00    +0.000 C 
BRANCH  11  12
ATOM     12  C   UNL     1      45.028   4.633  10.349  0.00  0.00    +0.000 A 
ATOM     13  C   UNL     1      45.638   4.932   9.120  0.00  0.00    +0.000 A 
ATOM     14  C   UNL     1      45.706   3.974   8.106  0.00  0.00    +0.000 A 
ATOM     15  C   UNL     1      45.166   2.705   8.306  0.00  0.00    +0.000 A 
ATOM     16  C   UNL     1      44.549   2.396   9.515  0.00  0.00    +0.000 A 
ATOM     17  C   UNL     1      44.480   3.352  10.531  0.00  0.00    +0.000 A 
ENDBRANCH  11  12
ENDBRANCH   1  11
TORSDOF 4
ENDMDL
MODEL 9
REMARK VINA RESULT:    -5.072      3.625      5.701
REMARK INTER + INTRA:          -6.784
REMARK INTER:                  -6.411
REMARK INTRA:                  -0.373
REMARK UNBOUND:                -0.526
REMARK  Name = 
REMARK  4 active torsions:
REMARK  status: ('A' for Active; 'I' for Inactive)
REMARK    1  A    between atoms: C_2  and  C_3
REMARK    2  A    between atoms: C_6  and  N_7
REMARK    3  A    between atoms: N_7  and  C_8
REMARK    4  A    between atoms: C_8  and  C_9
REMARK                            x       y       z     vdW  Elec       q    Type
REMARK                         _______ _______ _______ _____ _____    ______ ____
ROOT
ATOM      1  N   UNL     1      47.418   5.314  15.167  0.00  0.00    +0.000 N 
ATOM      2  H   UNL     1      47.307   6.263  15.521  0.00  0.00    +0.000 HD
ENDROOT
BRANCH   1   6
ATOM      3  C   UNL     1      45.390   4.662  11.515  0.00  0.00    +0.000 A 
ATOM      4  C   UNL     1      45.925   5.925  11.785  0.00  0.00    +0.000 A 
ATOM      5  C   UNL     1      46.597   6.166  12.993  0.00  0.00    +0.000 A 
ATOM      6  C   UNL     1      46.728   5.161  13.956  0.00  0.00    +0.000 A 
ATOM      7  C   UNL     1      46.239   3.885  13.645  0.00  0.00    +0.000 A 
ATOM      8  C   UNL     1      45.557   3.639  12.447  0.00  0.00    +0.000 A 
BRANCH   3  10
ATOM      9  N   UNL     1      44.109   4.228   9.298  0.00  0.00    +0.000 NA
ATOM     10  C   UNL     1      44.684   4.422  10.290  0.00  0.00    +0.000 C 
ENDBRANCH   3  10
ENDBRANCH   1   6
BRANCH   1  11
ATOM     11  C   UNL     1      47.186   4.330  16.222  0.00  0.00    +0.000 C 
BRANCH  11  12
ATOM     12  C   UNL     1      48.500   3.786  16.738  0.00  0.00    +0.000 A 
ATOM     13  C   UNL     1      48.812   2.423  16.616  0.00  0.00    +0.000 A 
ATOM     14  C   UNL     1      50.055   1.935  17.028  0.00  0.00    +0.000 A 
ATOM     15  C   UNL     1      51.002   2.804  17.568  0.00  0.00    +0.000 A 
ATOM     16  C   UNL     1      50.703   4.157  17.706  0.00  0.00    +0.000 A 
ATOM     17  C   UNL     1      49.461   4.646  17.293  0.00  0.00    +0.000 A 
ENDBRANCH  11  12
ENDBRANCH   1  11
TORSDOF 4
ENDMDL
