MODEL 1
REMARK VINA RESULT:    -9.013      0.000      0.000
REMARK INTER + INTRA:         -12.811
REMARK INTER:                 -11.648
REMARK INTRA:                  -1.164
REMARK UNBOUND:                -1.164
REMARK  Name = 
REMARK  5 active torsions:
REMARK  status: ('A' for Active; 'I' for Inactive)
REMARK    1  A    between atoms: C_2  and  C_4
REMARK    2  A    between atoms: C_7  and  N_8
REMARK    3  A    between atoms: N_8  and  C_9
REMARK    4  A    between atoms: C_9  and  C_10
REMARK    5  A    between atoms: C_15  and  C_16
REMARK                            x       y       z     vdW  Elec       q    Type
REMARK                         _______ _______ _______ _____ _____    ______ ____
ROOT
ATOM      1  C   UNL     1      43.517   4.681  11.244  0.00  0.00    +0.000 C 
ENDROOT
BRANCH   1   2
ATOM      2  C   UNL     1      44.696   5.087  12.090  0.00  0.00    +0.000 A 
ATOM      3  C   UNL     1      45.238   4.197  13.022  0.00  0.00    +0.000 A 
ATOM      4  C   UNL     1      46.405   4.523  13.700  0.00  0.00    +0.000 A 
ATOM      5  C   UNL     1      47.042   5.734  13.441  0.00  0.00    +0.000 A 
ATOM      6  F   UNL     1      48.170   5.988  14.123  0.00  0.00    +0.000 F 
ATOM      7  C   UNL     1      46.544   6.660  12.506  0.00  0.00    +0.000 A 
ATOM      8  C   UNL     1      45.340   6.318  11.860  0.00  0.00    +0.000 A 
BRANCH   7   9
ATOM      9  C   UNL     1      47.261   7.913  12.177  0.00  0.00    +0.000 A 
ATOM     10  C   UNL     1      46.646   9.175  12.307  0.00  0.00    +0.000 A 
ATOM     11  C   UNL     1      47.332  10.359  12.018  0.00  0.00    +0.000 A 
ATOM     12  C   UNL     1      48.657  10.309  11.596  0.00  0.00    +0.000 A 
ATOM     13  C   UNL     1      49.271   9.077  11.438  0.00  0.00    +0.000 A 
ATOM     14  F   UNL     1      50.542   9.021  11.022  0.00  0.00    +0.000 F 
ATOM     15  C   UNL     1      48.587   7.895  11.706  0.00  0.00    +0.000 A 
ENDBRANCH   7   9
ENDBRANCH   1   2
BRANCH   1  16
ATOM     16  N   UNL     1      43.759   4.902   9.827  0.00  0.00    +0.000 N 
ATOM     17  H   UNL     1      42.956   5.230   9.301  0.00  0.00    +0.000 HD
BRANCH  16  21
ATOM     18  C   UNL     1      46.335   2.189   7.857  0.00  0.00    +0.000 A 
ATOM     19  C   UNL     1      45.362   1.703   8.732  0.00  0.00    +0.000 A 
ATOM     20  C   UNL     1      44.491   2.590   9.368  0.00  0.00    +0.000 A 
ATOM     21  C   UNL     1      44.538   3.971   9.129  0.00  0.00    +0.000 A 
ATOM     22  C   UNL     1      45.519   4.441   8.244  0.00  0.00    +0.000 A 
ATOM     23  C   UNL     1      46.412   3.563   7.617  0.00  0.00    +0.000 A 
BRANCH  18  25
ATOM     24  N   UNL     1      48.417   1.868   6.633  0.00  0.00    +0.000 N 
ATOM     25  C   UNL     1      47.326   1.284   7.225  0.00  0.00    +0.000 C 
ATOM     26  O   UNL     1      47.192   0.070   7.237  0.00  0.00    +0.000 OA
ATOM     27  H   UNL     1      49.120   1.238   6.270  0.00  0.00    +0.000 HD
ATOM     28  H   UNL     1      48.687   2.824   6.812  0.00  0.00    +0.000 HD
ENDBRANCH  18  25
ENDBRANCH  16  21
ENDBRANCH   1  16
TORSDOF 5
ENDMDL
MODEL 2
REMARK VINA RESULT:    -9.013      0.953      1.352
REMARK INTER + INTRA:         -12.811
REMARK INTER:                 -11.628
REMARK INTRA:                  -1.182
REMARK UNBOUND:                -1.164
REMARK  Name = 
REMARK  5 active torsions:
REMARK  status: ('A' for Active; 'I' for Inactive)
REMARK    1  A    between atoms: C_2  and  C_4
REMARK    2  A    between atoms: C_7  and  N_8
REMARK    3  A    between atoms: N_8  and  C_9
REMARK    4  A    between atoms: C_9  and  C_10
REMARK    5  A    between atoms: C_15  and  C_16
REMARK                            x       y       z     vdW  Elec       q    Type
REMARK                         _______ _______ _______ _____ _____    ______ ____
ROOT
ATOM      1  C   UNL     1      43.497   4.647  11.262  0.00  0.00    +0.000 C 
ENDROOT
BRANCH   1   2
ATOM      2  C   UNL     1      44.679   5.052  12.104  0.00  0.00    +0.000 A 
ATOM      3  C   UNL     1      45.228   4.158  13.028  0.00  0.00    +0.000 A 
ATOM      4  C   UNL     1      46.398   4.483  13.702  0.00  0.00    +0.000 A 
ATOM      5  C   UNL     1      47.031   5.698  13.446  0.00  0.00    +0.000 A 
ATOM      6  F   UNL     1      48.161   5.950  14.123  0.00  0.00    +0.000 F 
ATOM      7  C   UNL     1      46.526   6.626  12.518  0.00  0.00    +0.000 A 
ATOM      8  C   UNL     1      45.319   6.285  11.877  0.00  0.00    +0.000 A 
BRANCH   7   9
ATOM      9  C   UNL     1      47.238   7.883  12.192  0.00  0.00    +0.000 A 
ATOM     10  C   UNL     1      48.576   7.883  11.746  0.00  0.00    +0.000 A 
ATOM     11  C   UNL     1      49.240   9.069  11.417  0.00  0.00    +0.000 A 
ATOM     12  C   UNL     1      48.577  10.288  11.520  0.00  0.00    +0.000 A 
ATOM     13  C   UNL     1      47.270  10.311  11.981  0.00  0.00    +0.000 A 
ATOM     14  F   UNL     1      46.630  11.482  12.092  0.00  0.00    +0.000 F 
ATOM     15  C   UNL     1      46.611   9.136  12.327  0.00  0.00    +0.000 A 
ENDBRANCH   7   9
ENDBRANCH   1   2
BRANCH   1  16
ATOM     16  N   UNL     1      43.724   4.890   9.846  0.00  0.00    +0.000 N 
ATOM     17  H   UNL     1      42.908   5.197   9.328  0.00  0.00    +0.000 HD
BRANCH  16  21
ATOM     18  C   UNL     1      46.378   2.282   7.839  0.00  0.00    +0.000 A 
ATOM     19  C   UNL     1      45.413   1.755   8.697  0.00  0.00    +0.000 A 
ATOM     20  C   UNL     1      44.516   2.607   9.346  0.00  0.00    +0.000 A 
ATOM     21  C   UNL     1      44.531   3.994   9.135  0.00  0.00    +0.000 A 
ATOM     22  C   UNL     1      45.504   4.505   8.265  0.00  0.00    +0.000 A 
ATOM     23  C   UNL     1      46.422   3.662   7.626  0.00  0.00    +0.000 A 
BRANCH  18  25
ATOM     24  N   UNL     1      48.400   2.041   6.500  0.00  0.00    +0.000 N 
ATOM     25  C   UNL     1      47.395   1.415   7.194  0.00  0.00    +0.000 C 
ATOM     26  O   UNL     1      47.356   0.198   7.284  0.00  0.00    +0.000 OA
ATOM     27  H   UNL     1      49.125   1.442   6.127  0.00  0.00    +0.000 HD
ATOM     28  H   UNL     1      48.606   3.022   6.606  0.00  0.00    +0.000 HD
ENDBRANCH  18  25
ENDBRANCH  16  21
ENDBRANCH   1  16
TORSDOF 5
ENDMDL
MODEL 3
REMARK VINA RESULT:    -8.729      2.125      4.052
REMARK INTER + INTRA:         -12.444
REMARK INTER:                 -11.818
REMARK INTRA:                  -0.626
REMARK UNBOUND:                -1.164
REMARK  Name = 
REMARK  5 active torsions:
REMARK  status: ('A' for Active; 'I' for Inactive)
REMARK    1  A    between atoms: C_2  and  C_4
REMARK    2  A    between atoms: C_7  and  N_8
REMARK    3  A    between atoms: N_8  and  C_9
REMARK    4  A    between atoms: C_9  and  C_10
REMARK    5  A    between atoms: C_15  and  C_16
REMARK                            x       y       z     vdW  Elec       q    Type
REMARK                         _______ _______ _______ _____ _____    ______ ____
ROOT
ATOM      1  C   UNL     1      44.124   5.109  11.472  0.00  0.00    +0.000 C 
ENDROOT
BRANCH   1   2
ATOM      2  C   UNL     1      45.491   5.508  11.965  0.00  0.00    +0.000 A 
ATOM      3  C   UNL     1      46.263   6.425  11.245  0.00  0.00    +0.000 A 
ATOM      4  C   UNL     1      47.460   6.893  11.770  0.00  0.00    +0.000 A 
ATOM      5  C   UNL     1      47.886   6.454  13.023  0.00  0.00    +0.000 A 
ATOM      6  F   UNL     1      49.047   6.948  13.479  0.00  0.00    +0.000 F 
ATOM      7  C   UNL     1      47.142   5.540  13.791  0.00  0.00    +0.000 A 
ATOM      8  C   UNL     1      45.950   5.057  13.217  0.00  0.00    +0.000 A 
BRANCH   7   9
ATOM      9  C   UNL     1      47.557   5.132  15.153  0.00  0.00    +0.000 A 
ATOM     10  C   UNL     1      48.445   5.912  15.922  0.00  0.00    +0.000 A 
ATOM     11  C   UNL     1      48.818   5.537  17.217  0.00  0.00    +0.000 A 
ATOM     12  C   UNL     1      48.307   4.371  17.776  0.00  0.00    +0.000 A 
ATOM     13  C   UNL     1      47.454   3.577  17.026  0.00  0.00    +0.000 A 
ATOM     14  F   UNL     1      46.966   2.448  17.555  0.00  0.00    +0.000 F 
ATOM     15  C   UNL     1      47.093   3.936  15.731  0.00  0.00    +0.000 A 
ENDBRANCH   7   9
ENDBRANCH   1   2
BRANCH   1  16
ATOM     16  N   UNL     1      44.044   5.110  10.020  0.00  0.00    +0.000 N 
ATOM     17  H   UNL     1      43.138   5.361   9.641  0.00  0.00    +0.000 HD
BRANCH  16  21
ATOM     18  C   UNL     1      46.192   2.076   8.006  0.00  0.00    +0.000 A 
ATOM     19  C   UNL     1      45.257   1.726   8.981  0.00  0.00    +0.000 A 
ATOM     20  C   UNL     1      44.525   2.721   9.634  0.00  0.00    +0.000 A 
ATOM     21  C   UNL     1      44.676   4.078   9.316  0.00  0.00    +0.000 A 
ATOM     22  C   UNL     1      45.615   4.411   8.330  0.00  0.00    +0.000 A 
ATOM     23  C   UNL     1      46.371   3.424   7.684  0.00  0.00    +0.000 A 
BRANCH  18  25
ATOM     24  N   UNL     1      46.770  -0.261   7.631  0.00  0.00    +0.000 N 
ATOM     25  C   UNL     1      47.042   1.053   7.347  0.00  0.00    +0.000 C 
ATOM     26  O   UNL     1      47.937   1.358   6.574  0.00  0.00    +0.000 OA
ATOM     27  H   UNL     1      47.309  -0.949   7.121  0.00  0.00    +0.000 HD
ATOM     28  H   UNL     1      45.906  -0.559   8.057  0.00  0.00    +0.000 HD
ENDBRANCH  18  25
ENDBRANCH  16  21
ENDBRANCH   1  16
TORSDOF 5
ENDMDL
MODEL 4
REMARK VINA RESULT:    -8.205      1.806      2.447
REMARK INTER + INTRA:         -11.767
REMARK INTER:                 -10.697
REMARK INTRA:                  -1.070
REMARK UNBOUND:                -1.164
REMARK  Name = 
REMARK  5 active torsions:
REMARK  status: ('A' for Active; 'I' for Inactive)
REMARK    1  A    between atoms: C_2  and  C_4
REMARK    2  A    between atoms: C_7  and  N_8
REMARK    3  A    between atoms: N_8  and  C_9
REMARK    4  A    between atoms: C_9  and  C_10
REMARK    5  A    between atoms: C_15  and  C_16
REMARK                            x       y       z     vdW  Elec       q    Type
REMARK                         _______ _______ _______ _____ _____    ______ ____
ROOT
ATOM      1  C   UNL     1      44.402   3.773  11.620  0.00  0.00    +0.000 C 
ENDROOT
BRANCH   1   2
ATOM      2  C   UNL     1      44.827   5.219  11.600  0.00  0.00    +0.000 A 
ATOM      3  C   UNL     1      43.880   6.232  11.421  0.00  0.00    +0.000 A 
ATOM      4  C   UNL     1      44.254   7.564  11.540  0.00  0.00    +0.000 A 
ATOM      5  C   UNL     1      45.573   7.889  11.850  0.00  0.00    +0.000 A 
ATOM      6  F   UNL     1      45.870   9.193  11.959  0.00  0.00    +0.000 F 
ATOM      7  C   UNL     1      46.561   6.907  12.050  0.00  0.00    +0.000 A 
ATOM      8  C   UNL     1      46.161   5.567  11.888  0.00  0.00    +0.000 A 
BRANCH   7   9
ATOM      9  C   UNL     1      47.944   7.250  12.452  0.00  0.00    +0.000 A 
ATOM     10  C   UNL     1      48.901   7.691  11.514  0.00  0.00    +0.000 A 
ATOM     11  C   UNL     1      50.200   8.036  11.899  0.00  0.00    +0.000 A 
ATOM     12  C   UNL     1      50.574   7.955  13.237  0.00  0.00    +0.000 A 
ATOM     13  C   UNL     1      49.655   7.499  14.169  0.00  0.00    +0.000 A 
ATOM     14  F   UNL     1      50.011   7.409  15.457  0.00  0.00    +0.000 F 
ATOM     15  C   UNL     1      48.367   7.137  13.789  0.00  0.00    +0.000 A 
ENDBRANCH   7   9
ENDBRANCH   1   2
BRANCH   1  16
ATOM     16  N   UNL     1      43.803   3.362  10.359  0.00  0.00    +0.000 N 
ATOM     17  H   UNL     1      43.001   2.748  10.447  0.00  0.00    +0.000 HD
BRANCH  16  21
ATOM     18  C   UNL     1      46.553   2.507   7.264  0.00  0.00    +0.000 A 
ATOM     19  C   UNL     1      46.162   1.491   8.136  0.00  0.00    +0.000 A 
ATOM     20  C   UNL     1      45.236   1.758   9.147  0.00  0.00    +0.000 A 
ATOM     21  C   UNL     1      44.650   3.024   9.297  0.00  0.00    +0.000 A 
ATOM     22  C   UNL     1      45.050   4.031   8.407  0.00  0.00    +0.000 A 
ATOM     23  C   UNL     1      45.995   3.780   7.404  0.00  0.00    +0.000 A 
BRANCH  18  25
ATOM     24  N   UNL     1      47.652   3.180   5.196  0.00  0.00    +0.000 N 
ATOM     25  C   UNL     1      47.591   2.279   6.228  0.00  0.00    +0.000 C 
ATOM     26  O   UNL     1      48.371   1.341   6.292  0.00  0.00    +0.000 OA
ATOM     27  H   UNL     1      48.410   3.054   4.537  0.00  0.00    +0.000 HD
ATOM     28  H   UNL     1      47.204   4.083   5.233  0.00  0.00    +0.000 HD
ENDBRANCH  18  25
ENDBRANCH  16  21
ENDBRANCH   1  16
TORSDOF 5
ENDMDL
MODEL 5
REMARK VINA RESULT:    -7.616      3.896      6.980
REMARK INTER + INTRA:         -11.005
REMARK INTER:                 -10.261
REMARK INTRA:                  -0.744
REMARK UNBOUND:                -1.164
REMARK  Name = 
REMARK  5 active torsions:
REMARK  status: ('A' for Active; 'I' for Inactive)
REMARK    1  A    between atoms: C_2  and  C_4
REMARK    2  A    between atoms: C_7  and  N_8
REMARK    3  A    between atoms: N_8  and  C_9
REMARK    4  A    between atoms: C_9  and  C_10
REMARK    5  A    between atoms: C_15  and  C_16
REMARK                            x       y       z     vdW  Elec       q    Type
REMARK                         _______ _______ _______ _____ _____    ______ ____
ROOT
ATOM      1  C   UNL     1      44.689   7.328  11.391  0.00  0.00    +0.000 C 
ENDROOT
BRANCH   1   2
ATOM      2  C   UNL     1      44.488   5.848  11.186  0.00  0.00    +0.000 A 
ATOM      3  C   UNL     1      43.506   5.161  11.907  0.00  0.00    +0.000 A 
ATOM      4  C   UNL     1      43.232   3.831  11.618  0.00  0.00    +0.000 A 
ATOM      5  C   UNL     1      43.929   3.186  10.598  0.00  0.00    +0.000 A 
ATOM      6  F   UNL     1      43.613   1.903  10.362  0.00  0.00    +0.000 F 
ATOM      7  C   UNL     1      44.918   3.835   9.836  0.00  0.00    +0.000 A 
ATOM      8  C   UNL     1      45.199   5.172  10.177  0.00  0.00    +0.000 A 
BRANCH   7   9
ATOM      9  C   UNL     1      45.605   3.171   8.705  0.00  0.00    +0.000 A 
ATOM     10  C   UNL     1      46.030   3.892   7.570  0.00  0.00    +0.000 A 
ATOM     11  C   UNL     1      46.699   3.266   6.513  0.00  0.00    +0.000 A 
ATOM     12  C   UNL     1      46.966   1.903   6.568  0.00  0.00    +0.000 A 
ATOM     13  C   UNL     1      46.533   1.172   7.664  0.00  0.00    +0.000 A 
ATOM     14  F   UNL     1      46.777  -0.143   7.719  0.00  0.00    +0.000 F 
ATOM     15  C   UNL     1      45.850   1.785   8.710  0.00  0.00    +0.000 A 
ENDBRANCH   7   9
ENDBRANCH   1   2
BRANCH   1  16
ATOM     16  N   UNL     1      45.456   7.614  12.594  0.00  0.00    +0.000 N 
ATOM     17  H   UNL     1      45.012   8.255  13.242  0.00  0.00    +0.000 HD
BRANCH  16  21
ATOM     18  C   UNL     1      49.625   8.022  12.023  0.00  0.00    +0.000 A 
ATOM     19  C   UNL     1      48.787   9.110  11.775  0.00  0.00    +0.000 A 
ATOM     20  C   UNL     1      47.411   8.991  11.984  0.00  0.00    +0.000 A 
ATOM     21  C   UNL     1      46.837   7.809  12.475  0.00  0.00    +0.000 A 
ATOM     22  C   UNL     1      47.695   6.729  12.724  0.00  0.00    +0.000 A 
ATOM     23  C   UNL     1      49.074   6.829  12.497  0.00  0.00    +0.000 A 
BRANCH  18  25
ATOM     24  N   UNL     1      51.487   7.725  10.480  0.00  0.00    +0.000 N 
ATOM     25  C   UNL     1      51.080   8.088  11.739  0.00  0.00    +0.000 C 
ATOM     26  O   UNL     1      51.885   8.460  12.578  0.00  0.00    +0.000 OA
ATOM     27  H   UNL     1      52.472   7.843  10.278  0.00  0.00    +0.000 HD
ATOM     28  H   UNL     1      50.850   7.652   9.702  0.00  0.00    +0.000 HD
ENDBRANCH  18  25
ENDBRANCH  16  21
ENDBRANCH   1  16
TORSDOF 5
ENDMDL
MODEL 6
REMARK VINA RESULT:    -6.980      2.257      2.871
REMARK INTER + INTRA:         -10.184
REMARK INTER:                  -9.461
REMARK INTRA:                  -0.723
REMARK UNBOUND:                -1.164
REMARK  Name = 
REMARK  5 active torsions:
REMARK  status: ('A' for Active; 'I' for Inactive)
REMARK    1  A    between atoms: C_2  and  C_4
REMARK    2  A    between atoms: C_7  and  N_8
REMARK    3  A    between atoms: N_8  and  C_9
REMARK    4  A    between atoms: C_9  and  C_10
REMARK    5  A    between atoms: C_15  and  C_16
REMARK                            x       y       z     vdW  Elec       q    Type
REMARK                         _______ _______ _______ _____ _____    ______ ____
ROOT
ATOM      1  C   UNL     1      44.149   3.241  11.821  0.00  0.00    +0.000 C 
ENDROOT
BRANCH   1   2
ATOM      2  C   UNL     1      44.726   4.553  12.286  0.00  0.00    +0.000 A 
ATOM      3  C   UNL     1      45.828   4.576  13.146  0.00  0.00    +0.000 A 
ATOM      4  C   UNL     1      46.441   5.781  13.462  0.00  0.00    +0.000 A 
ATOM      5  C   UNL     1      45.962   6.968  12.910  0.00  0.00    +0.000 A 
ATOM      6  F   UNL     1      46.601   8.098  13.248  0.00  0.00    +0.000 F 
ATOM      7  C   UNL     1      44.864   6.998  12.032  0.00  0.00    +0.000 A 
ATOM      8  C   UNL     1      44.241   5.765  11.758  0.00  0.00    +0.000 A 
BRANCH   7   9
ATOM      9  C   UNL     1      44.402   8.249  11.388  0.00  0.00    +0.000 A 
ATOM     10  C   UNL     1      43.064   8.422  10.979  0.00  0.00    +0.000 A 
ATOM     11  C   UNL     1      42.625   9.614  10.392  0.00  0.00    +0.000 A 
ATOM     12  C   UNL     1      43.515  10.665  10.205  0.00  0.00    +0.000 A 
ATOM     13  C   UNL     1      44.841  10.505  10.577  0.00  0.00    +0.000 A 
ATOM     14  F   UNL     1      45.705  11.510  10.390  0.00  0.00    +0.000 F 
ATOM     15  C   UNL     1      45.287   9.316  11.144  0.00  0.00    +0.000 A 
ENDBRANCH   7   9
ENDBRANCH   1   2
BRANCH   1  16
ATOM     16  N   UNL     1      43.752   3.283  10.422  0.00  0.00    +0.000 N 
ATOM     17  H   UNL     1      42.905   2.770  10.202  0.00  0.00    +0.000 HD
BRANCH  16  21
ATOM     18  C   UNL     1      46.575   2.769   7.318  0.00  0.00    +0.000 A 
ATOM     19  C   UNL     1      46.038   4.034   7.556  0.00  0.00    +0.000 A 
ATOM     20  C   UNL     1      45.122   4.218   8.595  0.00  0.00    +0.000 A 
ATOM     21  C   UNL     1      44.744   3.166   9.442  0.00  0.00    +0.000 A 
ATOM     22  C   UNL     1      45.299   1.903   9.191  0.00  0.00    +0.000 A 
ATOM     23  C   UNL     1      46.201   1.702   8.138  0.00  0.00    +0.000 A 
BRANCH  18  25
ATOM     24  N   UNL     1      48.671   1.880   6.449  0.00  0.00    +0.000 N 
ATOM     25  C   UNL     1      47.489   2.521   6.175  0.00  0.00    +0.000 C 
ATOM     26  O   UNL     1      47.204   2.856   5.036  0.00  0.00    +0.000 OA
ATOM     27  H   UNL     1      49.251   1.654   5.651  0.00  0.00    +0.000 HD
ATOM     28  H   UNL     1      48.832   1.378   7.308  0.00  0.00    +0.000 HD
ENDBRANCH  18  25
ENDBRANCH  16  21
ENDBRANCH   1  16
TORSDOF 5
ENDMDL
MODEL 7
REMARK VINA RESULT:    -6.820      5.212      7.996
REMARK INTER + INTRA:          -9.976
REMARK INTER:                  -8.989
REMARK INTRA:                  -0.987
REMARK UNBOUND:                -1.164
REMARK  Name = 
REMARK  5 active torsions:
REMARK  status: ('A' for Active; 'I' for Inactive)
REMARK    1  A    between atoms: C_2  and  C_4
REMARK    2  A    between atoms: C_7  and  N_8
REMARK    3  A    between atoms: N_8  and  C_9
REMARK    4  A    between atoms: C_9  and  C_10
REMARK    5  A    between atoms: C_15  and  C_16
REMARK                            x       y       z     vdW  Elec       q    Type
REMARK                         _______ _______ _______ _____ _____    ______ ____
ROOT
ATOM      1  C   UNL     1      48.851   6.685  15.949  0.00  0.00    +0.000 C 
ENDROOT
BRANCH   1   2
ATOM      2  C   UNL     1      48.291   6.749  14.551  0.00  0.00    +0.000 A 
ATOM      3  C   UNL     1      49.006   7.384  13.531  0.00  0.00    +0.000 A 
ATOM      4  C   UNL     1      48.553   7.322  12.220  0.00  0.00    +0.000 A 
ATOM      5  C   UNL     1      47.390   6.615  11.920  0.00  0.00    +0.000 A 
ATOM      6  F   UNL     1      47.009   6.585  10.634  0.00  0.00    +0.000 F 
ATOM      7  C   UNL     1      46.641   5.950  12.908  0.00  0.00    +0.000 A 
ATOM      8  C   UNL     1      47.104   6.060  14.233  0.00  0.00    +0.000 A 
BRANCH   7   9
ATOM      9  C   UNL     1      45.447   5.138  12.579  0.00  0.00    +0.000 A 
ATOM     10  C   UNL     1      45.505   3.731  12.506  0.00  0.00    +0.000 A 
ATOM     11  C   UNL     1      44.371   2.964  12.218  0.00  0.00    +0.000 A 
ATOM     12  C   UNL     1      43.147   3.587  12.001  0.00  0.00    +0.000 A 
ATOM     13  C   UNL     1      43.076   4.971  12.042  0.00  0.00    +0.000 A 
ATOM     14  F   UNL     1      41.902   5.578  11.824  0.00  0.00    +0.000 F 
ATOM     15  C   UNL     1      44.204   5.740  12.310  0.00  0.00    +0.000 A 
ENDBRANCH   7   9
ENDBRANCH   1   2
BRANCH   1  16
ATOM     16  N   UNL     1      48.353   5.534  16.686  0.00  0.00    +0.000 N 
ATOM     17  H   UNL     1      47.680   5.750  17.413  0.00  0.00    +0.000 HD
BRANCH  16  21
ATOM     18  C   UNL     1      51.094   2.421  17.503  0.00  0.00    +0.000 A 
ATOM     19  C   UNL     1      51.489   3.748  17.675  0.00  0.00    +0.000 A 
ATOM     20  C   UNL     1      50.582   4.783  17.431  0.00  0.00    +0.000 A 
ATOM     21  C   UNL     1      49.258   4.528  17.045  0.00  0.00    +0.000 A 
ATOM     22  C   UNL     1      48.878   3.189  16.882  0.00  0.00    +0.000 A 
ATOM     23  C   UNL     1      49.785   2.144  17.102  0.00  0.00    +0.000 A 
BRANCH  18  25
ATOM     24  N   UNL     1      51.555   0.127  18.185  0.00  0.00    +0.000 N 
ATOM     25  C   UNL     1      52.052   1.301  17.678  0.00  0.00    +0.000 C 
ATOM     26  O   UNL     1      53.230   1.406  17.373  0.00  0.00    +0.000 OA
ATOM     27  H   UNL     1      52.203  -0.649  18.232  0.00  0.00    +0.000 HD
ATOM     28  H   UNL     1      50.568  -0.078  18.216  0.00  0.00    +0.000 HD
ENDBRANCH  18  25
ENDBRANCH  16  21
ENDBRANCH   1  16
TORSDOF 5
ENDMDL
MODEL 8
REMARK VINA RESULT:    -6.544      4.938      7.906
REMARK INTER + INTRA:          -9.620
REMARK INTER:                  -8.692
REMARK INTRA:                  -0.928
REMARK UNBOUND:                -1.164
REMARK  Name = 
REMARK  5 active torsions:
REMARK  status: ('A' for Active; 'I' for Inactive)
REMARK    1  A    between atoms: C_2  and  C_4
REMARK    2  A    between atoms: C_7  and  N_8
REMARK    3  A    between atoms: N_8  and  C_9
REMARK    4  A    between atoms: C_9  and  C_10
REMARK    5  A    between atoms: C_15  and  C_16
REMARK                            x       y       z     vdW  Elec       q    Type
REMARK                         _______ _______ _______ _____ _____    ______ ____
ROOT
ATOM      1  C   UNL     1      48.935   7.584  13.190  0.00  0.00    +0.000 C 
ENDROOT
BRANCH   1   2
ATOM      2  C   UNL     1      47.491   7.468  12.774  0.00  0.00    +0.000 A 
ATOM      3  C   UNL     1      46.609   8.534  12.975  0.00  0.00    +0.000 A 
ATOM      4  C   UNL     1      45.317   8.475  12.468  0.00  0.00    +0.000 A 
ATOM      5  C   UNL     1      44.905   7.356  11.748  0.00  0.00    +0.000 A 
ATOM      6  F   UNL     1      43.649   7.362  11.278  0.00  0.00    +0.000 F 
ATOM      7  C   UNL     1      45.757   6.261  11.510  0.00  0.00    +0.000 A 
ATOM      8  C   UNL     1      47.048   6.334  12.066  0.00  0.00    +0.000 A 
BRANCH   7   9
ATOM      9  C   UNL     1      45.343   5.105  10.682  0.00  0.00    +0.000 A 
ATOM     10  C   UNL     1      44.614   4.028  11.226  0.00  0.00    +0.000 A 
ATOM     11  C   UNL     1      44.205   2.947  10.437  0.00  0.00    +0.000 A 
ATOM     12  C   UNL     1      44.510   2.922   9.081  0.00  0.00    +0.000 A 
ATOM     13  C   UNL     1      45.248   3.959   8.533  0.00  0.00    +0.000 A 
ATOM     14  F   UNL     1      45.554   3.936   7.230  0.00  0.00    +0.000 F 
ATOM     15  C   UNL     1      45.674   5.027   9.316  0.00  0.00    +0.000 A 
ENDBRANCH   7   9
ENDBRANCH   1   2
BRANCH   1  16
ATOM     16  N   UNL     1      49.073   8.052  14.561  0.00  0.00    +0.000 N 
ATOM     17  H   UNL     1      49.471   8.979  14.658  0.00  0.00    +0.000 HD
BRANCH  16  21
ATOM     18  C   UNL     1      50.365   5.118  17.318  0.00  0.00    +0.000 A 
ATOM     19  C   UNL     1      51.287   6.024  16.794  0.00  0.00    +0.000 A 
ATOM     20  C   UNL     1      50.866   7.012  15.901  0.00  0.00    +0.000 A 
ATOM     21  C   UNL     1      49.519   7.149  15.533  0.00  0.00    +0.000 A 
ATOM     22  C   UNL     1      48.605   6.233  16.073  0.00  0.00    +0.000 A 
ATOM     23  C   UNL     1      49.021   5.224  16.952  0.00  0.00    +0.000 A 
BRANCH  18  25
ATOM     24  N   UNL     1      50.082   2.837  18.126  0.00  0.00    +0.000 N 
ATOM     25  C   UNL     1      50.790   4.009  18.207  0.00  0.00    +0.000 C 
ATOM     26  O   UNL     1      51.737   4.121  18.971  0.00  0.00    +0.000 OA
ATOM     27  H   UNL     1      50.427   2.067  18.685  0.00  0.00    +0.000 HD
ATOM     28  H   UNL     1      49.469   2.623  17.354  0.00  0.00    +0.000 HD
ENDBRANCH  18  25
ENDBRANCH  16  21
ENDBRANCH   1  16
TORSDOF 5
ENDMDL
MODEL 9
REMARK VINA RESULT:    -6.496      4.931      8.137
REMARK INTER + INTRA:          -9.558
REMARK INTER:                  -8.942
REMARK INTRA:                  -0.615
REMARK UNBOUND:                -1.164
REMARK  Name = 
REMARK  5 active torsions:
REMARK  status: ('A' for Active; 'I' for Inactive)
REMARK    1  A    between atoms: C_2  and  C_4
REMARK    2  A    between atoms: C_7  and  N_8
REMARK    3  A    between atoms: N_8  and  C_9
REMARK    4  A    between atoms: C_9  and  C_10
REMARK    5  A    between atoms: C_15  and  C_16
REMARK                            x       y       z     vdW  Elec       q    Type
REMARK                         _______ _______ _______ _____ _____    ______ ____
ROOT
ATOM      1  C   UNL     1      45.863   3.823  13.828  0.00  0.00    +0.000 C 
ENDROOT
BRANCH   1   2
ATOM      2  C   UNL     1      45.143   3.980  12.513  0.00  0.00    +0.000 A 
ATOM      3  C   UNL     1      44.053   4.849  12.403  0.00  0.00    +0.000 A 
ATOM      4  C   UNL     1      43.481   5.095  11.162  0.00  0.00    +0.000 A 
ATOM      5  C   UNL     1      44.002   4.482  10.024  0.00  0.00    +0.000 A 
ATOM      6  F   UNL     1      43.409   4.765   8.854  0.00  0.00    +0.000 F 
ATOM      7  C   UNL     1      45.103   3.608  10.080  0.00  0.00    +0.000 A 
ATOM      8  C   UNL     1      45.640   3.350  11.356  0.00  0.00    +0.000 A 
BRANCH   7   9
ATOM      9  C   UNL     1      45.702   3.016   8.862  0.00  0.00    +0.000 A 
ATOM     10  C   UNL     1      46.073   3.809   7.757  0.00  0.00    +0.000 A 
ATOM     11  C   UNL     1      46.660   3.250   6.617  0.00  0.00    +0.000 A 
ATOM     12  C   UNL     1      46.896   1.881   6.557  0.00  0.00    +0.000 A 
ATOM     13  C   UNL     1      46.514   1.081   7.623  0.00  0.00    +0.000 A 
ATOM     14  F   UNL     1      46.729  -0.239   7.567  0.00  0.00    +0.000 F 
ATOM     15  C   UNL     1      45.913   1.628   8.751  0.00  0.00    +0.000 A 
ENDBRANCH   7   9
ENDBRANCH   1   2
BRANCH   1  16
ATOM     16  N   UNL     1      46.517   5.054  14.244  0.00  0.00    +0.000 N 
ATOM     17  H   UNL     1      46.901   5.610  13.489  0.00  0.00    +0.000 HD
BRANCH  16  21
ATOM     18  C   UNL     1      49.077   4.736  17.593  0.00  0.00    +0.000 A 
ATOM     19  C   UNL     1      49.249   5.787  16.693  0.00  0.00    +0.000 A 
ATOM     20  C   UNL     1      48.393   5.914  15.597  0.00  0.00    +0.000 A 
ATOM     21  C   UNL     1      47.328   5.027  15.384  0.00  0.00    +0.000 A 
ATOM     22  C   UNL     1      47.167   3.979  16.302  0.00  0.00    +0.000 A 
ATOM     23  C   UNL     1      48.033   3.829  17.393  0.00  0.00    +0.000 A 
BRANCH  18  25
ATOM     24  N   UNL     1      51.064   3.667  18.514  0.00  0.00    +0.000 N 
ATOM     25  C   UNL     1      50.015   4.525  18.724  0.00  0.00    +0.000 C 
ATOM     26  O   UNL     1      49.874   5.097  19.794  0.00  0.00    +0.000 OA
ATOM     27  H   UNL     1      51.734   3.588  19.268  0.00  0.00    +0.000 HD
ATOM     28  H   UNL     1      51.352   3.374  17.593  0.00  0.00    +0.000 HD
ENDBRANCH  18  25
ENDBRANCH  16  21
ENDBRANCH   1  16
TORSDOF 5
ENDMDL
