MODEL 1
REMARK VINA RESULT:    -7.344      0.000      0.000
REMARK INTER + INTRA:         -10.719
REMARK INTER:                  -9.920
REMARK INTRA:                  -0.799
REMARK UNBOUND:                -0.799
REMARK  Name = 
REMARK  7 active torsions:
REMARK  status: ('A' for Active; 'I' for Inactive)
REMARK    1  A    between atoms: C_1  and  C_2
REMARK    2  A    between atoms: C_3  and  C_4
REMARK    3  A    between atoms: C_4  and  C_5
REMARK    4  A    between atoms: C_5  and  C_6
REMARK    5  A    between atoms: C_10  and  C_11
REMARK    6  A    between atoms: C_18  and  O_19
REMARK    7  A    between atoms: O_19  and  C_20
REMARK                            x       y       z     vdW  Elec       q    Type
REMARK                         _______ _______ _______ _____ _____    ______ ____
ROOT
ATOM      1  C   UNL     1      44.828   5.609  10.986  0.00  0.00    +0.000 C 
ENDROOT
BRANCH   1   4
ATOM      2  C   UNL     1      45.872   3.392  12.870  0.00  0.00    +0.000 C 
ATOM      3  C   UNL     1      46.343   4.821  12.949  0.00  0.00    +0.000 A 
ATOM      4  C   UNL     1      45.877   5.825  12.064  0.00  0.00    +0.000 A 
ATOM      5  C   UNL     1      46.465   7.102  12.127  0.00  0.00    +0.000 A 
ATOM      6  C   UNL     1      47.464   7.399  13.047  0.00  0.00    +0.000 A 
ATOM      7  C   UNL     1      47.873   6.434  13.959  0.00  0.00    +0.000 A 
ATOM      8  C   UNL     1      47.295   5.162  13.941  0.00  0.00    +0.000 A 
BRANCH   8   9
ATOM      9  O   UNL     1      47.620   4.188  14.864  0.00  0.00    +0.000 OA
BRANCH   9  10
ATOM     10  C   UNL     1      47.477   4.491  16.275  0.00  0.00    +0.000 C 
ATOM     11  C   UNL     1      48.782   4.612  17.076  0.00  0.00    +0.000 C 
ATOM     12  O   UNL     1      48.491   3.420  17.843  0.00  0.00    +0.000 OA
ATOM     13  C   UNL     1      47.178   3.335  17.245  0.00  0.00    +0.000 C 
ENDBRANCH   9  10
ENDBRANCH   8   9
ENDBRANCH   1   4
BRANCH   1  14
ATOM     14  C   UNL     1      45.299   5.519   9.529  0.00  0.00    +0.000 C 
BRANCH  14  15
ATOM     15  C   UNL     1      45.435   4.128   8.964  0.00  0.00    +0.000 A 
ATOM     16  C   UNL     1      44.757   3.069   9.539  0.00  0.00    +0.000 A 
ATOM     17  C   UNL     1      45.027   1.813   9.041  0.00  0.00    +0.000 A 
ATOM     18  N   UNL     1      45.891   1.580   8.040  0.00  0.00    +0.000 NA
ATOM     19  C   UNL     1      46.493   2.682   7.531  0.00  0.00    +0.000 A 
ATOM     20  N   UNL     1      46.304   3.953   7.946  0.00  0.00    +0.000 NA
BRANCH  19  21
ATOM     21  C   UNL     1      47.487   2.444   6.416  0.00  0.00    +0.000 C 
ATOM     22  N   UNL     1      47.353   3.255   5.310  0.00  0.00    +0.000 N 
ATOM     23  O   UNL     1      48.367   1.591   6.453  0.00  0.00    +0.000 OA
ATOM     24  H   UNL     1      46.619   3.952   5.279  0.00  0.00    +0.000 HD
ATOM     25  H   UNL     1      47.985   3.133   4.531  0.00  0.00    +0.000 HD
ENDBRANCH  19  21
ENDBRANCH  14  15
ENDBRANCH   1  14
TORSDOF 6
ENDMDL
MODEL 2
REMARK VINA RESULT:    -7.035      3.046      7.758
REMARK INTER + INTRA:         -10.301
REMARK INTER:                  -9.662
REMARK INTRA:                  -0.639
REMARK UNBOUND:                -0.799
REMARK  Name = 
REMARK  7 active torsions:
REMARK  status: ('A' for Active; 'I' for Inactive)
REMARK    1  A    between atoms: C_1  and  C_2
REMARK    2  A    between atoms: C_3  and  C_4
REMARK    3  A    between atoms: C_4  and  C_5
REMARK    4  A    between atoms: C_5  and  C_6
REMARK    5  A    between atoms: C_10  and  C_11
REMARK    6  A    between atoms: C_18  and  O_19
REMARK    7  A    between atoms: O_19  and  C_20
REMARK                            x       y       z     vdW  Elec       q    Type
REMARK                         _______ _______ _______ _____ _____    ______ ____
ROOT
ATOM      1  C   UNL     1      44.053   5.325  11.459  0.00  0.00    +0.000 C 
ENDROOT
BRANCH   1   4
ATOM      2  C   UNL     1      46.092   5.651   9.158  0.00  0.00    +0.000 C 
ATOM      3  C   UNL     1      45.320   4.378   9.393  0.00  0.00    +0.000 A 
ATOM      4  C   UNL     1      44.406   4.231  10.467  0.00  0.00    +0.000 A 
ATOM      5  C   UNL     1      43.826   2.967  10.686  0.00  0.00    +0.000 A 
ATOM      6  C   UNL     1      44.111   1.883   9.865  0.00  0.00    +0.000 A 
ATOM      7  C   UNL     1      44.955   2.044   8.773  0.00  0.00    +0.000 A 
ATOM      8  C   UNL     1      45.531   3.290   8.511  0.00  0.00    +0.000 A 
BRANCH   8   9
ATOM      9  O   UNL     1      46.325   3.520   7.405  0.00  0.00    +0.000 OA
BRANCH   9  10
ATOM     10  C   UNL     1      46.545   2.435   6.468  0.00  0.00    +0.000 C 
ATOM     11  C   UNL     1      47.562   1.368   6.896  0.00  0.00    +0.000 C 
ATOM     12  O   UNL     1      48.492   1.752   5.856  0.00  0.00    +0.000 OA
ATOM     13  C   UNL     1      47.518   2.663   5.299  0.00  0.00    +0.000 C 
ENDBRANCH   9  10
ENDBRANCH   8   9
ENDBRANCH   1   4
BRANCH   1  14
ATOM     14  C   UNL     1      44.259   5.040  12.952  0.00  0.00    +0.000 C 
BRANCH  14  15
ATOM     15  C   UNL     1      45.642   5.306  13.490  0.00  0.00    +0.000 A 
ATOM     16  C   UNL     1      46.500   6.162  12.824  0.00  0.00    +0.000 A 
ATOM     17  C   UNL     1      47.784   6.259  13.313  0.00  0.00    +0.000 A 
ATOM     18  N   UNL     1      48.226   5.583  14.386  0.00  0.00    +0.000 NA
ATOM     19  C   UNL     1      47.306   4.782  14.978  0.00  0.00    +0.000 A 
ATOM     20  N   UNL     1      46.028   4.612  14.581  0.00  0.00    +0.000 NA
BRANCH  19  21
ATOM     21  C   UNL     1      47.785   3.993  16.178  0.00  0.00    +0.000 C 
ATOM     22  N   UNL     1      46.808   3.332  16.888  0.00  0.00    +0.000 N 
ATOM     23  O   UNL     1      48.958   3.925  16.528  0.00  0.00    +0.000 OA
ATOM     24  H   UNL     1      45.839   3.398  16.601  0.00  0.00    +0.000 HD
ATOM     25  H   UNL     1      47.071   2.797  17.704  0.00  0.00    +0.000 HD
ENDBRANCH  19  21
ENDBRANCH  14  15
ENDBRANCH   1  14
TORSDOF 6
ENDMDL
MODEL 3
REMARK VINA RESULT:    -6.603      3.868      7.959
REMARK INTER + INTRA:          -9.718
REMARK INTER:                  -9.191
REMARK INTRA:                  -0.527
REMARK UNBOUND:                -0.799
REMARK  Name = 
REMARK  7 active torsions:
REMARK  status: ('A' for Active; 'I' for Inactive)
REMARK    1  A    between atoms: C_1  and  C_2
REMARK    2  A    between atoms: C_3  and  C_4
REMARK    3  A    between atoms: C_4  and  C_5
REMARK    4  A    between atoms: C_5  and  C_6
REMARK    5  A    between atoms: C_10  and  C_11
REMARK    6  A    between atoms: C_18  and  O_19
REMARK    7  A    between atoms: O_19  and  C_20
REMARK                            x       y       z     vdW  Elec       q    Type
REMARK                         _______ _______ _______ _____ _____    ______ ____
ROOT
ATOM      1  C   UNL     1      46.024   6.211  13.021  0.00  0.00    +0.000 C 
ENDROOT
BRANCH   1   4
ATOM      2  C   UNL     1      46.039   5.901   9.946  0.00  0.00    +0.000 C 
ATOM      3  C   UNL     1      45.142   5.089  10.845  0.00  0.00    +0.000 A 
ATOM      4  C   UNL     1      45.162   5.222  12.256  0.00  0.00    +0.000 A 
ATOM      5  C   UNL     1      44.385   4.335  13.025  0.00  0.00    +0.000 A 
ATOM      6  C   UNL     1      43.590   3.361  12.431  0.00  0.00    +0.000 A 
ATOM      7  C   UNL     1      43.520   3.275  11.045  0.00  0.00    +0.000 A 
ATOM      8  C   UNL     1      44.260   4.155  10.251  0.00  0.00    +0.000 A 
BRANCH   8   9
ATOM      9  O   UNL     1      44.178   4.153   8.872  0.00  0.00    +0.000 OA
BRANCH   9  10
ATOM     10  C   UNL     1      44.623   2.978   8.149  0.00  0.00    +0.000 C 
ATOM     11  C   UNL     1      45.655   2.095   8.866  0.00  0.00    +0.000 C 
ATOM     12  O   UNL     1      46.690   2.426   7.911  0.00  0.00    +0.000 OA
ATOM     13  C   UNL     1      45.734   3.143   7.098  0.00  0.00    +0.000 C 
ENDBRANCH   9  10
ENDBRANCH   8   9
ENDBRANCH   1   4
BRANCH   1  14
ATOM     14  C   UNL     1      47.490   5.843  13.280  0.00  0.00    +0.000 C 
BRANCH  14  15
ATOM     15  C   UNL     1      47.915   5.799  14.725  0.00  0.00    +0.000 A 
ATOM     16  C   UNL     1      48.794   6.743  15.226  0.00  0.00    +0.000 A 
ATOM     17  C   UNL     1      49.226   6.564  16.522  0.00  0.00    +0.000 A 
ATOM     18  N   UNL     1      48.834   5.545  17.304  0.00  0.00    +0.000 NA
ATOM     19  C   UNL     1      47.960   4.683  16.729  0.00  0.00    +0.000 A 
ATOM     20  N   UNL     1      47.477   4.762  15.471  0.00  0.00    +0.000 NA
BRANCH  19  21
ATOM     21  C   UNL     1      47.519   3.514  17.583  0.00  0.00    +0.000 C 
ATOM     22  N   UNL     1      48.382   3.150  18.592  0.00  0.00    +0.000 N 
ATOM     23  O   UNL     1      46.470   2.903  17.417  0.00  0.00    +0.000 OA
ATOM     24  H   UNL     1      49.253   3.652  18.721  0.00  0.00    +0.000 HD
ATOM     25  H   UNL     1      48.142   2.370  19.188  0.00  0.00    +0.000 HD
ENDBRANCH  19  21
ENDBRANCH  14  15
ENDBRANCH   1  14
TORSDOF 6
ENDMDL
MODEL 4
REMARK VINA RESULT:    -6.451      4.482      7.734
REMARK INTER + INTRA:          -9.513
REMARK INTER:                  -8.690
REMARK INTRA:                  -0.823
REMARK UNBOUND:                -0.799
REMARK  Name = 
REMARK  7 active torsions:
REMARK  status: ('A' for Active; 'I' for Inactive)
REMARK    1  A    between atoms: C_1  and  C_2
REMARK    2  A    between atoms: C_3  and  C_4
REMARK    3  A    between atoms: C_4  and  C_5
REMARK    4  A    between atoms: C_5  and  C_6
REMARK    5  A    between atoms: C_10  and  C_11
REMARK    6  A    between atoms: C_18  and  O_19
REMARK    7  A    between atoms: O_19  and  C_20
REMARK                            x       y       z     vdW  Elec       q    Type
REMARK                         _______ _______ _______ _____ _____    ______ ____
ROOT
ATOM      1  C   UNL     1      49.078   6.778  14.672  0.00  0.00    +0.000 C 
ENDROOT
BRANCH   1   4
ATOM      2  C   UNL     1      47.003   4.545  14.159  0.00  0.00    +0.000 C 
ATOM      3  C   UNL     1      46.811   5.963  13.687  0.00  0.00    +0.000 A 
ATOM      4  C   UNL     1      47.758   6.985  13.949  0.00  0.00    +0.000 A 
ATOM      5  C   UNL     1      47.438   8.306  13.583  0.00  0.00    +0.000 A 
ATOM      6  C   UNL     1      46.238   8.617  12.954  0.00  0.00    +0.000 A 
ATOM      7  C   UNL     1      45.341   7.605  12.636  0.00  0.00    +0.000 A 
ATOM      8  C   UNL     1      45.635   6.279  12.964  0.00  0.00    +0.000 A 
BRANCH   8   9
ATOM      9  O   UNL     1      44.808   5.230  12.616  0.00  0.00    +0.000 OA
BRANCH   9  10
ATOM     10  C   UNL     1      44.853   4.729  11.255  0.00  0.00    +0.000 C 
ATOM     11  C   UNL     1      43.514   4.686  10.506  0.00  0.00    +0.000 C 
ATOM     12  O   UNL     1      43.509   3.239  10.478  0.00  0.00    +0.000 OA
ATOM     13  C   UNL     1      44.841   3.207  11.036  0.00  0.00    +0.000 C 
ENDBRANCH   9  10
ENDBRANCH   8   9
ENDBRANCH   1   4
BRANCH   1  14
ATOM     14  C   UNL     1      49.121   7.033  16.184  0.00  0.00    +0.000 C 
BRANCH  14  15
ATOM     15  C   UNL     1      48.935   5.822  17.063  0.00  0.00    +0.000 A 
ATOM     16  C   UNL     1      48.344   5.944  18.307  0.00  0.00    +0.000 A 
ATOM     17  C   UNL     1      48.320   4.815  19.097  0.00  0.00    +0.000 A 
ATOM     18  N   UNL     1      48.825   3.629  18.717  0.00  0.00    +0.000 NA
ATOM     19  C   UNL     1      49.367   3.607  17.476  0.00  0.00    +0.000 A 
ATOM     20  N   UNL     1      49.446   4.652  16.624  0.00  0.00    +0.000 NA
BRANCH  19  21
ATOM     21  C   UNL     1      49.961   2.288  17.032  0.00  0.00    +0.000 C 
ATOM     22  N   UNL     1      50.952   1.775  17.840  0.00  0.00    +0.000 N 
ATOM     23  O   UNL     1      49.613   1.685  16.023  0.00  0.00    +0.000 OA
ATOM     24  H   UNL     1      51.243   2.280  18.669  0.00  0.00    +0.000 HD
ATOM     25  H   UNL     1      51.390   0.901  17.587  0.00  0.00    +0.000 HD
ENDBRANCH  19  21
ENDBRANCH  14  15
ENDBRANCH   1  14
TORSDOF 6
ENDMDL
MODEL 5
REMARK VINA RESULT:    -6.320      4.009      7.449
REMARK INTER + INTRA:          -9.336
REMARK INTER:                  -8.569
REMARK INTRA:                  -0.767
REMARK UNBOUND:                -0.799
REMARK  Name = 
REMARK  7 active torsions:
REMARK  status: ('A' for Active; 'I' for Inactive)
REMARK    1  A    between atoms: C_1  and  C_2
REMARK    2  A    between atoms: C_3  and  C_4
REMARK    3  A    between atoms: C_4  and  C_5
REMARK    4  A    between atoms: C_5  and  C_6
REMARK    5  A    between atoms: C_10  and  C_11
REMARK    6  A    between atoms: C_18  and  O_19
REMARK    7  A    between atoms: O_19  and  C_20
REMARK                            x       y       z     vdW  Elec       q    Type
REMARK                         _______ _______ _______ _____ _____    ______ ____
ROOT
ATOM      1  C   UNL     1      48.555   6.377  12.973  0.00  0.00    +0.000 C 
ENDROOT
BRANCH   1   4
ATOM      2  C   UNL     1      46.253   4.379  13.488  0.00  0.00    +0.000 C 
ATOM      3  C   UNL     1      46.040   5.722  12.839  0.00  0.00    +0.000 A 
ATOM      4  C   UNL     1      47.099   6.641  12.631  0.00  0.00    +0.000 A 
ATOM      5  C   UNL     1      46.788   7.922  12.136  0.00  0.00    +0.000 A 
ATOM      6  C   UNL     1      45.483   8.287  11.829  0.00  0.00    +0.000 A 
ATOM      7  C   UNL     1      44.454   7.363  11.969  0.00  0.00    +0.000 A 
ATOM      8  C   UNL     1      44.729   6.075  12.436  0.00  0.00    +0.000 A 
BRANCH   8   9
ATOM      9  O   UNL     1      43.755   5.101  12.534  0.00  0.00    +0.000 OA
BRANCH   9  10
ATOM     10  C   UNL     1      43.310   4.436  11.325  0.00  0.00    +0.000 C 
ATOM     11  C   UNL     1      43.381   2.902  11.332  0.00  0.00    +0.000 C 
ATOM     12  O   UNL     1      44.422   2.887  10.327  0.00  0.00    +0.000 OA
ATOM     13  C   UNL     1      44.297   4.316  10.151  0.00  0.00    +0.000 C 
ENDBRANCH   9  10
ENDBRANCH   8   9
ENDBRANCH   1   4
BRANCH   1  14
ATOM     14  C   UNL     1      49.163   7.125  14.167  0.00  0.00    +0.000 C 
BRANCH  14  15
ATOM     15  C   UNL     1      48.751   6.638  15.532  0.00  0.00    +0.000 A 
ATOM     16  C   UNL     1      48.859   7.466  16.634  0.00  0.00    +0.000 A 
ATOM     17  C   UNL     1      48.576   6.908  17.861  0.00  0.00    +0.000 A 
ATOM     18  N   UNL     1      48.199   5.630  18.029  0.00  0.00    +0.000 NA
ATOM     19  C   UNL     1      48.106   4.904  16.888  0.00  0.00    +0.000 A 
ATOM     20  N   UNL     1      48.363   5.349  15.640  0.00  0.00    +0.000 NA
BRANCH  19  21
ATOM     21  C   UNL     1      47.703   3.454  17.053  0.00  0.00    +0.000 C 
ATOM     22  N   UNL     1      48.720   2.533  16.934  0.00  0.00    +0.000 N 
ATOM     23  O   UNL     1      46.557   3.083  17.274  0.00  0.00    +0.000 OA
ATOM     24  H   UNL     1      49.666   2.843  16.742  0.00  0.00    +0.000 HD
ATOM     25  H   UNL     1      48.507   1.550  17.026  0.00  0.00    +0.000 HD
ENDBRANCH  19  21
ENDBRANCH  14  15
ENDBRANCH   1  14
TORSDOF 6
ENDMDL
MODEL 6
REMARK VINA RESULT:    -6.251      2.033      2.904
REMARK INTER + INTRA:          -9.242
REMARK INTER:                  -8.316
REMARK INTRA:                  -0.926
REMARK UNBOUND:                -0.799
REMARK  Name = 
REMARK  7 active torsions:
REMARK  status: ('A' for Active; 'I' for Inactive)
REMARK    1  A    between atoms: C_1  and  C_2
REMARK    2  A    between atoms: C_3  and  C_4
REMARK    3  A    between atoms: C_4  and  C_5
REMARK    4  A    between atoms: C_5  and  C_6
REMARK    5  A    between atoms: C_10  and  C_11
REMARK    6  A    between atoms: C_18  and  O_19
REMARK    7  A    between atoms: O_19  and  C_20
REMARK                            x       y       z     vdW  Elec       q    Type
REMARK                         _______ _______ _______ _____ _____    ______ ____
ROOT
ATOM      1  C   UNL     1      46.109   7.299  11.773  0.00  0.00    +0.000 C 
ENDROOT
BRANCH   1   4
ATOM      2  C   UNL     1      47.316   4.874  13.262  0.00  0.00    +0.000 C 
ATOM      3  C   UNL     1      47.520   6.296  13.716  0.00  0.00    +0.000 A 
ATOM      4  C   UNL     1      46.983   7.402  13.011  0.00  0.00    +0.000 A 
ATOM      5  C   UNL     1      47.330   8.700  13.433  0.00  0.00    +0.000 A 
ATOM      6  C   UNL     1      48.158   8.912  14.530  0.00  0.00    +0.000 A 
ATOM      7  C   UNL     1      48.629   7.828  15.261  0.00  0.00    +0.000 A 
ATOM      8  C   UNL     1      48.287   6.527  14.885  0.00  0.00    +0.000 A 
BRANCH   8   9
ATOM      9  O   UNL     1      48.677   5.420  15.612  0.00  0.00    +0.000 OA
BRANCH   9  10
ATOM     10  C   UNL     1      48.055   5.179  16.900  0.00  0.00    +0.000 C 
ATOM     11  C   UNL     1      48.940   4.510  17.962  0.00  0.00    +0.000 C 
ATOM     12  O   UNL     1      48.146   3.300  17.946  0.00  0.00    +0.000 OA
ATOM     13  C   UNL     1      47.182   3.924  17.069  0.00  0.00    +0.000 C 
ENDBRANCH   9  10
ENDBRANCH   8   9
ENDBRANCH   1   4
BRANCH   1  14
ATOM     14  C   UNL     1      44.615   7.008  11.966  0.00  0.00    +0.000 C 
BRANCH  14  15
ATOM     15  C   UNL     1      44.193   5.572  11.788  0.00  0.00    +0.000 A 
ATOM     16  C   UNL     1      43.610   4.879  12.834  0.00  0.00    +0.000 A 
ATOM     17  C   UNL     1      43.363   3.539  12.629  0.00  0.00    +0.000 A 
ATOM     18  N   UNL     1      43.649   2.895  11.486  0.00  0.00    +0.000 NA
ATOM     19  C   UNL     1      44.203   3.663  10.517  0.00  0.00    +0.000 A 
ATOM     20  N   UNL     1      44.489   4.979  10.613  0.00  0.00    +0.000 NA
BRANCH  19  21
ATOM     21  C   UNL     1      44.554   2.956   9.226  0.00  0.00    +0.000 C 
ATOM     22  N   UNL     1      44.344   3.677   8.072  0.00  0.00    +0.000 N 
ATOM     23  O   UNL     1      44.996   1.814   9.169  0.00  0.00    +0.000 OA
ATOM     24  H   UNL     1      43.970   4.618   8.122  0.00  0.00    +0.000 HD
ATOM     25  H   UNL     1      44.552   3.250   7.180  0.00  0.00    +0.000 HD
ENDBRANCH  19  21
ENDBRANCH  14  15
ENDBRANCH   1  14
TORSDOF 6
ENDMDL
MODEL 7
REMARK VINA RESULT:    -5.941      4.228      7.899
REMARK INTER + INTRA:          -8.823
REMARK INTER:                  -8.244
REMARK INTRA:                  -0.579
REMARK UNBOUND:                -0.799
REMARK  Name = 
REMARK  7 active torsions:
REMARK  status: ('A' for Active; 'I' for Inactive)
REMARK    1  A    between atoms: C_1  and  C_2
REMARK    2  A    between atoms: C_3  and  C_4
REMARK    3  A    between atoms: C_4  and  C_5
REMARK    4  A    between atoms: C_5  and  C_6
REMARK    5  A    between atoms: C_10  and  C_11
REMARK    6  A    between atoms: C_18  and  O_19
REMARK    7  A    between atoms: O_19  and  C_20
REMARK                            x       y       z     vdW  Elec       q    Type
REMARK                         _______ _______ _______ _____ _____    ______ ____
ROOT
ATOM      1  C   UNL     1      47.358   5.065  14.060  0.00  0.00    +0.000 C 
ENDROOT
BRANCH   1   4
ATOM      2  C   UNL     1      45.403   3.222  12.532  0.00  0.00    +0.000 C 
ATOM      3  C   UNL     1      45.440   4.715  12.336  0.00  0.00    +0.000 A 
ATOM      4  C   UNL     1      46.323   5.554  13.062  0.00  0.00    +0.000 A 
ATOM      5  C   UNL     1      46.201   6.948  12.910  0.00  0.00    +0.000 A 
ATOM      6  C   UNL     1      45.259   7.508  12.053  0.00  0.00    +0.000 A 
ATOM      7  C   UNL     1      44.439   6.683  11.293  0.00  0.00    +0.000 A 
ATOM      8  C   UNL     1      44.549   5.294  11.401  0.00  0.00    +0.000 A 
BRANCH   8   9
ATOM      9  O   UNL     1      43.802   4.431  10.622  0.00  0.00    +0.000 OA
BRANCH   9  10
ATOM     10  C   UNL     1      44.176   4.246   9.234  0.00  0.00    +0.000 C 
ATOM     11  C   UNL     1      44.536   2.812   8.816  0.00  0.00    +0.000 C 
ATOM     12  O   UNL     1      45.923   3.163   8.594  0.00  0.00    +0.000 OA
ATOM     13  C   UNL     1      45.624   4.559   8.818  0.00  0.00    +0.000 C 
ENDBRANCH   9  10
ENDBRANCH   8   9
ENDBRANCH   1   4
BRANCH   1  14
ATOM     14  C   UNL     1      47.699   5.972  15.249  0.00  0.00    +0.000 C 
BRANCH  14  15
ATOM     15  C   UNL     1      48.275   5.285  16.460  0.00  0.00    +0.000 A 
ATOM     16  C   UNL     1      48.215   5.889  17.703  0.00  0.00    +0.000 A 
ATOM     17  C   UNL     1      48.870   5.253  18.735  0.00  0.00    +0.000 A 
ATOM     18  N   UNL     1      49.538   4.096  18.593  0.00  0.00    +0.000 NA
ATOM     19  C   UNL     1      49.525   3.576  17.342  0.00  0.00    +0.000 A 
ATOM     20  N   UNL     1      48.921   4.116  16.263  0.00  0.00    +0.000 NA
BRANCH  19  21
ATOM     21  C   UNL     1      50.289   2.283  17.151  0.00  0.00    +0.000 C 
ATOM     22  N   UNL     1      51.244   2.006  18.104  0.00  0.00    +0.000 N 
ATOM     23  O   UNL     1      50.101   1.508  16.220  0.00  0.00    +0.000 OA
ATOM     24  H   UNL     1      51.403   2.653  18.867  0.00  0.00    +0.000 HD
ATOM     25  H   UNL     1      51.791   1.160  18.020  0.00  0.00    +0.000 HD
ENDBRANCH  19  21
ENDBRANCH  14  15
ENDBRANCH   1  14
TORSDOF 6
ENDMDL
MODEL 8
REMARK VINA RESULT:    -5.745      4.353      7.784
REMARK INTER + INTRA:          -8.559
REMARK INTER:                  -8.445
REMARK INTRA:                  -0.113
REMARK UNBOUND:                -0.799
REMARK  Name = 
REMARK  7 active torsions:
REMARK  status: ('A' for Active; 'I' for Inactive)
REMARK    1  A    between atoms: C_1  and  C_2
REMARK    2  A    between atoms: C_3  and  C_4
REMARK    3  A    between atoms: C_4  and  C_5
REMARK    4  A    between atoms: C_5  and  C_6
REMARK    5  A    between atoms: C_10  and  C_11
REMARK    6  A    between atoms: C_18  and  O_19
REMARK    7  A    between atoms: O_19  and  C_20
REMARK                            x       y       z     vdW  Elec       q    Type
REMARK                         _______ _______ _______ _____ _____    ______ ____
ROOT
ATOM      1  C   UNL     1      44.591   5.162  11.853  0.00  0.00    +0.000 C 
ENDROOT
BRANCH   1   4
ATOM      2  C   UNL     1      46.015   5.668   9.157  0.00  0.00    +0.000 C 
ATOM      3  C   UNL     1      45.269   4.394   9.461  0.00  0.00    +0.000 A 
ATOM      4  C   UNL     1      44.642   4.163  10.711  0.00  0.00    +0.000 A 
ATOM      5  C   UNL     1      44.078   2.896  10.955  0.00  0.00    +0.000 A 
ATOM      6  C   UNL     1      44.105   1.891   9.995  0.00  0.00    +0.000 A 
ATOM      7  C   UNL     1      44.660   2.140   8.746  0.00  0.00    +0.000 A 
ATOM      8  C   UNL     1      45.208   3.394   8.461  0.00  0.00    +0.000 A 
BRANCH   8   9
ATOM      9  O   UNL     1      45.716   3.714   7.217  0.00  0.00    +0.000 OA
BRANCH   9  10
ATOM     10  C   UNL     1      47.052   3.267   6.875  0.00  0.00    +0.000 C 
ATOM     11  C   UNL     1      47.243   2.740   5.445  0.00  0.00    +0.000 C 
ATOM     12  O   UNL     1      47.482   1.391   5.911  0.00  0.00    +0.000 OA
ATOM     13  C   UNL     1      47.475   1.846   7.283  0.00  0.00    +0.000 C 
ENDBRANCH   9  10
ENDBRANCH   8   9
ENDBRANCH   1   4
BRANCH   1  14
ATOM     14  C   UNL     1      45.920   5.663  12.434  0.00  0.00    +0.000 C 
BRANCH  14  15
ATOM     15  C   UNL     1      46.174   7.144  12.322  0.00  0.00    +0.000 A 
ATOM     16  C   UNL     1      47.373   7.684  12.751  0.00  0.00    +0.000 A 
ATOM     17  C   UNL     1      47.480   9.057  12.726  0.00  0.00    +0.000 A 
ATOM     18  N   UNL     1      46.500   9.873  12.305  0.00  0.00    +0.000 NA
ATOM     19  C   UNL     1      45.372   9.249  11.889  0.00  0.00    +0.000 A 
ATOM     20  N   UNL     1      45.160   7.916  11.876  0.00  0.00    +0.000 NA
BRANCH  19  21
ATOM     21  C   UNL     1      44.244  10.148  11.430  0.00  0.00    +0.000 C 
ATOM     22  N   UNL     1      43.572   9.735  10.300  0.00  0.00    +0.000 N 
ATOM     23  O   UNL     1      43.922  11.186  11.996  0.00  0.00    +0.000 OA
ATOM     24  H   UNL     1      43.847   8.882   9.829  0.00  0.00    +0.000 HD
ATOM     25  H   UNL     1      42.816  10.303   9.944  0.00  0.00    +0.000 HD
ENDBRANCH  19  21
ENDBRANCH  14  15
ENDBRANCH   1  14
TORSDOF 6
ENDMDL
MODEL 9
REMARK VINA RESULT:    -5.580      2.708      4.753
REMARK INTER + INTRA:          -8.336
REMARK INTER:                  -7.809
REMARK INTRA:                  -0.527
REMARK UNBOUND:                -0.799
REMARK  Name = 
REMARK  7 active torsions:
REMARK  status: ('A' for Active; 'I' for Inactive)
REMARK    1  A    between atoms: C_1  and  C_2
REMARK    2  A    between atoms: C_3  and  C_4
REMARK    3  A    between atoms: C_4  and  C_5
REMARK    4  A    between atoms: C_5  and  C_6
REMARK    5  A    between atoms: C_10  and  C_11
REMARK    6  A    between atoms: C_18  and  O_19
REMARK    7  A    between atoms: O_19  and  C_20
REMARK                            x       y       z     vdW  Elec       q    Type
REMARK                         _______ _______ _______ _____ _____    ______ ____
ROOT
ATOM      1  C   UNL     1      47.174   4.975  14.485  0.00  0.00    +0.000 C 
ENDROOT
BRANCH   1   4
ATOM      2  C   UNL     1      48.976   6.863  16.141  0.00  0.00    +0.000 C 
ATOM      3  C   UNL     1      48.528   5.514  16.641  0.00  0.00    +0.000 A 
ATOM      4  C   UNL     1      47.681   4.667  15.883  0.00  0.00    +0.000 A 
ATOM      5  C   UNL     1      47.209   3.482  16.479  0.00  0.00    +0.000 A 
ATOM      6  C   UNL     1      47.575   3.121  17.770  0.00  0.00    +0.000 A 
ATOM      7  C   UNL     1      48.459   3.918  18.488  0.00  0.00    +0.000 A 
ATOM      8  C   UNL     1      48.966   5.089  17.919  0.00  0.00    +0.000 A 
BRANCH   8   9
ATOM      9  O   UNL     1      49.894   5.883  18.563  0.00  0.00    +0.000 OA
BRANCH   9  10
ATOM     10  C   UNL     1      49.462   6.681  19.695  0.00  0.00    +0.000 C 
ATOM     11  C   UNL     1      47.961   7.000  19.763  0.00  0.00    +0.000 C 
ATOM     12  O   UNL     1      48.191   8.410  19.530  0.00  0.00    +0.000 OA
ATOM     13  C   UNL     1      49.619   8.209  19.616  0.00  0.00    +0.000 C 
ENDBRANCH   9  10
ENDBRANCH   8   9
ENDBRANCH   1   4
BRANCH   1  14
ATOM     14  C   UNL     1      46.704   3.804  13.612  0.00  0.00    +0.000 C 
BRANCH  14  15
ATOM     15  C   UNL     1      45.491   4.063  12.756  0.00  0.00    +0.000 A 
ATOM     16  C   UNL     1      44.383   4.698  13.286  0.00  0.00    +0.000 A 
ATOM     17  C   UNL     1      43.273   4.790  12.474  0.00  0.00    +0.000 A 
ATOM     18  N   UNL     1      43.225   4.312  11.220  0.00  0.00    +0.000 NA
ATOM     19  C   UNL     1      44.366   3.722  10.786  0.00  0.00    +0.000 A 
ATOM     20  N   UNL     1      45.504   3.576  11.497  0.00  0.00    +0.000 NA
BRANCH  19  21
ATOM     21  C   UNL     1      44.331   3.157   9.383  0.00  0.00    +0.000 C 
ATOM     22  N   UNL     1      44.119   4.070   8.374  0.00  0.00    +0.000 N 
ATOM     23  O   UNL     1      44.473   1.968   9.121  0.00  0.00    +0.000 OA
ATOM     24  H   UNL     1      43.993   5.051   8.596  0.00  0.00    +0.000 HD
ATOM     25  H   UNL     1      44.078   3.746   7.418  0.00  0.00    +0.000 HD
ENDBRANCH  19  21
ENDBRANCH  14  15
ENDBRANCH   1  14
TORSDOF 6
ENDMDL
