MODEL 1
REMARK VINA RESULT:    -7.333      0.000      0.000
REMARK INTER + INTRA:         -12.473
REMARK INTER:                 -10.976
REMARK INTRA:                  -1.497
REMARK UNBOUND:                -1.497
REMARK  Name = 
REMARK  11 active torsions:
REMARK  status: ('A' for Active; 'I' for Inactive)
REMARK    1  A    between atoms: C_1  and  O_2
REMARK    2  A    between atoms: O_2  and  C_3
REMARK    3  A    between atoms: C_10  and  C_11
REMARK    4  A    between atoms: N_13  and  C_14
REMARK    5  A    between atoms: C_14  and  C_15
REMARK    6  A    between atoms: C_18  and  N_19
REMARK    7  A    between atoms: N_19  and  C_20
REMARK    8  A    between atoms: C_20  and  C_21
REMARK    9  A    between atoms: C_25  and  C_26
REMARK   10  A    between atoms: C_29  and  C_30
REMARK   11  A    between atoms: C_30  and  O_31
REMARK                            x       y       z     vdW  Elec       q    Type
REMARK                         _______ _______ _______ _____ _____    ______ ____
ROOT
ATOM      1  C   UNL     1      48.368   6.962  14.998  0.00  0.00    +0.000 A 
ATOM      2  C   UNL     1      47.768   5.724  14.729  0.00  0.00    +0.000 A 
ATOM      3  C   UNL     1      47.142   5.477  13.493  0.00  0.00    +0.000 A 
ATOM      4  C   UNL     1      47.084   6.463  12.504  0.00  0.00    +0.000 A 
ATOM      5  C   UNL     1      47.755   7.668  12.758  0.00  0.00    +0.000 A 
ATOM      6  C   UNL     1      48.380   7.922  13.984  0.00  0.00    +0.000 A 
ENDROOT
BRANCH   4   7
ATOM      7  N   UNL     1      46.521   6.287  11.235  0.00  0.00    +0.000 N 
ATOM      8  H   UNL     1      46.799   7.050  10.625  0.00  0.00    +0.000 HD
BRANCH   7   9
ATOM      9  C   UNL     1      45.123   5.903  11.073  0.00  0.00    +0.000 C 
BRANCH   9  10
ATOM     10  C   UNL     1      44.910   4.974   9.851  0.00  0.00    +0.000 C 
ATOM     11  C   UNL     1      46.063   5.047   8.820  0.00  0.00    +0.000 C 
ATOM     12  C   UNL     1      45.817   4.137   7.616  0.00  0.00    +0.000 C 
ATOM     13  N   UNL     1      45.530   2.782   8.069  0.00  0.00    +0.000 N 
ATOM     14  C   UNL     1      46.339   1.665   7.938  0.00  0.00    +0.000 C 
ATOM     15  C   UNL     1      47.659   1.767   7.213  0.00  0.00    +0.000 C 
ATOM     16  O   UNL     1      46.015   0.575   8.419  0.00  0.00    +0.000 OA
ATOM     17  C   UNL     1      44.338   2.689   8.914  0.00  0.00    +0.000 C 
ATOM     18  C   UNL     1      44.519   3.507  10.211  0.00  0.00    +0.000 C 
BRANCH  18  19
ATOM     19  C   UNL     1      45.471   2.798  11.187  0.00  0.00    +0.000 C 
BRANCH  19  20
ATOM     20  O   UNL     1      44.862   2.661  12.468  0.00  0.00    +0.000 OA
ATOM     21  H   UNL     1      44.249   3.408  12.582  0.00  0.00    +0.000 HD
ENDBRANCH  19  20
ENDBRANCH  18  19
ENDBRANCH   9  10
ENDBRANCH   7   9
ENDBRANCH   4   7
BRANCH   1  22
ATOM     22  C   UNL     1      49.013   7.248  16.330  0.00  0.00    +0.000 C 
BRANCH  22  25
ATOM     23  C   UNL     1      50.469   6.099  17.946  0.00  0.00    +0.000 C 
ATOM     24  O   UNL     1      50.080   6.816  18.859  0.00  0.00    +0.000 OA
ATOM     25  N   UNL     1      49.997   6.252  16.670  0.00  0.00    +0.000 N 
ATOM     26  H   UNL     1      50.388   5.703  15.914  0.00  0.00    +0.000 HD
BRANCH  23  34
ATOM     27  C   UNL     1      50.535   2.733  17.197  0.00  0.00    +0.000 A 
ATOM     28  N   UNL     1      50.783   1.409  17.118  0.00  0.00    +0.000 NA
ATOM     29  C   UNL     1      51.910   0.942  17.657  0.00  0.00    +0.000 A 
ATOM     30  N   UNL     1      52.850   1.648  18.275  0.00  0.00    +0.000 NA
ATOM     31  C   UNL     1      52.560   2.959  18.350  0.00  0.00    +0.000 A 
ATOM     32  S   UNL     1      53.659   4.012  19.099  0.00  0.00    +0.000 S 
ATOM     33  C   UNL     1      52.640   5.346  18.829  0.00  0.00    +0.000 A 
ATOM     34  C   UNL     1      51.454   5.026  18.177  0.00  0.00    +0.000 A 
ATOM     35  C   UNL     1      51.424   3.598  17.861  0.00  0.00    +0.000 A 
BRANCH  27  37
ATOM     36  C   UNL     1      48.196   2.863  17.256  0.00  0.00    +0.000 C 
ATOM     37  O   UNL     1      49.401   3.220  16.580  0.00  0.00    +0.000 OA
ENDBRANCH  27  37
ENDBRANCH  23  34
ENDBRANCH  22  25
ENDBRANCH   1  22
TORSDOF 9
ENDMDL
MODEL 2
REMARK VINA RESULT:    -7.105      1.944      3.399
REMARK INTER + INTRA:         -12.133
REMARK INTER:                 -10.956
REMARK INTRA:                  -1.177
REMARK UNBOUND:                -1.497
REMARK  Name = 
REMARK  11 active torsions:
REMARK  status: ('A' for Active; 'I' for Inactive)
REMARK    1  A    between atoms: C_1  and  O_2
REMARK    2  A    between atoms: O_2  and  C_3
REMARK    3  A    between atoms: C_10  and  C_11
REMARK    4  A    between atoms: N_13  and  C_14
REMARK    5  A    between atoms: C_14  and  C_15
REMARK    6  A    between atoms: C_18  and  N_19
REMARK    7  A    between atoms: N_19  and  C_20
REMARK    8  A    between atoms: C_20  and  C_21
REMARK    9  A    between atoms: C_25  and  C_26
REMARK   10  A    between atoms: C_29  and  C_30
REMARK   11  A    between atoms: C_30  and  O_31
REMARK                            x       y       z     vdW  Elec       q    Type
REMARK                         _______ _______ _______ _____ _____    ______ ____
ROOT
ATOM      1  C   UNL     1      48.023   4.283  16.639  0.00  0.00    +0.000 A 
ATOM      2  C   UNL     1      48.566   5.573  16.585  0.00  0.00    +0.000 A 
ATOM      3  C   UNL     1      48.392   6.385  15.449  0.00  0.00    +0.000 A 
ATOM      4  C   UNL     1      47.689   5.922  14.333  0.00  0.00    +0.000 A 
ATOM      5  C   UNL     1      47.086   4.660  14.433  0.00  0.00    +0.000 A 
ATOM      6  C   UNL     1      47.253   3.847  15.559  0.00  0.00    +0.000 A 
ENDROOT
BRANCH   4   7
ATOM      7  N   UNL     1      47.433   6.677  13.183  0.00  0.00    +0.000 N 
ATOM      8  H   UNL     1      48.225   7.281  12.984  0.00  0.00    +0.000 HD
BRANCH   7   9
ATOM      9  C   UNL     1      46.145   7.331  12.977  0.00  0.00    +0.000 C 
BRANCH   9  10
ATOM     10  C   UNL     1      45.356   6.708  11.797  0.00  0.00    +0.000 C 
ATOM     11  C   UNL     1      46.262   5.981  10.773  0.00  0.00    +0.000 C 
ATOM     12  C   UNL     1      45.459   5.395   9.610  0.00  0.00    +0.000 C 
ATOM     13  N   UNL     1      44.379   4.560  10.124  0.00  0.00    +0.000 N 
ATOM     14  C   UNL     1      44.279   3.180  10.051  0.00  0.00    +0.000 C 
ATOM     15  C   UNL     1      45.339   2.381   9.332  0.00  0.00    +0.000 C 
ATOM     16  O   UNL     1      43.342   2.574  10.580  0.00  0.00    +0.000 OA
ATOM     17  C   UNL     1      43.427   5.290  10.964  0.00  0.00    +0.000 C 
ATOM     18  C   UNL     1      44.123   5.851  12.222  0.00  0.00    +0.000 C 
BRANCH  18  19
ATOM     19  C   UNL     1      44.421   4.736  13.237  0.00  0.00    +0.000 C 
BRANCH  19  20
ATOM     20  O   UNL     1      43.326   3.826  13.316  0.00  0.00    +0.000 OA
ATOM     21  H   UNL     1      42.901   3.955  14.181  0.00  0.00    +0.000 HD
ENDBRANCH  19  20
ENDBRANCH  18  19
ENDBRANCH   9  10
ENDBRANCH   7   9
ENDBRANCH   4   7
BRANCH   1  22
ATOM     22  C   UNL     1      48.229   3.394  17.839  0.00  0.00    +0.000 C 
BRANCH  22  25
ATOM     23  C   UNL     1      50.344   2.288  17.245  0.00  0.00    +0.000 C 
ATOM     24  O   UNL     1      49.825   1.733  16.285  0.00  0.00    +0.000 OA
ATOM     25  N   UNL     1      49.625   3.116  18.063  0.00  0.00    +0.000 N 
ATOM     26  H   UNL     1      50.051   3.503  18.896  0.00  0.00    +0.000 HD
BRANCH  23  34
ATOM     27  C   UNL     1      52.959   4.471  17.789  0.00  0.00    +0.000 A 
ATOM     28  N   UNL     1      54.155   5.076  17.945  0.00  0.00    +0.000 NA
ATOM     29  C   UNL     1      55.236   4.311  18.102  0.00  0.00    +0.000 A 
ATOM     30  N   UNL     1      55.275   2.983  18.131  0.00  0.00    +0.000 NA
ATOM     31  C   UNL     1      54.070   2.417  17.954  0.00  0.00    +0.000 A 
ATOM     32  S   UNL     1      53.935   0.725  17.973  0.00  0.00    +0.000 S 
ATOM     33  C   UNL     1      52.261   0.807  17.682  0.00  0.00    +0.000 A 
ATOM     34  C   UNL     1      51.774   2.103  17.559  0.00  0.00    +0.000 A 
ATOM     35  C   UNL     1      52.855   3.068  17.755  0.00  0.00    +0.000 A 
BRANCH  27  37
ATOM     36  C   UNL     1      51.599   6.049  18.863  0.00  0.00    +0.000 C 
ATOM     37  O   UNL     1      51.835   5.266  17.693  0.00  0.00    +0.000 OA
ENDBRANCH  27  37
ENDBRANCH  23  34
ENDBRANCH  22  25
ENDBRANCH   1  22
TORSDOF 9
ENDMDL
MODEL 3
REMARK VINA RESULT:    -7.040      2.351      2.695
REMARK INTER + INTRA:         -12.035
REMARK INTER:                 -10.418
REMARK INTRA:                  -1.617
REMARK UNBOUND:                -1.497
REMARK  Name = 
REMARK  11 active torsions:
REMARK  status: ('A' for Active; 'I' for Inactive)
REMARK    1  A    between atoms: C_1  and  O_2
REMARK    2  A    between atoms: O_2  and  C_3
REMARK    3  A    between atoms: C_10  and  C_11
REMARK    4  A    between atoms: N_13  and  C_14
REMARK    5  A    between atoms: C_14  and  C_15
REMARK    6  A    between atoms: C_18  and  N_19
REMARK    7  A    between atoms: N_19  and  C_20
REMARK    8  A    between atoms: C_20  and  C_21
REMARK    9  A    between atoms: C_25  and  C_26
REMARK   10  A    between atoms: C_29  and  C_30
REMARK   11  A    between atoms: C_30  and  O_31
REMARK                            x       y       z     vdW  Elec       q    Type
REMARK                         _______ _______ _______ _____ _____    ______ ____
ROOT
ATOM      1  C   UNL     1      47.979   8.177  13.358  0.00  0.00    +0.000 A 
ATOM      2  C   UNL     1      46.715   8.781  13.403  0.00  0.00    +0.000 A 
ATOM      3  C   UNL     1      45.671   8.336  12.571  0.00  0.00    +0.000 A 
ATOM      4  C   UNL     1      45.867   7.291  11.664  0.00  0.00    +0.000 A 
ATOM      5  C   UNL     1      47.113   6.648  11.685  0.00  0.00    +0.000 A 
ATOM      6  C   UNL     1      48.157   7.083  12.509  0.00  0.00    +0.000 A 
ENDROOT
BRANCH   4   7
ATOM      7  N   UNL     1      44.875   6.760  10.833  0.00  0.00    +0.000 N 
ATOM      8  H   UNL     1      44.191   7.477  10.610  0.00  0.00    +0.000 HD
BRANCH   7   9
ATOM      9  C   UNL     1      44.273   5.459  11.108  0.00  0.00    +0.000 C 
BRANCH   9  10
ATOM     10  C   UNL     1      44.286   4.535   9.864  0.00  0.00    +0.000 C 
ATOM     11  C   UNL     1      45.397   4.895   8.848  0.00  0.00    +0.000 C 
ATOM     12  C   UNL     1      45.373   3.982   7.621  0.00  0.00    +0.000 C 
ATOM     13  N   UNL     1      45.402   2.586   8.041  0.00  0.00    +0.000 N 
ATOM     14  C   UNL     1      46.447   1.688   7.895  0.00  0.00    +0.000 C 
ATOM     15  C   UNL     1      47.713   2.108   7.187  0.00  0.00    +0.000 C 
ATOM     16  O   UNL     1      46.380   0.542   8.349  0.00  0.00    +0.000 OA
ATOM     17  C   UNL     1      44.259   2.202   8.872  0.00  0.00    +0.000 C 
ATOM     18  C   UNL     1      44.241   3.009  10.188  0.00  0.00    +0.000 C 
BRANCH  18  19
ATOM     19  C   UNL     1      45.325   2.515  11.158  0.00  0.00    +0.000 C 
BRANCH  19  20
ATOM     20  O   UNL     1      44.828   2.496  12.494  0.00  0.00    +0.000 OA
ATOM     21  H   UNL     1      44.064   3.097  12.530  0.00  0.00    +0.000 HD
ENDBRANCH  19  20
ENDBRANCH  18  19
ENDBRANCH   9  10
ENDBRANCH   7   9
ENDBRANCH   4   7
BRANCH   1  22
ATOM     22  C   UNL     1      49.114   8.666  14.222  0.00  0.00    +0.000 C 
BRANCH  22  25
ATOM     23  C   UNL     1      48.659   8.237  16.602  0.00  0.00    +0.000 C 
ATOM     24  O   UNL     1      47.993   9.261  16.694  0.00  0.00    +0.000 OA
ATOM     25  N   UNL     1      49.249   7.877  15.421  0.00  0.00    +0.000 N 
ATOM     26  H   UNL     1      49.859   7.070  15.383  0.00  0.00    +0.000 HD
BRANCH  23  34
ATOM     27  C   UNL     1      48.408   4.821  17.008  0.00  0.00    +0.000 A 
ATOM     28  N   UNL     1      48.291   3.558  17.466  0.00  0.00    +0.000 NA
ATOM     29  C   UNL     1      48.494   3.333  18.765  0.00  0.00    +0.000 A 
ATOM     30  N   UNL     1      48.814   4.233  19.688  0.00  0.00    +0.000 NA
ATOM     31  C   UNL     1      48.903   5.481  19.199  0.00  0.00    +0.000 A 
ATOM     32  S   UNL     1      49.314   6.757  20.240  0.00  0.00    +0.000 S 
ATOM     33  C   UNL     1      49.200   7.890  18.978  0.00  0.00    +0.000 A 
ATOM     34  C   UNL     1      48.845   7.334  17.753  0.00  0.00    +0.000 A 
ATOM     35  C   UNL     1      48.700   5.885  17.881  0.00  0.00    +0.000 A 
BRANCH  27  37
ATOM     36  C   UNL     1      47.094   4.425  15.107  0.00  0.00    +0.000 C 
ATOM     37  O   UNL     1      48.263   5.038  15.653  0.00  0.00    +0.000 OA
ENDBRANCH  27  37
ENDBRANCH  23  34
ENDBRANCH  22  25
ENDBRANCH   1  22
TORSDOF 9
ENDMDL
MODEL 4
REMARK VINA RESULT:    -6.996      1.086      1.546
REMARK INTER + INTRA:         -11.969
REMARK INTER:                 -10.309
REMARK INTRA:                  -1.660
REMARK UNBOUND:                -1.497
REMARK  Name = 
REMARK  11 active torsions:
REMARK  status: ('A' for Active; 'I' for Inactive)
REMARK    1  A    between atoms: C_1  and  O_2
REMARK    2  A    between atoms: O_2  and  C_3
REMARK    3  A    between atoms: C_10  and  C_11
REMARK    4  A    between atoms: N_13  and  C_14
REMARK    5  A    between atoms: C_14  and  C_15
REMARK    6  A    between atoms: C_18  and  N_19
REMARK    7  A    between atoms: N_19  and  C_20
REMARK    8  A    between atoms: C_20  and  C_21
REMARK    9  A    between atoms: C_25  and  C_26
REMARK   10  A    between atoms: C_29  and  C_30
REMARK   11  A    between atoms: C_30  and  O_31
REMARK                            x       y       z     vdW  Elec       q    Type
REMARK                         _______ _______ _______ _____ _____    ______ ____
ROOT
ATOM      1  C   UNL     1      49.707   7.293  15.429  0.00  0.00    +0.000 A 
ATOM      2  C   UNL     1      49.967   8.032  14.267  0.00  0.00    +0.000 A 
ATOM      3  C   UNL     1      49.202   7.841  13.102  0.00  0.00    +0.000 A 
ATOM      4  C   UNL     1      48.173   6.896  13.062  0.00  0.00    +0.000 A 
ATOM      5  C   UNL     1      47.875   6.220  14.254  0.00  0.00    +0.000 A 
ATOM      6  C   UNL     1      48.630   6.404  15.417  0.00  0.00    +0.000 A 
ENDROOT
BRANCH   4   7
ATOM      7  N   UNL     1      47.338   6.673  11.961  0.00  0.00    +0.000 N 
ATOM      8  H   UNL     1      47.689   7.180  11.154  0.00  0.00    +0.000 HD
BRANCH   7   9
ATOM      9  C   UNL     1      45.886   6.731  12.088  0.00  0.00    +0.000 C 
BRANCH   9  10
ATOM     10  C   UNL     1      45.169   5.954  10.954  0.00  0.00    +0.000 C 
ATOM     11  C   UNL     1      46.109   5.580   9.782  0.00  0.00    +0.000 C 
ATOM     12  C   UNL     1      45.372   4.833   8.669  0.00  0.00    +0.000 C 
ATOM     13  N   UNL     1      44.658   3.691   9.227  0.00  0.00    +0.000 N 
ATOM     14  C   UNL     1      44.958   2.349   9.053  0.00  0.00    +0.000 C 
ATOM     15  C   UNL     1      46.104   1.939   8.161  0.00  0.00    +0.000 C 
ATOM     16  O   UNL     1      44.315   1.466   9.629  0.00  0.00    +0.000 OA
ATOM     17  C   UNL     1      43.650   4.061  10.222  0.00  0.00    +0.000 C 
ATOM     18  C   UNL     1      44.306   4.748  11.439  0.00  0.00    +0.000 C 
BRANCH  18  19
ATOM     19  C   UNL     1      45.044   3.729  12.321  0.00  0.00    +0.000 C 
BRANCH  19  20
ATOM     20  O   UNL     1      44.268   2.543  12.471  0.00  0.00    +0.000 OA
ATOM     21  H   UNL     1      44.829   1.879  12.907  0.00  0.00    +0.000 HD
ENDBRANCH  19  20
ENDBRANCH  18  19
ENDBRANCH   9  10
ENDBRANCH   7   9
ENDBRANCH   4   7
BRANCH   1  22
ATOM     22  C   UNL     1      50.540   7.467  16.674  0.00  0.00    +0.000 C 
BRANCH  22  25
ATOM     23  C   UNL     1      51.660   5.945  18.249  0.00  0.00    +0.000 C 
ATOM     24  O   UNL     1      51.343   6.644  19.203  0.00  0.00    +0.000 OA
ATOM     25  N   UNL     1      51.308   6.284  16.970  0.00  0.00    +0.000 N 
ATOM     26  H   UNL     1      51.646   5.737  16.188  0.00  0.00    +0.000 HD
BRANCH  23  34
ATOM     27  C   UNL     1      51.065   2.654  17.405  0.00  0.00    +0.000 A 
ATOM     28  N   UNL     1      51.052   1.310  17.284  0.00  0.00    +0.000 NA
ATOM     29  C   UNL     1      52.075   0.618  17.787  0.00  0.00    +0.000 A 
ATOM     30  N   UNL     1      53.143   1.111  18.405  0.00  0.00    +0.000 NA
ATOM     31  C   UNL     1      53.112   2.450  18.523  0.00  0.00    +0.000 A 
ATOM     32  S   UNL     1      54.404   3.249  19.279  0.00  0.00    +0.000 S 
ATOM     33  C   UNL     1      53.658   4.761  19.067  0.00  0.00    +0.000 A 
ATOM     34  C   UNL     1      52.422   4.695  18.430  0.00  0.00    +0.000 A 
ATOM     35  C   UNL     1      52.113   3.311  18.075  0.00  0.00    +0.000 A 
BRANCH  27  37
ATOM     36  C   UNL     1      48.813   3.287  17.554  0.00  0.00    +0.000 C 
ATOM     37  O   UNL     1      50.038   3.369  16.825  0.00  0.00    +0.000 OA
ENDBRANCH  27  37
ENDBRANCH  23  34
ENDBRANCH  22  25
ENDBRANCH   1  22
TORSDOF 9
ENDMDL
MODEL 5
REMARK VINA RESULT:    -6.494      5.368      7.031
REMARK INTER + INTRA:         -11.219
REMARK INTER:                  -9.845
REMARK INTRA:                  -1.373
REMARK UNBOUND:                -1.497
REMARK  Name = 
REMARK  11 active torsions:
REMARK  status: ('A' for Active; 'I' for Inactive)
REMARK    1  A    between atoms: C_1  and  O_2
REMARK    2  A    between atoms: O_2  and  C_3
REMARK    3  A    between atoms: C_10  and  C_11
REMARK    4  A    between atoms: N_13  and  C_14
REMARK    5  A    between atoms: C_14  and  C_15
REMARK    6  A    between atoms: C_18  and  N_19
REMARK    7  A    between atoms: N_19  and  C_20
REMARK    8  A    between atoms: C_20  and  C_21
REMARK    9  A    between atoms: C_25  and  C_26
REMARK   10  A    between atoms: C_29  and  C_30
REMARK   11  A    between atoms: C_30  and  O_31
REMARK                            x       y       z     vdW  Elec       q    Type
REMARK                         _______ _______ _______ _____ _____    ______ ____
ROOT
ATOM      1  C   UNL     1      50.870   8.850  12.164  0.00  0.00    +0.000 A 
ATOM      2  C   UNL     1      50.086   9.904  12.650  0.00  0.00    +0.000 A 
ATOM      3  C   UNL     1      48.681   9.828  12.633  0.00  0.00    +0.000 A 
ATOM      4  C   UNL     1      48.025   8.708  12.114  0.00  0.00    +0.000 A 
ATOM      5  C   UNL     1      48.824   7.630  11.703  0.00  0.00    +0.000 A 
ATOM      6  C   UNL     1      50.221   7.697  11.717  0.00  0.00    +0.000 A 
ENDROOT
BRANCH   4   7
ATOM      7  N   UNL     1      46.638   8.533  12.098  0.00  0.00    +0.000 N 
ATOM      8  H   UNL     1      46.178   9.391  12.388  0.00  0.00    +0.000 HD
BRANCH   7   9
ATOM      9  C   UNL     1      46.019   7.334  12.655  0.00  0.00    +0.000 C 
BRANCH   9  10
ATOM     10  C   UNL     1      45.138   6.595  11.615  0.00  0.00    +0.000 C 
ATOM     11  C   UNL     1      45.961   5.886  10.512  0.00  0.00    +0.000 C 
ATOM     12  C   UNL     1      45.067   5.184   9.488  0.00  0.00    +0.000 C 
ATOM     13  N   UNL     1      44.130   4.300  10.172  0.00  0.00    +0.000 N 
ATOM     14  C   UNL     1      44.131   2.914  10.169  0.00  0.00    +0.000 C 
ATOM     15  C   UNL     1      45.151   2.160   9.351  0.00  0.00    +0.000 C 
ATOM     16  O   UNL     1      43.320   2.269  10.840  0.00  0.00    +0.000 OA
ATOM     17  C   UNL     1      43.238   4.999  11.099  0.00  0.00    +0.000 C 
ATOM     18  C   UNL     1      44.040   5.673  12.231  0.00  0.00    +0.000 C 
BRANCH  18  19
ATOM     19  C   UNL     1      44.552   4.636  13.243  0.00  0.00    +0.000 C 
BRANCH  19  20
ATOM     20  O   UNL     1      43.569   3.628  13.467  0.00  0.00    +0.000 OA
ATOM     21  H   UNL     1      43.581   3.413  14.415  0.00  0.00    +0.000 HD
ENDBRANCH  19  20
ENDBRANCH  18  19
ENDBRANCH   9  10
ENDBRANCH   7   9
ENDBRANCH   4   7
BRANCH   1  22
ATOM     22  C   UNL     1      52.376   8.933  12.149  0.00  0.00    +0.000 C 
BRANCH  22  25
ATOM     23  C   UNL     1      53.529   7.864  10.257  0.00  0.00    +0.000 C 
ATOM     24  O   UNL     1      53.545   8.915   9.628  0.00  0.00    +0.000 OA
ATOM     25  N   UNL     1      52.966   7.789  11.503  0.00  0.00    +0.000 N 
ATOM     26  H   UNL     1      52.892   6.896  11.974  0.00  0.00    +0.000 HD
BRANCH  23  34
ATOM     27  C   UNL     1      53.046   6.074   7.349  0.00  0.00    +0.000 A 
ATOM     28  N   UNL     1      52.996   5.148   6.369  0.00  0.00    +0.000 NA
ATOM     29  C   UNL     1      53.773   4.069   6.476  0.00  0.00    +0.000 A 
ATOM     30  N   UNL     1      54.621   3.793   7.461  0.00  0.00    +0.000 NA
ATOM     31  C   UNL     1      54.629   4.728   8.427  0.00  0.00    +0.000 A 
ATOM     32  S   UNL     1      55.665   4.540   9.758  0.00  0.00    +0.000 S 
ATOM     33  C   UNL     1      55.105   5.984  10.459  0.00  0.00    +0.000 A 
ATOM     34  C   UNL     1      54.127   6.632   9.711  0.00  0.00    +0.000 A 
ATOM     35  C   UNL     1      53.868   5.893   8.477  0.00  0.00    +0.000 A 
BRANCH  27  37
ATOM     36  C   UNL     1      52.841   8.139   6.259  0.00  0.00    +0.000 C 
ATOM     37  O   UNL     1      52.290   7.219   7.201  0.00  0.00    +0.000 OA
ENDBRANCH  27  37
ENDBRANCH  23  34
ENDBRANCH  22  25
ENDBRANCH   1  22
TORSDOF 9
ENDMDL
MODEL 6
REMARK VINA RESULT:    -6.470      6.010      7.866
REMARK INTER + INTRA:         -11.182
REMARK INTER:                  -9.672
REMARK INTRA:                  -1.510
REMARK UNBOUND:                -1.497
REMARK  Name = 
REMARK  11 active torsions:
REMARK  status: ('A' for Active; 'I' for Inactive)
REMARK    1  A    between atoms: C_1  and  O_2
REMARK    2  A    between atoms: O_2  and  C_3
REMARK    3  A    between atoms: C_10  and  C_11
REMARK    4  A    between atoms: N_13  and  C_14
REMARK    5  A    between atoms: C_14  and  C_15
REMARK    6  A    between atoms: C_18  and  N_19
REMARK    7  A    between atoms: N_19  and  C_20
REMARK    8  A    between atoms: C_20  and  C_21
REMARK    9  A    between atoms: C_25  and  C_26
REMARK   10  A    between atoms: C_29  and  C_30
REMARK   11  A    between atoms: C_30  and  O_31
REMARK                            x       y       z     vdW  Elec       q    Type
REMARK                         _______ _______ _______ _____ _____    ______ ____
ROOT
ATOM      1  C   UNL     1      50.845   9.011  11.230  0.00  0.00    +0.000 A 
ATOM      2  C   UNL     1      50.049  10.153  11.390  0.00  0.00    +0.000 A 
ATOM      3  C   UNL     1      48.687  10.045  11.726  0.00  0.00    +0.000 A 
ATOM      4  C   UNL     1      48.083   8.796  11.893  0.00  0.00    +0.000 A 
ATOM      5  C   UNL     1      48.909   7.666  11.805  0.00  0.00    +0.000 A 
ATOM      6  C   UNL     1      50.265   7.764  11.473  0.00  0.00    +0.000 A 
ENDROOT
BRANCH   4   7
ATOM      7  N   UNL     1      46.749   8.599  12.268  0.00  0.00    +0.000 N 
ATOM      8  H   UNL     1      46.441   9.364  12.860  0.00  0.00    +0.000 HD
BRANCH   7   9
ATOM      9  C   UNL     1      46.274   7.296  12.721  0.00  0.00    +0.000 C 
BRANCH   9  10
ATOM     10  C   UNL     1      45.347   6.618  11.679  0.00  0.00    +0.000 C 
ATOM     11  C   UNL     1      46.122   5.897  10.549  0.00  0.00    +0.000 C 
ATOM     12  C   UNL     1      45.184   5.257   9.526  0.00  0.00    +0.000 C 
ATOM     13  N   UNL     1      44.219   4.400  10.205  0.00  0.00    +0.000 N 
ATOM     14  C   UNL     1      44.159   3.016  10.174  0.00  0.00    +0.000 C 
ATOM     15  C   UNL     1      45.133   2.236   9.325  0.00  0.00    +0.000 C 
ATOM     16  O   UNL     1      43.330   2.393  10.843  0.00  0.00    +0.000 OA
ATOM     17  C   UNL     1      43.371   5.118  11.160  0.00  0.00    +0.000 C 
ATOM     18  C   UNL     1      44.219   5.732  12.293  0.00  0.00    +0.000 C 
BRANCH  18  19
ATOM     19  C   UNL     1      44.700   4.652  13.276  0.00  0.00    +0.000 C 
BRANCH  19  20
ATOM     20  O   UNL     1      43.665   3.701  13.518  0.00  0.00    +0.000 OA
ATOM     21  H   UNL     1      43.953   3.138  14.257  0.00  0.00    +0.000 HD
ENDBRANCH  19  20
ENDBRANCH  18  19
ENDBRANCH   9  10
ENDBRANCH   7   9
ENDBRANCH   4   7
BRANCH   1  22
ATOM     22  C   UNL     1      52.298   9.115  10.840  0.00  0.00    +0.000 C 
BRANCH  22  25
ATOM     23  C   UNL     1      53.626   8.873   8.784  0.00  0.00    +0.000 C 
ATOM     24  O   UNL     1      54.430   9.716   9.163  0.00  0.00    +0.000 OA
ATOM     25  N   UNL     1      52.546   8.525   9.549  0.00  0.00    +0.000 N 
ATOM     26  H   UNL     1      51.851   7.885   9.186  0.00  0.00    +0.000 HD
BRANCH  23  34
ATOM     27  C   UNL     1      53.752   5.549   7.870  0.00  0.00    +0.000 A 
ATOM     28  N   UNL     1      53.930   4.361   7.254  0.00  0.00    +0.000 NA
ATOM     29  C   UNL     1      54.179   4.357   5.945  0.00  0.00    +0.000 A 
ATOM     30  N   UNL     1      54.270   5.416   5.148  0.00  0.00    +0.000 NA
ATOM     31  C   UNL     1      54.107   6.581   5.798  0.00  0.00    +0.000 A 
ATOM     32  S   UNL     1      54.182   8.037   4.930  0.00  0.00    +0.000 S 
ATOM     33  C   UNL     1      53.929   8.949   6.342  0.00  0.00    +0.000 A 
ATOM     34  C   UNL     1      53.790   8.180   7.492  0.00  0.00    +0.000 A 
ATOM     35  C   UNL     1      53.864   6.758   7.158  0.00  0.00    +0.000 A 
BRANCH  27  37
ATOM     36  C   UNL     1      54.566   5.414  10.064  0.00  0.00    +0.000 C 
ATOM     37  O   UNL     1      53.429   5.545   9.211  0.00  0.00    +0.000 OA
ENDBRANCH  27  37
ENDBRANCH  23  34
ENDBRANCH  22  25
ENDBRANCH   1  22
TORSDOF 9
ENDMDL
MODEL 7
REMARK VINA RESULT:    -6.016      3.730      8.498
REMARK INTER + INTRA:         -10.503
REMARK INTER:                  -9.024
REMARK INTRA:                  -1.479
REMARK UNBOUND:                -1.497
REMARK  Name = 
REMARK  11 active torsions:
REMARK  status: ('A' for Active; 'I' for Inactive)
REMARK    1  A    between atoms: C_1  and  O_2
REMARK    2  A    between atoms: O_2  and  C_3
REMARK    3  A    between atoms: C_10  and  C_11
REMARK    4  A    between atoms: N_13  and  C_14
REMARK    5  A    between atoms: C_14  and  C_15
REMARK    6  A    between atoms: C_18  and  N_19
REMARK    7  A    between atoms: N_19  and  C_20
REMARK    8  A    between atoms: C_20  and  C_21
REMARK    9  A    between atoms: C_25  and  C_26
REMARK   10  A    between atoms: C_29  and  C_30
REMARK   11  A    between atoms: C_30  and  O_31
REMARK                            x       y       z     vdW  Elec       q    Type
REMARK                         _______ _______ _______ _____ _____    ______ ____
ROOT
ATOM      1  C   UNL     1      49.053   9.276  16.594  0.00  0.00    +0.000 A 
ATOM      2  C   UNL     1      47.947   8.831  17.330  0.00  0.00    +0.000 A 
ATOM      3  C   UNL     1      48.110   8.255  18.603  0.00  0.00    +0.000 A 
ATOM      4  C   UNL     1      49.379   8.093  19.165  0.00  0.00    +0.000 A 
ATOM      5  C   UNL     1      50.468   8.613  18.450  0.00  0.00    +0.000 A 
ATOM      6  C   UNL     1      50.316   9.188  17.184  0.00  0.00    +0.000 A 
ENDROOT
BRANCH   4   7
ATOM      7  N   UNL     1      49.626   7.572  20.439  0.00  0.00    +0.000 N 
ATOM      8  H   UNL     1      50.227   8.204  20.960  0.00  0.00    +0.000 HD
BRANCH   7   9
ATOM      9  C   UNL     1      49.969   6.166  20.630  0.00  0.00    +0.000 C 
BRANCH   9  10
ATOM     10  C   UNL     1      50.629   5.551  19.369  0.00  0.00    +0.000 C 
ATOM     11  C   UNL     1      51.740   4.525  19.701  0.00  0.00    +0.000 C 
ATOM     12  C   UNL     1      52.387   3.950  18.440  0.00  0.00    +0.000 C 
ATOM     13  N   UNL     1      51.359   3.424  17.550  0.00  0.00    +0.000 N 
ATOM     14  C   UNL     1      51.107   2.094  17.255  0.00  0.00    +0.000 C 
ATOM     15  C   UNL     1      51.982   1.010  17.837  0.00  0.00    +0.000 C 
ATOM     16  O   UNL     1      50.164   1.763  16.530  0.00  0.00    +0.000 OA
ATOM     17  C   UNL     1      50.399   4.436  17.104  0.00  0.00    +0.000 C 
ATOM     18  C   UNL     1      49.621   5.020  18.302  0.00  0.00    +0.000 C 
BRANCH  18  19
ATOM     19  C   UNL     1      48.579   4.021  18.829  0.00  0.00    +0.000 C 
BRANCH  19  20
ATOM     20  O   UNL     1      47.283   4.616  18.848  0.00  0.00    +0.000 OA
ATOM     21  H   UNL     1      47.335   5.413  19.403  0.00  0.00    +0.000 HD
ENDBRANCH  19  20
ENDBRANCH  18  19
ENDBRANCH   9  10
ENDBRANCH   7   9
ENDBRANCH   4   7
BRANCH   1  22
ATOM     22  C   UNL     1      48.893   9.866  15.215  0.00  0.00    +0.000 C 
BRANCH  22  25
ATOM     23  C   UNL     1      47.958   8.213  13.652  0.00  0.00    +0.000 C 
ATOM     24  O   UNL     1      49.064   7.731  13.445  0.00  0.00    +0.000 OA
ATOM     25  N   UNL     1      47.790   9.270  14.505  0.00  0.00    +0.000 N 
ATOM     26  H   UNL     1      46.881   9.705  14.603  0.00  0.00    +0.000 HD
BRANCH  23  34
ATOM     27  C   UNL     1      46.422   5.125  13.695  0.00  0.00    +0.000 A 
ATOM     28  N   UNL     1      45.683   4.021  13.457  0.00  0.00    +0.000 NA
ATOM     29  C   UNL     1      44.663   4.114  12.603  0.00  0.00    +0.000 A 
ATOM     30  N   UNL     1      44.272   5.199  11.944  0.00  0.00    +0.000 NA
ATOM     31  C   UNL     1      45.042   6.272  12.192  0.00  0.00    +0.000 A 
ATOM     32  S   UNL     1      44.678   7.750  11.440  0.00  0.00    +0.000 S 
ATOM     33  C   UNL     1      46.004   8.511  12.184  0.00  0.00    +0.000 A 
ATOM     34  C   UNL     1      46.749   7.670  13.005  0.00  0.00    +0.000 A 
ATOM     35  C   UNL     1      46.150   6.337  13.034  0.00  0.00    +0.000 A 
BRANCH  27  37
ATOM     36  C   UNL     1      47.416   3.820  15.370  0.00  0.00    +0.000 C 
ATOM     37  O   UNL     1      47.434   5.040  14.629  0.00  0.00    +0.000 OA
ENDBRANCH  27  37
ENDBRANCH  23  34
ENDBRANCH  22  25
ENDBRANCH   1  22
TORSDOF 9
ENDMDL
MODEL 8
REMARK VINA RESULT:    -5.646      3.740      8.755
REMARK INTER + INTRA:          -9.948
REMARK INTER:                  -8.055
REMARK INTRA:                  -1.893
REMARK UNBOUND:                -1.497
REMARK  Name = 
REMARK  11 active torsions:
REMARK  status: ('A' for Active; 'I' for Inactive)
REMARK    1  A    between atoms: C_1  and  O_2
REMARK    2  A    between atoms: O_2  and  C_3
REMARK    3  A    between atoms: C_10  and  C_11
REMARK    4  A    between atoms: N_13  and  C_14
REMARK    5  A    between atoms: C_14  and  C_15
REMARK    6  A    between atoms: C_18  and  N_19
REMARK    7  A    between atoms: N_19  and  C_20
REMARK    8  A    between atoms: C_20  and  C_21
REMARK    9  A    between atoms: C_25  and  C_26
REMARK   10  A    between atoms: C_29  and  C_30
REMARK   11  A    between atoms: C_30  and  O_31
REMARK                            x       y       z     vdW  Elec       q    Type
REMARK                         _______ _______ _______ _____ _____    ______ ____
ROOT
ATOM      1  C   UNL     1      48.777   9.495  14.764  0.00  0.00    +0.000 A 
ATOM      2  C   UNL     1      47.947   8.961  15.758  0.00  0.00    +0.000 A 
ATOM      3  C   UNL     1      48.431   8.733  17.059  0.00  0.00    +0.000 A 
ATOM      4  C   UNL     1      49.758   9.015  17.395  0.00  0.00    +0.000 A 
ATOM      5  C   UNL     1      50.554   9.620  16.411  0.00  0.00    +0.000 A 
ATOM      6  C   UNL     1      50.081   9.851  15.115  0.00  0.00    +0.000 A 
ENDROOT
BRANCH   4   7
ATOM      7  N   UNL     1      50.308   8.860  18.672  0.00  0.00    +0.000 N 
ATOM      8  H   UNL     1      50.263   9.740  19.177  0.00  0.00    +0.000 HD
BRANCH   7   9
ATOM      9  C   UNL     1      51.565   8.146  18.874  0.00  0.00    +0.000 C 
BRANCH   9  10
ATOM     10  C   UNL     1      51.343   6.630  19.112  0.00  0.00    +0.000 C 
ATOM     11  C   UNL     1      49.894   6.283  19.533  0.00  0.00    +0.000 C 
ATOM     12  C   UNL     1      49.711   4.786  19.781  0.00  0.00    +0.000 C 
ATOM     13  N   UNL     1      50.175   4.030  18.624  0.00  0.00    +0.000 N 
ATOM     14  C   UNL     1      49.399   3.325  17.717  0.00  0.00    +0.000 C 
ATOM     15  C   UNL     1      47.904   3.236  17.908  0.00  0.00    +0.000 C 
ATOM     16  O   UNL     1      49.901   2.772  16.734  0.00  0.00    +0.000 OA
ATOM     17  C   UNL     1      51.593   4.234  18.323  0.00  0.00    +0.000 C 
ATOM     18  C   UNL     1      51.873   5.710  17.968  0.00  0.00    +0.000 C 
BRANCH  18  19
ATOM     19  C   UNL     1      51.354   6.051  16.563  0.00  0.00    +0.000 C 
BRANCH  19  20
ATOM     20  O   UNL     1      52.391   6.632  15.775  0.00  0.00    +0.000 OA
ATOM     21  H   UNL     1      52.680   7.445  16.225  0.00  0.00    +0.000 HD
ENDBRANCH  19  20
ENDBRANCH  18  19
ENDBRANCH   9  10
ENDBRANCH   7   9
ENDBRANCH   4   7
BRANCH   1  22
ATOM     22  C   UNL     1      48.278   9.714  13.358  0.00  0.00    +0.000 C 
BRANCH  22  25
ATOM     23  C   UNL     1      47.191   7.780  12.296  0.00  0.00    +0.000 C 
ATOM     24  O   UNL     1      48.248   7.415  11.799  0.00  0.00    +0.000 OA
ATOM     25  N   UNL     1      47.120   8.906  13.071  0.00  0.00    +0.000 N 
ATOM     26  H   UNL     1      46.225   9.236  13.408  0.00  0.00    +0.000 HD
BRANCH  23  34
ATOM     27  C   UNL     1      46.256   4.531  12.978  0.00  0.00    +0.000 A 
ATOM     28  N   UNL     1      45.665   3.320  13.043  0.00  0.00    +0.000 NA
ATOM     29  C   UNL     1      44.430   3.191  12.557  0.00  0.00    +0.000 A 
ATOM     30  N   UNL     1      43.686   4.144  12.006  0.00  0.00    +0.000 NA
ATOM     31  C   UNL     1      44.315   5.331  11.942  0.00  0.00    +0.000 A 
ATOM     32  S   UNL     1      43.506   6.666  11.276  0.00  0.00    +0.000 S 
ATOM     33  C   UNL     1      44.858   7.667  11.518  0.00  0.00    +0.000 A 
ATOM     34  C   UNL     1      45.943   7.019  12.097  0.00  0.00    +0.000 A 
ATOM     35  C   UNL     1      45.603   5.625  12.381  0.00  0.00    +0.000 A 
BRANCH  27  37
ATOM     36  C   UNL     1      47.469   5.177  14.878  0.00  0.00    +0.000 C 
ATOM     37  O   UNL     1      47.507   4.675  13.542  0.00  0.00    +0.000 OA
ENDBRANCH  27  37
ENDBRANCH  23  34
ENDBRANCH  22  25
ENDBRANCH   1  22
TORSDOF 9
ENDMDL
MODEL 9
REMARK VINA RESULT:    -5.542      6.383      8.703
REMARK INTER + INTRA:          -9.793
REMARK INTER:                  -8.356
REMARK INTRA:                  -1.437
REMARK UNBOUND:                -1.497
REMARK  Name = 
REMARK  11 active torsions:
REMARK  status: ('A' for Active; 'I' for Inactive)
REMARK    1  A    between atoms: C_1  and  O_2
REMARK    2  A    between atoms: O_2  and  C_3
REMARK    3  A    between atoms: C_10  and  C_11
REMARK    4  A    between atoms: N_13  and  C_14
REMARK    5  A    between atoms: C_14  and  C_15
REMARK    6  A    between atoms: C_18  and  N_19
REMARK    7  A    between atoms: N_19  and  C_20
REMARK    8  A    between atoms: C_20  and  C_21
REMARK    9  A    between atoms: C_25  and  C_26
REMARK   10  A    between atoms: C_29  and  C_30
REMARK   11  A    between atoms: C_30  and  O_31
REMARK                            x       y       z     vdW  Elec       q    Type
REMARK                         _______ _______ _______ _____ _____    ______ ____
ROOT
ATOM      1  C   UNL     1      50.936   9.208  11.480  0.00  0.00    +0.000 A 
ATOM      2  C   UNL     1      50.872   7.872  11.064  0.00  0.00    +0.000 A 
ATOM      3  C   UNL     1      49.804   7.043  11.454  0.00  0.00    +0.000 A 
ATOM      4  C   UNL     1      48.785   7.521  12.283  0.00  0.00    +0.000 A 
ATOM      5  C   UNL     1      48.824   8.880  12.628  0.00  0.00    +0.000 A 
ATOM      6  C   UNL     1      49.881   9.712  12.244  0.00  0.00    +0.000 A 
ENDROOT
BRANCH   4   7
ATOM      7  N   UNL     1      47.668   6.780  12.682  0.00  0.00    +0.000 N 
ATOM      8  H   UNL     1      47.709   5.849  12.277  0.00  0.00    +0.000 HD
BRANCH   7   9
ATOM      9  C   UNL     1      46.328   7.357  12.660  0.00  0.00    +0.000 C 
BRANCH   9  10
ATOM     10  C   UNL     1      45.416   6.674  11.609  0.00  0.00    +0.000 C 
ATOM     11  C   UNL     1      46.207   5.922  10.511  0.00  0.00    +0.000 C 
ATOM     12  C   UNL     1      45.283   5.277   9.476  0.00  0.00    +0.000 C 
ATOM     13  N   UNL     1      44.289   4.447  10.147  0.00  0.00    +0.000 N 
ATOM     14  C   UNL     1      44.210   3.064  10.140  0.00  0.00    +0.000 C 
ATOM     15  C   UNL     1      45.191   2.253   9.328  0.00  0.00    +0.000 C 
ATOM     16  O   UNL     1      43.356   2.464  10.800  0.00  0.00    +0.000 OA
ATOM     17  C   UNL     1      43.430   5.194  11.069  0.00  0.00    +0.000 C 
ATOM     18  C   UNL     1      44.260   5.816  12.211  0.00  0.00    +0.000 C 
BRANCH  18  19
ATOM     19  C   UNL     1      44.701   4.747  13.224  0.00  0.00    +0.000 C 
BRANCH  19  20
ATOM     20  O   UNL     1      43.621   3.866  13.521  0.00  0.00    +0.000 OA
ATOM     21  H   UNL     1      42.794   4.345  13.341  0.00  0.00    +0.000 HD
ENDBRANCH  19  20
ENDBRANCH  18  19
ENDBRANCH   9  10
ENDBRANCH   7   9
ENDBRANCH   4   7
BRANCH   1  22
ATOM     22  C   UNL     1      52.092  10.096  11.094  0.00  0.00    +0.000 C 
BRANCH  22  25
ATOM     23  C   UNL     1      53.229   9.849   8.927  0.00  0.00    +0.000 C 
ATOM     24  O   UNL     1      54.180   9.284   9.451  0.00  0.00    +0.000 OA
ATOM     25  N   UNL     1      52.164  10.286   9.667  0.00  0.00    +0.000 N 
ATOM     26  H   UNL     1      51.425  10.820   9.228  0.00  0.00    +0.000 HD
BRANCH  23  34
ATOM     27  C   UNL     1      53.714   7.811   6.186  0.00  0.00    +0.000 A 
ATOM     28  N   UNL     1      53.939   7.282   4.966  0.00  0.00    +0.000 NA
ATOM     29  C   UNL     1      53.838   8.079   3.901  0.00  0.00    +0.000 A 
ATOM     30  N   UNL     1      53.528   9.371   3.900  0.00  0.00    +0.000 NA
ATOM     31  C   UNL     1      53.330   9.867   5.134  0.00  0.00    +0.000 A 
ATOM     32  S   UNL     1      52.914  11.502   5.317  0.00  0.00    +0.000 S 
ATOM     33  C   UNL     1      52.873  11.352   7.010  0.00  0.00    +0.000 A 
ATOM     34  C   UNL     1      53.177  10.075   7.470  0.00  0.00    +0.000 A 
ATOM     35  C   UNL     1      53.418   9.178   6.341  0.00  0.00    +0.000 A 
BRANCH  27  37
ATOM     36  C   UNL     1      52.482   6.407   7.603  0.00  0.00    +0.000 C 
ATOM     37  O   UNL     1      53.754   6.968   7.278  0.00  0.00    +0.000 OA
ENDBRANCH  27  37
ENDBRANCH  23  34
ENDBRANCH  22  25
ENDBRANCH   1  22
TORSDOF 9
ENDMDL
