MODEL 1
REMARK VINA RESULT:    -8.381      0.000      0.000
REMARK INTER + INTRA:         -12.691
REMARK INTER:                 -11.320
REMARK INTRA:                  -1.371
REMARK UNBOUND:                -1.371
REMARK  Name = 
REMARK  7 active torsions:
REMARK  status: ('A' for Active; 'I' for Inactive)
REMARK    1  A    between atoms: C_1  and  O_2
REMARK    2  A    between atoms: O_2  and  C_3
REMARK    3  A    between atoms: C_5  and  C_6
REMARK    4  A    between atoms: C_11  and  O_12
REMARK    5  A    between atoms: O_12  and  C_13
REMARK    6  A    between atoms: C_13  and  C_14
REMARK    7  A    between atoms: C_18  and  C_19
REMARK                            x       y       z     vdW  Elec       q    Type
REMARK                         _______ _______ _______ _____ _____    ______ ____
ROOT
ATOM      1  O   UNL     1      44.132   6.571  12.692  0.00  0.00    +0.000 OA
ENDROOT
BRANCH   1   7
ATOM      2  C   UNL     1      46.414   5.760  13.316  0.00  0.00    +0.000 A 
ATOM      3  C   UNL     1      47.783   6.058  13.275  0.00  0.00    +0.000 A 
ATOM      4  C   UNL     1      48.265   7.234  12.682  0.00  0.00    +0.000 A 
ATOM      5  C   UNL     1      47.357   8.122  12.106  0.00  0.00    +0.000 A 
ATOM      6  C   UNL     1      45.988   7.833  12.143  0.00  0.00    +0.000 A 
ATOM      7  C   UNL     1      45.501   6.663  12.744  0.00  0.00    +0.000 A 
BRANCH   4   8
ATOM      8  C   UNL     1      49.741   7.449  12.706  0.00  0.00    +0.000 C 
ATOM      9  N   UNL     1      50.395   7.411  13.902  0.00  0.00    +0.000 N 
ATOM     10  O   UNL     1      50.371   7.651  11.673  0.00  0.00    +0.000 OA
ATOM     11  H   UNL     1      49.968   7.247  14.800  0.00  0.00    +0.000 HD
ATOM     12  H   UNL     1      51.397   7.559  13.871  0.00  0.00    +0.000 HD
ENDBRANCH   4   8
BRANCH   2  14
ATOM     13  C   UNL     1      46.364   3.377  13.224  0.00  0.00    +0.000 C 
ATOM     14  O   UNL     1      45.946   4.587  13.846  0.00  0.00    +0.000 OA
ENDBRANCH   2  14
ENDBRANCH   1   7
BRANCH   1  15
ATOM     15  C   UNL     1      43.524   6.361  11.417  0.00  0.00    +0.000 C 
BRANCH  15  16
ATOM     16  C   UNL     1      43.642   4.920  10.997  0.00  0.00    +0.000 A 
ATOM     17  C   UNL     1      43.023   3.925  11.744  0.00  0.00    +0.000 A 
ATOM     18  N   UNL     1      43.140   2.607  11.487  0.00  0.00    +0.000 NA
ATOM     19  C   UNL     1      43.929   2.262  10.440  0.00  0.00    +0.000 A 
ATOM     20  C   UNL     1      44.625   3.157   9.623  0.00  0.00    +0.000 A 
ATOM     21  C   UNL     1      44.457   4.515   9.934  0.00  0.00    +0.000 A 
BRANCH  20  22
ATOM     22  C   UNL     1      45.513   2.710   8.530  0.00  0.00    +0.000 A 
ATOM     23  C   UNL     1      46.012   3.612   7.570  0.00  0.00    +0.000 A 
ATOM     24  C   UNL     1      46.895   3.199   6.564  0.00  0.00    +0.000 A 
ATOM     25  C   UNL     1      47.284   1.867   6.488  0.00  0.00    +0.000 A 
ATOM     26  C   UNL     1      46.788   0.963   7.415  0.00  0.00    +0.000 A 
ATOM     27  F   UNL     1      47.160  -0.322   7.347  0.00  0.00    +0.000 F 
ATOM     28  C   UNL     1      45.918   1.368   8.424  0.00  0.00    +0.000 A 
ENDBRANCH  20  22
ENDBRANCH  15  16
ENDBRANCH   1  15
TORSDOF 6
ENDMDL
MODEL 2
REMARK VINA RESULT:    -7.886      1.158      2.134
REMARK INTER + INTRA:         -12.023
REMARK INTER:                 -11.034
REMARK INTRA:                  -0.988
REMARK UNBOUND:                -1.371
REMARK  Name = 
REMARK  7 active torsions:
REMARK  status: ('A' for Active; 'I' for Inactive)
REMARK    1  A    between atoms: C_1  and  O_2
REMARK    2  A    between atoms: O_2  and  C_3
REMARK    3  A    between atoms: C_5  and  C_6
REMARK    4  A    between atoms: C_11  and  O_12
REMARK    5  A    between atoms: O_12  and  C_13
REMARK    6  A    between atoms: C_13  and  C_14
REMARK    7  A    between atoms: C_18  and  C_19
REMARK                            x       y       z     vdW  Elec       q    Type
REMARK                         _______ _______ _______ _____ _____    ______ ____
ROOT
ATOM      1  O   UNL     1      44.861   6.638  12.697  0.00  0.00    +0.000 OA
ENDROOT
BRANCH   1   7
ATOM      2  C   UNL     1      46.378   8.612  12.462  0.00  0.00    +0.000 A 
ATOM      3  C   UNL     1      47.708   9.015  12.275  0.00  0.00    +0.000 A 
ATOM      4  C   UNL     1      48.751   8.085  12.158  0.00  0.00    +0.000 A 
ATOM      5  C   UNL     1      48.457   6.724  12.243  0.00  0.00    +0.000 A 
ATOM      6  C   UNL     1      47.132   6.313  12.429  0.00  0.00    +0.000 A 
ATOM      7  C   UNL     1      46.084   7.239  12.536  0.00  0.00    +0.000 A 
BRANCH   4   8
ATOM      8  C   UNL     1      50.125   8.630  11.953  0.00  0.00    +0.000 C 
ATOM      9  N   UNL     1      51.198   7.815  12.165  0.00  0.00    +0.000 N 
ATOM     10  O   UNL     1      50.302   9.790  11.596  0.00  0.00    +0.000 OA
ATOM     11  H   UNL     1      51.155   6.850  12.453  0.00  0.00    +0.000 HD
ATOM     12  H   UNL     1      52.111   8.225  12.011  0.00  0.00    +0.000 HD
ENDBRANCH   4   8
BRANCH   2  14
ATOM     13  C   UNL     1      45.016  10.323  11.510  0.00  0.00    +0.000 C 
ATOM     14  O   UNL     1      45.366   9.519  12.631  0.00  0.00    +0.000 OA
ENDBRANCH   2  14
ENDBRANCH   1   7
BRANCH   1  15
ATOM     15  C   UNL     1      44.015   6.527  11.553  0.00  0.00    +0.000 C 
BRANCH  15  16
ATOM     16  C   UNL     1      43.949   5.102  11.070  0.00  0.00    +0.000 A 
ATOM     17  C   UNL     1      43.181   4.171  11.758  0.00  0.00    +0.000 A 
ATOM     18  N   UNL     1      43.126   2.861  11.444  0.00  0.00    +0.000 NA
ATOM     19  C   UNL     1      43.889   2.456  10.400  0.00  0.00    +0.000 A 
ATOM     20  C   UNL     1      44.722   3.281   9.640  0.00  0.00    +0.000 A 
ATOM     21  C   UNL     1      44.731   4.635  10.008  0.00  0.00    +0.000 A 
BRANCH  20  22
ATOM     22  C   UNL     1      45.571   2.764   8.547  0.00  0.00    +0.000 A 
ATOM     23  C   UNL     1      46.079   3.612   7.543  0.00  0.00    +0.000 A 
ATOM     24  C   UNL     1      46.925   3.133   6.535  0.00  0.00    +0.000 A 
ATOM     25  C   UNL     1      47.270   1.786   6.503  0.00  0.00    +0.000 A 
ATOM     26  C   UNL     1      46.765   0.935   7.474  0.00  0.00    +0.000 A 
ATOM     27  F   UNL     1      47.094  -0.364   7.448  0.00  0.00    +0.000 F 
ATOM     28  C   UNL     1      45.931   1.406   8.484  0.00  0.00    +0.000 A 
ENDBRANCH  20  22
ENDBRANCH  15  16
ENDBRANCH   1  15
TORSDOF 6
ENDMDL
MODEL 3
REMARK VINA RESULT:    -7.793      2.244      3.448
REMARK INTER + INTRA:         -11.898
REMARK INTER:                 -11.219
REMARK INTRA:                  -0.679
REMARK UNBOUND:                -1.371
REMARK  Name = 
REMARK  7 active torsions:
REMARK  status: ('A' for Active; 'I' for Inactive)
REMARK    1  A    between atoms: C_1  and  O_2
REMARK    2  A    between atoms: O_2  and  C_3
REMARK    3  A    between atoms: C_5  and  C_6
REMARK    4  A    between atoms: C_11  and  O_12
REMARK    5  A    between atoms: O_12  and  C_13
REMARK    6  A    between atoms: C_13  and  C_14
REMARK    7  A    between atoms: C_18  and  C_19
REMARK                            x       y       z     vdW  Elec       q    Type
REMARK                         _______ _______ _______ _____ _____    ______ ____
ROOT
ATOM      1  O   UNL     1      47.322   6.694  12.241  0.00  0.00    +0.000 OA
ENDROOT
BRANCH   1   7
ATOM      2  C   UNL     1      48.198   6.535  14.578  0.00  0.00    +0.000 A 
ATOM      3  C   UNL     1      48.189   5.767  15.752  0.00  0.00    +0.000 A 
ATOM      4  C   UNL     1      47.444   4.584  15.854  0.00  0.00    +0.000 A 
ATOM      5  C   UNL     1      46.683   4.168  14.763  0.00  0.00    +0.000 A 
ATOM      6  C   UNL     1      46.686   4.926  13.586  0.00  0.00    +0.000 A 
ATOM      7  C   UNL     1      47.438   6.106  13.476  0.00  0.00    +0.000 A 
BRANCH   4   8
ATOM      8  C   UNL     1      47.518   3.847  17.150  0.00  0.00    +0.000 C 
ATOM      9  N   UNL     1      48.521   4.146  18.023  0.00  0.00    +0.000 N 
ATOM     10  O   UNL     1      46.693   2.987  17.440  0.00  0.00    +0.000 OA
ATOM     11  H   UNL     1      49.240   4.838  17.878  0.00  0.00    +0.000 HD
ATOM     12  H   UNL     1      48.531   3.625  18.892  0.00  0.00    +0.000 HD
ENDBRANCH   4   8
BRANCH   2  14
ATOM     13  C   UNL     1      48.254   8.873  15.040  0.00  0.00    +0.000 C 
ATOM     14  O   UNL     1      48.881   7.718  14.495  0.00  0.00    +0.000 OA
ENDBRANCH   2  14
ENDBRANCH   1   7
BRANCH   1  15
ATOM     15  C   UNL     1      46.053   7.234  11.874  0.00  0.00    +0.000 C 
BRANCH  15  16
ATOM     16  C   UNL     1      45.263   6.245  11.058  0.00  0.00    +0.000 A 
ATOM     17  C   UNL     1      43.912   6.054  11.316  0.00  0.00    +0.000 A 
ATOM     18  N   UNL     1      43.147   5.137  10.691  0.00  0.00    +0.000 NA
ATOM     19  C   UNL     1      43.767   4.357   9.772  0.00  0.00    +0.000 A 
ATOM     20  C   UNL     1      45.122   4.428   9.434  0.00  0.00    +0.000 A 
ATOM     21  C   UNL     1      45.863   5.408  10.111  0.00  0.00    +0.000 A 
BRANCH  20  22
ATOM     22  C   UNL     1      45.747   3.510   8.460  0.00  0.00    +0.000 A 
ATOM     23  C   UNL     1      46.379   3.989   7.295  0.00  0.00    +0.000 A 
ATOM     24  C   UNL     1      47.017   3.124   6.397  0.00  0.00    +0.000 A 
ATOM     25  C   UNL     1      47.022   1.755   6.639  0.00  0.00    +0.000 A 
ATOM     26  C   UNL     1      46.389   1.266   7.772  0.00  0.00    +0.000 A 
ATOM     27  F   UNL     1      46.391  -0.053   8.010  0.00  0.00    +0.000 F 
ATOM     28  C   UNL     1      45.761   2.121   8.674  0.00  0.00    +0.000 A 
ENDBRANCH  20  22
ENDBRANCH  15  16
ENDBRANCH   1  15
TORSDOF 6
ENDMDL
MODEL 4
REMARK VINA RESULT:    -7.504      1.864      1.952
REMARK INTER + INTRA:         -11.507
REMARK INTER:                 -10.508
REMARK INTRA:                  -0.999
REMARK UNBOUND:                -1.371
REMARK  Name = 
REMARK  7 active torsions:
REMARK  status: ('A' for Active; 'I' for Inactive)
REMARK    1  A    between atoms: C_1  and  O_2
REMARK    2  A    between atoms: O_2  and  C_3
REMARK    3  A    between atoms: C_5  and  C_6
REMARK    4  A    between atoms: C_11  and  O_12
REMARK    5  A    between atoms: O_12  and  C_13
REMARK    6  A    between atoms: C_13  and  C_14
REMARK    7  A    between atoms: C_18  and  C_19
REMARK                            x       y       z     vdW  Elec       q    Type
REMARK                         _______ _______ _______ _____ _____    ______ ____
ROOT
ATOM      1  O   UNL     1      46.359   7.024  11.596  0.00  0.00    +0.000 OA
ENDROOT
BRANCH   1   7
ATOM      2  C   UNL     1      47.665   6.253  13.583  0.00  0.00    +0.000 A 
ATOM      3  C   UNL     1      48.344   6.671  14.737  0.00  0.00    +0.000 A 
ATOM      4  C   UNL     1      48.445   8.026  15.083  0.00  0.00    +0.000 A 
ATOM      5  C   UNL     1      47.867   8.982  14.249  0.00  0.00    +0.000 A 
ATOM      6  C   UNL     1      47.187   8.574  13.095  0.00  0.00    +0.000 A 
ATOM      7  C   UNL     1      47.075   7.219  12.751  0.00  0.00    +0.000 A 
BRANCH   4   8
ATOM      8  C   UNL     1      49.183   8.351  16.338  0.00  0.00    +0.000 C 
ATOM      9  N   UNL     1      50.010   9.436  16.357  0.00  0.00    +0.000 N 
ATOM     10  O   UNL     1      49.055   7.666  17.348  0.00  0.00    +0.000 OA
ATOM     11  H   UNL     1      50.176  10.061  15.583  0.00  0.00    +0.000 HD
ATOM     12  H   UNL     1      50.489   9.621  17.230  0.00  0.00    +0.000 HD
ENDBRANCH   4   8
BRANCH   2  14
ATOM     13  C   UNL     1      46.685   4.102  13.902  0.00  0.00    +0.000 C 
ATOM     14  O   UNL     1      47.613   4.935  13.215  0.00  0.00    +0.000 OA
ENDBRANCH   2  14
ENDBRANCH   1   7
BRANCH   1  15
ATOM     15  C   UNL     1      44.951   6.813  11.709  0.00  0.00    +0.000 C 
BRANCH  15  16
ATOM     16  C   UNL     1      44.560   5.479  11.130  0.00  0.00    +0.000 A 
ATOM     17  C   UNL     1      43.544   4.737  11.719  0.00  0.00    +0.000 A 
ATOM     18  N   UNL     1      43.181   3.503  11.317  0.00  0.00    +0.000 NA
ATOM     19  C   UNL     1      43.880   2.973  10.283  0.00  0.00    +0.000 A 
ATOM     20  C   UNL     1      44.938   3.600   9.618  0.00  0.00    +0.000 A 
ATOM     21  C   UNL     1      45.263   4.886  10.075  0.00  0.00    +0.000 A 
BRANCH  20  22
ATOM     22  C   UNL     1      45.694   2.943   8.532  0.00  0.00    +0.000 A 
ATOM     23  C   UNL     1      46.247   3.681   7.467  0.00  0.00    +0.000 A 
ATOM     24  C   UNL     1      47.008   3.067   6.465  0.00  0.00    +0.000 A 
ATOM     25  C   UNL     1      47.219   1.693   6.499  0.00  0.00    +0.000 A 
ATOM     26  C   UNL     1      46.666   0.949   7.531  0.00  0.00    +0.000 A 
ATOM     27  F   UNL     1      46.866  -0.375   7.569  0.00  0.00    +0.000 F 
ATOM     28  C   UNL     1      45.917   1.555   8.536  0.00  0.00    +0.000 A 
ENDBRANCH  20  22
ENDBRANCH  15  16
ENDBRANCH   1  15
TORSDOF 6
ENDMDL
MODEL 5
REMARK VINA RESULT:    -7.429      1.775      2.649
REMARK INTER + INTRA:         -11.406
REMARK INTER:                 -10.849
REMARK INTRA:                  -0.558
REMARK UNBOUND:                -1.371
REMARK  Name = 
REMARK  7 active torsions:
REMARK  status: ('A' for Active; 'I' for Inactive)
REMARK    1  A    between atoms: C_1  and  O_2
REMARK    2  A    between atoms: O_2  and  C_3
REMARK    3  A    between atoms: C_5  and  C_6
REMARK    4  A    between atoms: C_11  and  O_12
REMARK    5  A    between atoms: O_12  and  C_13
REMARK    6  A    between atoms: C_13  and  C_14
REMARK    7  A    between atoms: C_18  and  C_19
REMARK                            x       y       z     vdW  Elec       q    Type
REMARK                         _______ _______ _______ _____ _____    ______ ____
ROOT
ATOM      1  O   UNL     1      45.127   6.909  11.065  0.00  0.00    +0.000 OA
ENDROOT
BRANCH   1   7
ATOM      2  C   UNL     1      46.801   8.130  12.464  0.00  0.00    +0.000 A 
ATOM      3  C   UNL     1      47.713   8.006  13.522  0.00  0.00    +0.000 A 
ATOM      4  C   UNL     1      47.898   6.792  14.199  0.00  0.00    +0.000 A 
ATOM      5  C   UNL     1      47.145   5.683  13.816  0.00  0.00    +0.000 A 
ATOM      6  C   UNL     1      46.232   5.796  12.761  0.00  0.00    +0.000 A 
ATOM      7  C   UNL     1      46.051   7.007  12.075  0.00  0.00    +0.000 A 
BRANCH   4   8
ATOM      8  C   UNL     1      48.902   6.778  15.303  0.00  0.00    +0.000 C 
ATOM      9  N   UNL     1      48.466   6.679  16.591  0.00  0.00    +0.000 N 
ATOM     10  O   UNL     1      50.105   6.849  15.070  0.00  0.00    +0.000 OA
ATOM     11  H   UNL     1      47.503   6.610  16.882  0.00  0.00    +0.000 HD
ATOM     12  H   UNL     1      49.181   6.670  17.308  0.00  0.00    +0.000 HD
ENDBRANCH   4   8
BRANCH   2  14
ATOM     13  C   UNL     1      45.407  10.047  12.203  0.00  0.00    +0.000 C 
ATOM     14  O   UNL     1      46.579   9.328  11.839  0.00  0.00    +0.000 OA
ENDBRANCH   2  14
ENDBRANCH   1   7
BRANCH   1  15
ATOM     15  C   UNL     1      43.893   6.249  11.348  0.00  0.00    +0.000 C 
BRANCH  15  16
ATOM     16  C   UNL     1      43.916   4.829  10.849  0.00  0.00    +0.000 A 
ATOM     17  C   UNL     1      43.207   3.844  11.524  0.00  0.00    +0.000 A 
ATOM     18  N   UNL     1      43.233   2.537  11.196  0.00  0.00    +0.000 NA
ATOM     19  C   UNL     1      44.022   2.191  10.150  0.00  0.00    +0.000 A 
ATOM     20  C   UNL     1      44.804   3.076   9.401  0.00  0.00    +0.000 A 
ATOM     21  C   UNL     1      44.728   4.423   9.784  0.00  0.00    +0.000 A 
BRANCH  20  22
ATOM     22  C   UNL     1      45.685   2.624   8.304  0.00  0.00    +0.000 A 
ATOM     23  C   UNL     1      46.258   1.337   8.302  0.00  0.00    +0.000 A 
ATOM     24  C   UNL     1      47.052   0.888   7.238  0.00  0.00    +0.000 A 
ATOM     25  C   UNL     1      47.301   1.728   6.159  0.00  0.00    +0.000 A 
ATOM     26  C   UNL     1      46.759   3.004   6.154  0.00  0.00    +0.000 A 
ATOM     27  F   UNL     1      46.995   3.817   5.115  0.00  0.00    +0.000 F 
ATOM     28  C   UNL     1      45.961   3.453   7.203  0.00  0.00    +0.000 A 
ENDBRANCH  20  22
ENDBRANCH  15  16
ENDBRANCH   1  15
TORSDOF 6
ENDMDL
MODEL 6
REMARK VINA RESULT:    -7.254      3.707      6.775
REMARK INTER + INTRA:         -11.169
REMARK INTER:                 -11.030
REMARK INTRA:                  -0.139
REMARK UNBOUND:                -1.371
REMARK  Name = 
REMARK  7 active torsions:
REMARK  status: ('A' for Active; 'I' for Inactive)
REMARK    1  A    between atoms: C_1  and  O_2
REMARK    2  A    between atoms: O_2  and  C_3
REMARK    3  A    between atoms: C_5  and  C_6
REMARK    4  A    between atoms: C_11  and  O_12
REMARK    5  A    between atoms: O_12  and  C_13
REMARK    6  A    between atoms: C_13  and  C_14
REMARK    7  A    between atoms: C_18  and  C_19
REMARK                            x       y       z     vdW  Elec       q    Type
REMARK                         _______ _______ _______ _____ _____    ______ ____
ROOT
ATOM      1  O   UNL     1      43.824   4.808  10.302  0.00  0.00    +0.000 OA
ENDROOT
BRANCH   1   7
ATOM      2  C   UNL     1      44.635   2.576   9.519  0.00  0.00    +0.000 A 
ATOM      3  C   UNL     1      45.534   1.923   8.663  0.00  0.00    +0.000 A 
ATOM      4  C   UNL     1      46.406   2.635   7.827  0.00  0.00    +0.000 A 
ATOM      5  C   UNL     1      46.367   4.029   7.838  0.00  0.00    +0.000 A 
ATOM      6  C   UNL     1      45.473   4.690   8.689  0.00  0.00    +0.000 A 
ATOM      7  C   UNL     1      44.607   3.982   9.536  0.00  0.00    +0.000 A 
BRANCH   4   8
ATOM      8  C   UNL     1      47.323   1.833   6.965  0.00  0.00    +0.000 C 
ATOM      9  N   UNL     1      48.412   2.441   6.415  0.00  0.00    +0.000 N 
ATOM     10  O   UNL     1      47.116   0.643   6.751  0.00  0.00    +0.000 OA
ATOM     11  H   UNL     1      48.670   3.408   6.536  0.00  0.00    +0.000 HD
ATOM     12  H   UNL     1      49.010   1.859   5.840  0.00  0.00    +0.000 HD
ENDBRANCH   4   8
BRANCH   2  14
ATOM     13  C   UNL     1      43.485   2.391  11.600  0.00  0.00    +0.000 C 
ATOM     14  O   UNL     1      43.746   1.883  10.296  0.00  0.00    +0.000 OA
ENDBRANCH   2  14
ENDBRANCH   1   7
BRANCH   1  15
ATOM     15  C   UNL     1      44.386   6.045  10.740  0.00  0.00    +0.000 C 
BRANCH  15  16
ATOM     16  C   UNL     1      45.430   5.815  11.801  0.00  0.00    +0.000 A 
ATOM     17  C   UNL     1      45.144   5.010  12.895  0.00  0.00    +0.000 A 
ATOM     18  N   UNL     1      45.988   4.812  13.927  0.00  0.00    +0.000 NA
ATOM     19  C   UNL     1      47.173   5.466  13.873  0.00  0.00    +0.000 A 
ATOM     20  C   UNL     1      47.578   6.323  12.845  0.00  0.00    +0.000 A 
ATOM     21  C   UNL     1      46.661   6.481  11.795  0.00  0.00    +0.000 A 
BRANCH  20  22
ATOM     22  C   UNL     1      48.864   7.048  12.875  0.00  0.00    +0.000 A 
ATOM     23  C   UNL     1      49.487   7.494  11.692  0.00  0.00    +0.000 A 
ATOM     24  C   UNL     1      50.680   8.226  11.721  0.00  0.00    +0.000 A 
ATOM     25  C   UNL     1      51.286   8.515  12.939  0.00  0.00    +0.000 A 
ATOM     26  C   UNL     1      50.696   8.067  14.111  0.00  0.00    +0.000 A 
ATOM     27  F   UNL     1      51.274   8.343  15.288  0.00  0.00    +0.000 F 
ATOM     28  C   UNL     1      49.504   7.347  14.090  0.00  0.00    +0.000 A 
ENDBRANCH  20  22
ENDBRANCH  15  16
ENDBRANCH   1  15
TORSDOF 6
ENDMDL
MODEL 7
REMARK VINA RESULT:    -7.022      1.771      2.202
REMARK INTER + INTRA:         -10.856
REMARK INTER:                 -10.009
REMARK INTRA:                  -0.848
REMARK UNBOUND:                -1.371
REMARK  Name = 
REMARK  7 active torsions:
REMARK  status: ('A' for Active; 'I' for Inactive)
REMARK    1  A    between atoms: C_1  and  O_2
REMARK    2  A    between atoms: O_2  and  C_3
REMARK    3  A    between atoms: C_5  and  C_6
REMARK    4  A    between atoms: C_11  and  O_12
REMARK    5  A    between atoms: O_12  and  C_13
REMARK    6  A    between atoms: C_13  and  C_14
REMARK    7  A    between atoms: C_18  and  C_19
REMARK                            x       y       z     vdW  Elec       q    Type
REMARK                         _______ _______ _______ _____ _____    ______ ____
ROOT
ATOM      1  O   UNL     1      46.834   4.991  13.255  0.00  0.00    +0.000 OA
ENDROOT
BRANCH   1   7
ATOM      2  C   UNL     1      48.281   6.723  14.333  0.00  0.00    +0.000 A 
ATOM      3  C   UNL     1      48.777   8.030  14.218  0.00  0.00    +0.000 A 
ATOM      4  C   UNL     1      48.450   8.850  13.129  0.00  0.00    +0.000 A 
ATOM      5  C   UNL     1      47.620   8.347  12.129  0.00  0.00    +0.000 A 
ATOM      6  C   UNL     1      47.119   7.044  12.235  0.00  0.00    +0.000 A 
ATOM      7  C   UNL     1      47.436   6.223  13.327  0.00  0.00    +0.000 A 
BRANCH   4   8
ATOM      8  C   UNL     1      49.031  10.225  13.119  0.00  0.00    +0.000 C 
ATOM      9  N   UNL     1      48.322  11.246  13.680  0.00  0.00    +0.000 N 
ATOM     10  O   UNL     1      50.130  10.447  12.622  0.00  0.00    +0.000 OA
ATOM     11  H   UNL     1      47.417  11.162  14.116  0.00  0.00    +0.000 HD
ATOM     12  H   UNL     1      48.755  12.161  13.654  0.00  0.00    +0.000 HD
ENDBRANCH   4   8
BRANCH   2  14
ATOM     13  C   UNL     1      49.505   6.445  16.361  0.00  0.00    +0.000 C 
ATOM     14  O   UNL     1      48.643   5.902  15.367  0.00  0.00    +0.000 OA
ENDBRANCH   2  14
ENDBRANCH   1   7
BRANCH   1  15
ATOM     15  C   UNL     1      45.414   4.932  13.380  0.00  0.00    +0.000 C 
BRANCH  15  16
ATOM     16  C   UNL     1      44.814   4.078  12.294  0.00  0.00    +0.000 A 
ATOM     17  C   UNL     1      43.653   3.356  12.540  0.00  0.00    +0.000 A 
ATOM     18  N   UNL     1      43.092   2.507  11.655  0.00  0.00    +0.000 NA
ATOM     19  C   UNL     1      43.732   2.358  10.470  0.00  0.00    +0.000 A 
ATOM     20  C   UNL     1      44.916   3.005  10.104  0.00  0.00    +0.000 A 
ATOM     21  C   UNL     1      45.447   3.881  11.061  0.00  0.00    +0.000 A 
BRANCH  20  22
ATOM     22  C   UNL     1      45.591   2.755   8.814  0.00  0.00    +0.000 A 
ATOM     23  C   UNL     1      45.885   3.804   7.920  0.00  0.00    +0.000 A 
ATOM     24  C   UNL     1      46.571   3.577   6.721  0.00  0.00    +0.000 A 
ATOM     25  C   UNL     1      46.965   2.287   6.382  0.00  0.00    +0.000 A 
ATOM     26  C   UNL     1      46.667   1.241   7.242  0.00  0.00    +0.000 A 
ATOM     27  F   UNL     1      47.045  -0.004   6.921  0.00  0.00    +0.000 F 
ATOM     28  C   UNL     1      45.995   1.461   8.441  0.00  0.00    +0.000 A 
ENDBRANCH  20  22
ENDBRANCH  15  16
ENDBRANCH   1  15
TORSDOF 6
ENDMDL
MODEL 8
REMARK VINA RESULT:    -6.518      2.068      3.179
REMARK INTER + INTRA:         -10.175
REMARK INTER:                  -9.422
REMARK INTRA:                  -0.753
REMARK UNBOUND:                -1.371
REMARK  Name = 
REMARK  7 active torsions:
REMARK  status: ('A' for Active; 'I' for Inactive)
REMARK    1  A    between atoms: C_1  and  O_2
REMARK    2  A    between atoms: O_2  and  C_3
REMARK    3  A    between atoms: C_5  and  C_6
REMARK    4  A    between atoms: C_11  and  O_12
REMARK    5  A    between atoms: O_12  and  C_13
REMARK    6  A    between atoms: C_13  and  C_14
REMARK    7  A    between atoms: C_18  and  C_19
REMARK                            x       y       z     vdW  Elec       q    Type
REMARK                         _______ _______ _______ _____ _____    ______ ____
ROOT
ATOM      1  O   UNL     1      47.309   6.914  12.020  0.00  0.00    +0.000 OA
ENDROOT
BRANCH   1   7
ATOM      2  C   UNL     1      49.389   7.795  13.091  0.00  0.00    +0.000 A 
ATOM      3  C   UNL     1      50.173   7.772  14.254  0.00  0.00    +0.000 A 
ATOM      4  C   UNL     1      49.807   7.015  15.376  0.00  0.00    +0.000 A 
ATOM      5  C   UNL     1      48.624   6.277  15.338  0.00  0.00    +0.000 A 
ATOM      6  C   UNL     1      47.835   6.294  14.182  0.00  0.00    +0.000 A 
ATOM      7  C   UNL     1      48.202   7.042  13.053  0.00  0.00    +0.000 A 
BRANCH   4   8
ATOM      8  C   UNL     1      50.724   7.061  16.552  0.00  0.00    +0.000 C 
ATOM      9  N   UNL     1      51.973   6.526  16.437  0.00  0.00    +0.000 N 
ATOM     10  O   UNL     1      50.376   7.573  17.611  0.00  0.00    +0.000 OA
ATOM     11  H   UNL     1      52.352   6.090  15.611  0.00  0.00    +0.000 HD
ATOM     12  H   UNL     1      52.563   6.582  17.259  0.00  0.00    +0.000 HD
ENDBRANCH   4   8
BRANCH   2  14
ATOM     13  C   UNL     1      50.730   9.556  12.205  0.00  0.00    +0.000 C 
ATOM     14  O   UNL     1      49.716   8.576  12.015  0.00  0.00    +0.000 OA
ENDBRANCH   2  14
ENDBRANCH   1   7
BRANCH   1  15
ATOM     15  C   UNL     1      45.916   6.917  12.335  0.00  0.00    +0.000 C 
BRANCH  15  16
ATOM     16  C   UNL     1      45.147   6.041  11.381  0.00  0.00    +0.000 A 
ATOM     17  C   UNL     1      43.770   5.912  11.513  0.00  0.00    +0.000 A 
ATOM     18  N   UNL     1      43.014   5.092  10.756  0.00  0.00    +0.000 NA
ATOM     19  C   UNL     1      43.668   4.349   9.831  0.00  0.00    +0.000 A 
ATOM     20  C   UNL     1      45.048   4.365   9.609  0.00  0.00    +0.000 A 
ATOM     21  C   UNL     1      45.780   5.245  10.421  0.00  0.00    +0.000 A 
BRANCH  20  22
ATOM     22  C   UNL     1      45.704   3.488   8.618  0.00  0.00    +0.000 A 
ATOM     23  C   UNL     1      46.377   4.015   7.498  0.00  0.00    +0.000 A 
ATOM     24  C   UNL     1      47.044   3.188   6.585  0.00  0.00    +0.000 A 
ATOM     25  C   UNL     1      47.036   1.810   6.767  0.00  0.00    +0.000 A 
ATOM     26  C   UNL     1      46.363   1.274   7.854  0.00  0.00    +0.000 A 
ATOM     27  F   UNL     1      46.352  -0.054   8.033  0.00  0.00    +0.000 F 
ATOM     28  C   UNL     1      45.707   2.090   8.771  0.00  0.00    +0.000 A 
ENDBRANCH  20  22
ENDBRANCH  15  16
ENDBRANCH   1  15
TORSDOF 6
ENDMDL
MODEL 9
REMARK VINA RESULT:    -6.330      2.029      2.839
REMARK INTER + INTRA:          -9.921
REMARK INTER:                  -9.107
REMARK INTRA:                  -0.814
REMARK UNBOUND:                -1.371
REMARK  Name = 
REMARK  7 active torsions:
REMARK  status: ('A' for Active; 'I' for Inactive)
REMARK    1  A    between atoms: C_1  and  O_2
REMARK    2  A    between atoms: O_2  and  C_3
REMARK    3  A    between atoms: C_5  and  C_6
REMARK    4  A    between atoms: C_11  and  O_12
REMARK    5  A    between atoms: O_12  and  C_13
REMARK    6  A    between atoms: C_13  and  C_14
REMARK    7  A    between atoms: C_18  and  C_19
REMARK                            x       y       z     vdW  Elec       q    Type
REMARK                         _______ _______ _______ _____ _____    ______ ____
ROOT
ATOM      1  O   UNL     1      47.138   5.935  13.173  0.00  0.00    +0.000 OA
ENDROOT
BRANCH   1   7
ATOM      2  C   UNL     1      49.230   7.033  13.990  0.00  0.00    +0.000 A 
ATOM      3  C   UNL     1      50.229   7.967  13.675  0.00  0.00    +0.000 A 
ATOM      4  C   UNL     1      50.231   8.663  12.458  0.00  0.00    +0.000 A 
ATOM      5  C   UNL     1      49.221   8.408  11.531  0.00  0.00    +0.000 A 
ATOM      6  C   UNL     1      48.219   7.478  11.836  0.00  0.00    +0.000 A 
ATOM      7  C   UNL     1      48.208   6.787  13.057  0.00  0.00    +0.000 A 
BRANCH   4   8
ATOM      8  C   UNL     1      51.339   9.637  12.237  0.00  0.00    +0.000 C 
ATOM      9  N   UNL     1      51.072  10.972  12.325  0.00  0.00    +0.000 N 
ATOM     10  O   UNL     1      52.479   9.259  11.986  0.00  0.00    +0.000 OA
ATOM     11  H   UNL     1      50.174  11.379  12.532  0.00  0.00    +0.000 HD
ATOM     12  H   UNL     1      51.854  11.597  12.172  0.00  0.00    +0.000 HD
ENDBRANCH   4   8
BRANCH   2  14
ATOM     13  C   UNL     1      49.973   6.870  16.250  0.00  0.00    +0.000 C 
ATOM     14  O   UNL     1      49.257   6.313  15.154  0.00  0.00    +0.000 OA
ENDBRANCH   2  14
ENDBRANCH   1   7
BRANCH   1  15
ATOM     15  C   UNL     1      45.826   6.490  13.068  0.00  0.00    +0.000 C 
BRANCH  15  16
ATOM     16  C   UNL     1      45.018   5.765  12.024  0.00  0.00    +0.000 A 
ATOM     17  C   UNL     1      43.634   5.714  12.130  0.00  0.00    +0.000 A 
ATOM     18  N   UNL     1      42.839   5.025  11.287  0.00  0.00    +0.000 NA
ATOM     19  C   UNL     1      43.459   4.336  10.298  0.00  0.00    +0.000 A 
ATOM     20  C   UNL     1      44.840   4.284  10.093  0.00  0.00    +0.000 A 
ATOM     21  C   UNL     1      45.614   5.028  10.995  0.00  0.00    +0.000 A 
BRANCH  20  22
ATOM     22  C   UNL     1      45.454   3.469   9.024  0.00  0.00    +0.000 A 
ATOM     23  C   UNL     1      45.591   2.072   9.149  0.00  0.00    +0.000 A 
ATOM     24  C   UNL     1      46.125   1.291   8.116  0.00  0.00    +0.000 A 
ATOM     25  C   UNL     1      46.551   1.897   6.939  0.00  0.00    +0.000 A 
ATOM     26  C   UNL     1      46.440   3.273   6.808  0.00  0.00    +0.000 A 
ATOM     27  F   UNL     1      46.848   3.862   5.676  0.00  0.00    +0.000 F 
ATOM     28  C   UNL     1      45.900   4.054   7.826  0.00  0.00    +0.000 A 
ENDBRANCH  20  22
ENDBRANCH  15  16
ENDBRANCH   1  15
TORSDOF 6
ENDMDL
