MODEL 1
REMARK VINA RESULT:    -7.070      0.000      0.000
REMARK INTER + INTRA:          -9.533
REMARK INTER:                  -8.930
REMARK INTRA:                  -0.603
REMARK UNBOUND:                -0.603
REMARK  Name = 
REMARK  8 active torsions:
REMARK  status: ('A' for Active; 'I' for Inactive)
REMARK    1  A    between atoms: C_1  and  C_2
REMARK    2  A    between atoms: C_2  and  C_3
REMARK    3  A    between atoms: C_2  and  C_4
REMARK    4  A    between atoms: C_2  and  C_5
REMARK    5  A    between atoms: N_7  and  C_8
REMARK    6  A    between atoms: C_8  and  C_9
REMARK    7  A    between atoms: C_13  and  C_14
REMARK    8  A    between atoms: C_14  and  N_15
REMARK                            x       y       z     vdW  Elec       q    Type
REMARK                         _______ _______ _______ _____ _____    ______ ____
ROOT
ATOM      1  C   UNL     1      46.156   7.197  12.127  0.00  0.00    +0.000 A 
ATOM      2  C   UNL     1      45.143   6.962  11.214  0.00  0.00    +0.000 A 
ATOM      3  N   UNL     1      44.847   5.623  11.206  0.00  0.00    +0.000 N 
ATOM      4  C   UNL     1      45.588   4.969  12.161  0.00  0.00    +0.000 A 
ATOM      5  C   UNL     1      45.605   3.620  12.545  0.00  0.00    +0.000 A 
ATOM      6  C   UNL     1      46.481   3.228  13.561  0.00  0.00    +0.000 A 
ATOM      7  C   UNL     1      47.317   4.156  14.173  0.00  0.00    +0.000 A 
ATOM      8  C   UNL     1      47.297   5.497  13.779  0.00  0.00    +0.000 A 
ATOM      9  C   UNL     1      46.417   5.928  12.760  0.00  0.00    +0.000 A 
ENDROOT
BRANCH   1  11
ATOM     10  C   UNL     1      46.048   9.704  11.761  0.00  0.00    +0.000 C 
ATOM     11  C   UNL     1      46.859   8.535  12.370  0.00  0.00    +0.000 C 
ATOM     12  C   UNL     1      48.253   8.532  11.706  0.00  0.00    +0.000 C 
ATOM     13  C   UNL     1      47.027   8.830  13.873  0.00  0.00    +0.000 C 
ENDBRANCH   1  11
BRANCH   3  14
ATOM     14  C   UNL     1      43.931   4.995  10.245  0.00  0.00    +0.000 C 
BRANCH  14  15
ATOM     15  C   UNL     1      44.625   3.946   9.412  0.00  0.00    +0.000 A 
ATOM     16  C   UNL     1      44.354   2.584   9.603  0.00  0.00    +0.000 A 
ATOM     17  C   UNL     1      45.083   1.616   8.917  0.00  0.00    +0.000 A 
ATOM     18  C   UNL     1      46.077   1.999   8.016  0.00  0.00    +0.000 A 
ATOM     19  C   UNL     1      46.327   3.354   7.757  0.00  0.00    +0.000 A 
ATOM     20  C   UNL     1      45.592   4.319   8.465  0.00  0.00    +0.000 A 
BRANCH  19  21
ATOM     21  C   UNL     1      47.459   3.735   6.834  0.00  0.00    +0.000 C 
BRANCH  21  22
ATOM     22  N   UNL     1      48.323   2.616   6.472  0.00  0.00    +0.000 NA
ATOM     23  H   UNL     1      49.249   2.978   6.253  0.00  0.00    +0.000 HD
ATOM     24  H   UNL     1      47.970   2.197   5.612  0.00  0.00    +0.000 HD
ENDBRANCH  21  22
ENDBRANCH  19  21
ENDBRANCH  14  15
ENDBRANCH   3  14
TORSDOF 5
ENDMDL
MODEL 2
REMARK VINA RESULT:    -6.375      1.562      3.651
REMARK INTER + INTRA:          -8.655
REMARK INTER:                  -8.033
REMARK INTRA:                  -0.623
REMARK UNBOUND:                -0.603
REMARK  Name = 
REMARK  8 active torsions:
REMARK  status: ('A' for Active; 'I' for Inactive)
REMARK    1  A    between atoms: C_1  and  C_2
REMARK    2  A    between atoms: C_2  and  C_3
REMARK    3  A    between atoms: C_2  and  C_4
REMARK    4  A    between atoms: C_2  and  C_5
REMARK    5  A    between atoms: N_7  and  C_8
REMARK    6  A    between atoms: C_8  and  C_9
REMARK    7  A    between atoms: C_13  and  C_14
REMARK    8  A    between atoms: C_14  and  N_15
REMARK                            x       y       z     vdW  Elec       q    Type
REMARK                         _______ _______ _______ _____ _____    ______ ____
ROOT
ATOM      1  C   UNL     1      46.458   7.493  12.607  0.00  0.00    +0.000 A 
ATOM      2  C   UNL     1      45.566   6.478  12.305  0.00  0.00    +0.000 A 
ATOM      3  N   UNL     1      44.466   7.014  11.686  0.00  0.00    +0.000 N 
ATOM      4  C   UNL     1      44.643   8.364  11.494  0.00  0.00    +0.000 A 
ATOM      5  C   UNL     1      43.820   9.319  10.880  0.00  0.00    +0.000 A 
ATOM      6  C   UNL     1      44.260  10.645  10.833  0.00  0.00    +0.000 A 
ATOM      7  C   UNL     1      45.485  11.006  11.384  0.00  0.00    +0.000 A 
ATOM      8  C   UNL     1      46.295  10.047  11.999  0.00  0.00    +0.000 A 
ATOM      9  C   UNL     1      45.884   8.696  12.057  0.00  0.00    +0.000 A 
ENDROOT
BRANCH   1  11
ATOM     10  C   UNL     1      48.987   7.402  12.453  0.00  0.00    +0.000 C 
ATOM     11  C   UNL     1      47.761   7.344  13.396  0.00  0.00    +0.000 C 
ATOM     12  C   UNL     1      47.790   5.983  14.124  0.00  0.00    +0.000 C 
ATOM     13  C   UNL     1      47.932   8.467  14.438  0.00  0.00    +0.000 C 
ENDBRANCH   1  11
BRANCH   3  14
ATOM     14  C   UNL     1      43.255   6.249  11.368  0.00  0.00    +0.000 C 
BRANCH  14  15
ATOM     15  C   UNL     1      43.583   4.897  10.785  0.00  0.00    +0.000 A 
ATOM     16  C   UNL     1      43.344   3.724  11.516  0.00  0.00    +0.000 A 
ATOM     17  C   UNL     1      43.759   2.489  11.025  0.00  0.00    +0.000 A 
ATOM     18  C   UNL     1      44.397   2.409   9.787  0.00  0.00    +0.000 A 
ATOM     19  C   UNL     1      44.593   3.556   9.005  0.00  0.00    +0.000 A 
ATOM     20  C   UNL     1      44.180   4.796   9.518  0.00  0.00    +0.000 A 
BRANCH  19  21
ATOM     21  C   UNL     1      45.353   3.446   7.706  0.00  0.00    +0.000 C 
BRANCH  21  22
ATOM     22  N   UNL     1      46.459   4.391   7.591  0.00  0.00    +0.000 NA
ATOM     23  H   UNL     1      46.097   5.270   7.225  0.00  0.00    +0.000 HD
ATOM     24  H   UNL     1      47.115   4.041   6.894  0.00  0.00    +0.000 HD
ENDBRANCH  21  22
ENDBRANCH  19  21
ENDBRANCH  14  15
ENDBRANCH   3  14
TORSDOF 5
ENDMDL
MODEL 3
REMARK VINA RESULT:    -5.959      2.344      3.860
REMARK INTER + INTRA:          -8.130
REMARK INTER:                  -7.435
REMARK INTRA:                  -0.694
REMARK UNBOUND:                -0.603
REMARK  Name = 
REMARK  8 active torsions:
REMARK  status: ('A' for Active; 'I' for Inactive)
REMARK    1  A    between atoms: C_1  and  C_2
REMARK    2  A    between atoms: C_2  and  C_3
REMARK    3  A    between atoms: C_2  and  C_4
REMARK    4  A    between atoms: C_2  and  C_5
REMARK    5  A    between atoms: N_7  and  C_8
REMARK    6  A    between atoms: C_8  and  C_9
REMARK    7  A    between atoms: C_13  and  C_14
REMARK    8  A    between atoms: C_14  and  N_15
REMARK                            x       y       z     vdW  Elec       q    Type
REMARK                         _______ _______ _______ _____ _____    ______ ____
ROOT
ATOM      1  C   UNL     1      48.300   6.635  14.458  0.00  0.00    +0.000 A 
ATOM      2  C   UNL     1      47.523   5.897  13.581  0.00  0.00    +0.000 A 
ATOM      3  N   UNL     1      47.100   4.753  14.209  0.00  0.00    +0.000 N 
ATOM      4  C   UNL     1      47.512   4.753  15.520  0.00  0.00    +0.000 A 
ATOM      5  C   UNL     1      47.293   3.827  16.550  0.00  0.00    +0.000 A 
ATOM      6  C   UNL     1      47.849   4.085  17.807  0.00  0.00    +0.000 A 
ATOM      7  C   UNL     1      48.602   5.234  18.026  0.00  0.00    +0.000 A 
ATOM      8  C   UNL     1      48.818   6.148  16.991  0.00  0.00    +0.000 A 
ATOM      9  C   UNL     1      48.265   5.920  15.710  0.00  0.00    +0.000 A 
ENDROOT
BRANCH   1  11
ATOM     10  C   UNL     1      48.495   9.117  14.934  0.00  0.00    +0.000 C 
ATOM     11  C   UNL     1      49.058   7.922  14.127  0.00  0.00    +0.000 C 
ATOM     12  C   UNL     1      48.912   8.256  12.627  0.00  0.00    +0.000 C 
ATOM     13  C   UNL     1      50.557   7.808  14.466  0.00  0.00    +0.000 C 
ENDBRANCH   1  11
BRANCH   3  14
ATOM     14  C   UNL     1      46.387   3.665  13.528  0.00  0.00    +0.000 C 
BRANCH  14  15
ATOM     15  C   UNL     1      45.272   4.185  12.655  0.00  0.00    +0.000 A 
ATOM     16  C   UNL     1      44.100   4.705  13.222  0.00  0.00    +0.000 A 
ATOM     17  C   UNL     1      43.027   5.072  12.414  0.00  0.00    +0.000 A 
ATOM     18  C   UNL     1      43.121   4.944  11.029  0.00  0.00    +0.000 A 
ATOM     19  C   UNL     1      44.303   4.487  10.428  0.00  0.00    +0.000 A 
ATOM     20  C   UNL     1      45.373   4.110  11.256  0.00  0.00    +0.000 A 
BRANCH  19  21
ATOM     21  C   UNL     1      44.345   4.290   8.933  0.00  0.00    +0.000 C 
BRANCH  21  22
ATOM     22  N   UNL     1      45.547   4.830   8.304  0.00  0.00    +0.000 NA
ATOM     23  H   UNL     1      45.609   5.822   8.522  0.00  0.00    +0.000 HD
ATOM     24  H   UNL     1      45.440   4.766   7.292  0.00  0.00    +0.000 HD
ENDBRANCH  21  22
ENDBRANCH  19  21
ENDBRANCH  14  15
ENDBRANCH   3  14
TORSDOF 5
ENDMDL
MODEL 4
REMARK VINA RESULT:    -5.914      2.624      7.128
REMARK INTER + INTRA:          -8.072
REMARK INTER:                  -7.347
REMARK INTRA:                  -0.725
REMARK UNBOUND:                -0.603
REMARK  Name = 
REMARK  8 active torsions:
REMARK  status: ('A' for Active; 'I' for Inactive)
REMARK    1  A    between atoms: C_1  and  C_2
REMARK    2  A    between atoms: C_2  and  C_3
REMARK    3  A    between atoms: C_2  and  C_4
REMARK    4  A    between atoms: C_2  and  C_5
REMARK    5  A    between atoms: N_7  and  C_8
REMARK    6  A    between atoms: C_8  and  C_9
REMARK    7  A    between atoms: C_13  and  C_14
REMARK    8  A    between atoms: C_14  and  N_15
REMARK                            x       y       z     vdW  Elec       q    Type
REMARK                         _______ _______ _______ _____ _____    ______ ____
ROOT
ATOM      1  C   UNL     1      45.138   5.590  12.043  0.00  0.00    +0.000 A 
ATOM      2  C   UNL     1      46.274   5.204  12.734  0.00  0.00    +0.000 A 
ATOM      3  N   UNL     1      47.049   6.308  12.979  0.00  0.00    +0.000 N 
ATOM      4  C   UNL     1      46.410   7.442  12.535  0.00  0.00    +0.000 A 
ATOM      5  C   UNL     1      46.787   8.791  12.597  0.00  0.00    +0.000 A 
ATOM      6  C   UNL     1      45.929   9.748  12.049  0.00  0.00    +0.000 A 
ATOM      7  C   UNL     1      44.729   9.368  11.455  0.00  0.00    +0.000 A 
ATOM      8  C   UNL     1      44.365   8.019  11.395  0.00  0.00    +0.000 A 
ATOM      9  C   UNL     1      45.208   7.027  11.946  0.00  0.00    +0.000 A 
ENDROOT
BRANCH   1  11
ATOM     10  C   UNL     1      44.214   3.229  12.058  0.00  0.00    +0.000 C 
ATOM     11  C   UNL     1      44.065   4.657  11.479  0.00  0.00    +0.000 C 
ATOM     12  C   UNL     1      44.197   4.558   9.943  0.00  0.00    +0.000 C 
ATOM     13  C   UNL     1      42.643   5.143  11.823  0.00  0.00    +0.000 C 
ENDBRANCH   1  11
BRANCH   3  14
ATOM     14  C   UNL     1      48.399   6.247  13.553  0.00  0.00    +0.000 C 
BRANCH  14  15
ATOM     15  C   UNL     1      48.372   6.334  15.059  0.00  0.00    +0.000 A 
ATOM     16  C   UNL     1      48.776   7.504  15.717  0.00  0.00    +0.000 A 
ATOM     17  C   UNL     1      48.865   7.539  17.106  0.00  0.00    +0.000 A 
ATOM     18  C   UNL     1      48.528   6.411  17.855  0.00  0.00    +0.000 A 
ATOM     19  C   UNL     1      48.059   5.247  17.229  0.00  0.00    +0.000 A 
ATOM     20  C   UNL     1      47.987   5.223  15.827  0.00  0.00    +0.000 A 
BRANCH  19  21
ATOM     21  C   UNL     1      47.775   4.021  18.062  0.00  0.00    +0.000 C 
BRANCH  21  22
ATOM     22  N   UNL     1      46.708   3.182  17.526  0.00  0.00    +0.000 NA
ATOM     23  H   UNL     1      46.588   2.378  18.140  0.00  0.00    +0.000 HD
ATOM     24  H   UNL     1      47.007   2.811  16.626  0.00  0.00    +0.000 HD
ENDBRANCH  21  22
ENDBRANCH  19  21
ENDBRANCH  14  15
ENDBRANCH   3  14
TORSDOF 5
ENDMDL
MODEL 5
REMARK VINA RESULT:    -5.494      2.000      4.306
REMARK INTER + INTRA:          -7.542
REMARK INTER:                  -6.984
REMARK INTRA:                  -0.558
REMARK UNBOUND:                -0.603
REMARK  Name = 
REMARK  8 active torsions:
REMARK  status: ('A' for Active; 'I' for Inactive)
REMARK    1  A    between atoms: C_1  and  C_2
REMARK    2  A    between atoms: C_2  and  C_3
REMARK    3  A    between atoms: C_2  and  C_4
REMARK    4  A    between atoms: C_2  and  C_5
REMARK    5  A    between atoms: N_7  and  C_8
REMARK    6  A    between atoms: C_8  and  C_9
REMARK    7  A    between atoms: C_13  and  C_14
REMARK    8  A    between atoms: C_14  and  N_15
REMARK                            x       y       z     vdW  Elec       q    Type
REMARK                         _______ _______ _______ _____ _____    ______ ____
ROOT
ATOM      1  C   UNL     1      44.748   9.440  11.431  0.00  0.00    +0.000 A 
ATOM      2  C   UNL     1      44.671   8.123  11.853  0.00  0.00    +0.000 A 
ATOM      3  N   UNL     1      45.911   7.713  12.274  0.00  0.00    +0.000 N 
ATOM      4  C   UNL     1      46.799   8.760  12.219  0.00  0.00    +0.000 A 
ATOM      5  C   UNL     1      48.154   8.834  12.576  0.00  0.00    +0.000 A 
ATOM      6  C   UNL     1      48.823  10.049  12.403  0.00  0.00    +0.000 A 
ATOM      7  C   UNL     1      48.158  11.157  11.887  0.00  0.00    +0.000 A 
ATOM      8  C   UNL     1      46.810  11.071  11.529  0.00  0.00    +0.000 A 
ATOM      9  C   UNL     1      46.102   9.859  11.698  0.00  0.00    +0.000 A 
ENDROOT
BRANCH   1  11
ATOM     10  C   UNL     1      42.328   9.402  10.677  0.00  0.00    +0.000 C 
ATOM     11  C   UNL     1      43.620  10.247  10.786  0.00  0.00    +0.000 C 
ATOM     12  C   UNL     1      44.022  10.678   9.358  0.00  0.00    +0.000 C 
ATOM     13  C   UNL     1      43.275  11.506  11.605  0.00  0.00    +0.000 C 
ENDBRANCH   1  11
BRANCH   3  14
ATOM     14  C   UNL     1      46.231   6.328  12.640  0.00  0.00    +0.000 C 
BRANCH  14  15
ATOM     15  C   UNL     1      45.342   5.340  11.926  0.00  0.00    +0.000 A 
ATOM     16  C   UNL     1      44.475   4.505  12.645  0.00  0.00    +0.000 A 
ATOM     17  C   UNL     1      43.746   3.514  11.992  0.00  0.00    +0.000 A 
ATOM     18  C   UNL     1      43.860   3.359  10.611  0.00  0.00    +0.000 A 
ATOM     19  C   UNL     1      44.670   4.220   9.857  0.00  0.00    +0.000 A 
ATOM     20  C   UNL     1      45.408   5.207  10.529  0.00  0.00    +0.000 A 
BRANCH  19  21
ATOM     21  C   UNL     1      44.829   3.978   8.375  0.00  0.00    +0.000 C 
BRANCH  21  22
ATOM     22  N   UNL     1      46.098   4.457   7.835  0.00  0.00    +0.000 NA
ATOM     23  H   UNL     1      45.903   5.145   7.110  0.00  0.00    +0.000 HD
ATOM     24  H   UNL     1      46.568   3.681   7.372  0.00  0.00    +0.000 HD
ENDBRANCH  21  22
ENDBRANCH  19  21
ENDBRANCH  14  15
ENDBRANCH   3  14
TORSDOF 5
ENDMDL
MODEL 6
REMARK VINA RESULT:    -5.458      1.751      3.873
REMARK INTER + INTRA:          -7.497
REMARK INTER:                  -7.081
REMARK INTRA:                  -0.417
REMARK UNBOUND:                -0.603
REMARK  Name = 
REMARK  8 active torsions:
REMARK  status: ('A' for Active; 'I' for Inactive)
REMARK    1  A    between atoms: C_1  and  C_2
REMARK    2  A    between atoms: C_2  and  C_3
REMARK    3  A    between atoms: C_2  and  C_4
REMARK    4  A    between atoms: C_2  and  C_5
REMARK    5  A    between atoms: N_7  and  C_8
REMARK    6  A    between atoms: C_8  and  C_9
REMARK    7  A    between atoms: C_13  and  C_14
REMARK    8  A    between atoms: C_14  and  N_15
REMARK                            x       y       z     vdW  Elec       q    Type
REMARK                         _______ _______ _______ _____ _____    ______ ____
ROOT
ATOM      1  C   UNL     1      47.315   5.068  14.928  0.00  0.00    +0.000 A 
ATOM      2  C   UNL     1      46.098   4.754  14.349  0.00  0.00    +0.000 A 
ATOM      3  N   UNL     1      45.864   5.608  13.301  0.00  0.00    +0.000 N 
ATOM      4  C   UNL     1      46.945   6.436  13.116  0.00  0.00    +0.000 A 
ATOM      5  C   UNL     1      47.183   7.436  12.161  0.00  0.00    +0.000 A 
ATOM      6  C   UNL     1      48.391   8.136  12.217  0.00  0.00    +0.000 A 
ATOM      7  C   UNL     1      49.333   7.848  13.200  0.00  0.00    +0.000 A 
ATOM      8  C   UNL     1      49.083   6.854  14.151  0.00  0.00    +0.000 A 
ATOM      9  C   UNL     1      47.875   6.122  14.118  0.00  0.00    +0.000 A 
ENDROOT
BRANCH   1  11
ATOM     10  C   UNL     1      48.263   2.948  15.944  0.00  0.00    +0.000 C 
ATOM     11  C   UNL     1      47.905   4.433  16.189  0.00  0.00    +0.000 C 
ATOM     12  C   UNL     1      46.879   4.487  17.342  0.00  0.00    +0.000 C 
ATOM     13  C   UNL     1      49.195   5.146  16.640  0.00  0.00    +0.000 C 
ENDBRANCH   1  11
BRANCH   3  14
ATOM     14  C   UNL     1      44.597   5.664  12.561  0.00  0.00    +0.000 C 
BRANCH  14  15
ATOM     15  C   UNL     1      44.579   4.694  11.407  0.00  0.00    +0.000 A 
ATOM     16  C   UNL     1      43.974   3.436  11.536  0.00  0.00    +0.000 A 
ATOM     17  C   UNL     1      44.065   2.499  10.510  0.00  0.00    +0.000 A 
ATOM     18  C   UNL     1      44.743   2.817   9.333  0.00  0.00    +0.000 A 
ATOM     19  C   UNL     1      45.303   4.089   9.149  0.00  0.00    +0.000 A 
ATOM     20  C   UNL     1      45.214   5.019  10.197  0.00  0.00    +0.000 A 
BRANCH  19  21
ATOM     21  C   UNL     1      46.094   4.375   7.896  0.00  0.00    +0.000 C 
BRANCH  21  22
ATOM     22  N   UNL     1      46.291   3.205   7.046  0.00  0.00    +0.000 NA
ATOM     23  H   UNL     1      45.934   2.386   7.533  0.00  0.00    +0.000 HD
ATOM     24  H   UNL     1      47.292   3.053   6.929  0.00  0.00    +0.000 HD
ENDBRANCH  21  22
ENDBRANCH  19  21
ENDBRANCH  14  15
ENDBRANCH   3  14
TORSDOF 5
ENDMDL
MODEL 7
REMARK VINA RESULT:    -5.441      3.531      6.781
REMARK INTER + INTRA:          -7.476
REMARK INTER:                  -7.042
REMARK INTRA:                  -0.434
REMARK UNBOUND:                -0.603
REMARK  Name = 
REMARK  8 active torsions:
REMARK  status: ('A' for Active; 'I' for Inactive)
REMARK    1  A    between atoms: C_1  and  C_2
REMARK    2  A    between atoms: C_2  and  C_3
REMARK    3  A    between atoms: C_2  and  C_4
REMARK    4  A    between atoms: C_2  and  C_5
REMARK    5  A    between atoms: N_7  and  C_8
REMARK    6  A    between atoms: C_8  and  C_9
REMARK    7  A    between atoms: C_13  and  C_14
REMARK    8  A    between atoms: C_14  and  N_15
REMARK                            x       y       z     vdW  Elec       q    Type
REMARK                         _______ _______ _______ _____ _____    ______ ____
ROOT
ATOM      1  C   UNL     1      47.920   6.643  13.416  0.00  0.00    +0.000 A 
ATOM      2  C   UNL     1      48.021   5.892  14.575  0.00  0.00    +0.000 A 
ATOM      3  N   UNL     1      47.064   4.910  14.559  0.00  0.00    +0.000 N 
ATOM      4  C   UNL     1      46.377   4.937  13.369  0.00  0.00    +0.000 A 
ATOM      5  C   UNL     1      45.348   4.117  12.884  0.00  0.00    +0.000 A 
ATOM      6  C   UNL     1      44.823   4.386  11.617  0.00  0.00    +0.000 A 
ATOM      7  C   UNL     1      45.311   5.445  10.858  0.00  0.00    +0.000 A 
ATOM      8  C   UNL     1      46.333   6.260  11.353  0.00  0.00    +0.000 A 
ATOM      9  C   UNL     1      46.891   6.010  12.628  0.00  0.00    +0.000 A 
ENDROOT
BRANCH   1  11
ATOM     10  C   UNL     1      49.771   8.195  14.185  0.00  0.00    +0.000 C 
ATOM     11  C   UNL     1      48.724   7.901  13.083  0.00  0.00    +0.000 C 
ATOM     12  C   UNL     1      47.786   9.123  12.986  0.00  0.00    +0.000 C 
ATOM     13  C   UNL     1      49.490   7.757  11.753  0.00  0.00    +0.000 C 
ENDBRANCH   1  11
BRANCH   3  14
ATOM     14  C   UNL     1      46.781   4.029  15.699  0.00  0.00    +0.000 C 
BRANCH  14  15
ATOM     15  C   UNL     1      47.880   4.076  16.731  0.00  0.00    +0.000 A 
ATOM     16  C   UNL     1      47.870   5.042  17.746  0.00  0.00    +0.000 A 
ATOM     17  C   UNL     1      48.947   5.157  18.622  0.00  0.00    +0.000 A 
ATOM     18  C   UNL     1      50.035   4.293  18.507  0.00  0.00    +0.000 A 
ATOM     19  C   UNL     1      50.046   3.276  17.542  0.00  0.00    +0.000 A 
ATOM     20  C   UNL     1      48.959   3.179  16.658  0.00  0.00    +0.000 A 
BRANCH  19  21
ATOM     21  C   UNL     1      51.271   2.407  17.395  0.00  0.00    +0.000 C 
BRANCH  21  22
ATOM     22  N   UNL     1      51.038   1.004  17.721  0.00  0.00    +0.000 NA
ATOM     23  H   UNL     1      50.297   0.951  18.418  0.00  0.00    +0.000 HD
ATOM     24  H   UNL     1      51.875   0.630  18.166  0.00  0.00    +0.000 HD
ENDBRANCH  21  22
ENDBRANCH  19  21
ENDBRANCH  14  15
ENDBRANCH   3  14
TORSDOF 5
ENDMDL
MODEL 8
REMARK VINA RESULT:    -5.332      3.050      7.673
REMARK INTER + INTRA:          -7.338
REMARK INTER:                  -6.504
REMARK INTRA:                  -0.834
REMARK UNBOUND:                -0.603
REMARK  Name = 
REMARK  8 active torsions:
REMARK  status: ('A' for Active; 'I' for Inactive)
REMARK    1  A    between atoms: C_1  and  C_2
REMARK    2  A    between atoms: C_2  and  C_3
REMARK    3  A    between atoms: C_2  and  C_4
REMARK    4  A    between atoms: C_2  and  C_5
REMARK    5  A    between atoms: N_7  and  C_8
REMARK    6  A    between atoms: C_8  and  C_9
REMARK    7  A    between atoms: C_13  and  C_14
REMARK    8  A    between atoms: C_14  and  N_15
REMARK                            x       y       z     vdW  Elec       q    Type
REMARK                         _______ _______ _______ _____ _____    ______ ____
ROOT
ATOM      1  C   UNL     1      45.715   5.819  12.579  0.00  0.00    +0.000 A 
ATOM      2  C   UNL     1      46.874   5.639  13.314  0.00  0.00    +0.000 A 
ATOM      3  N   UNL     1      47.529   6.839  13.421  0.00  0.00    +0.000 N 
ATOM      4  C   UNL     1      46.785   7.838  12.840  0.00  0.00    +0.000 A 
ATOM      5  C   UNL     1      47.022   9.216  12.734  0.00  0.00    +0.000 A 
ATOM      6  C   UNL     1      46.078  10.005  12.072  0.00  0.00    +0.000 A 
ATOM      7  C   UNL     1      44.932   9.434  11.529  0.00  0.00    +0.000 A 
ATOM      8  C   UNL     1      44.707   8.058  11.635  0.00  0.00    +0.000 A 
ATOM      9  C   UNL     1      45.639   7.232  12.306  0.00  0.00    +0.000 A 
ENDROOT
BRANCH   1  11
ATOM     10  C   UNL     1      45.311   3.318  12.478  0.00  0.00    +0.000 C 
ATOM     11  C   UNL     1      44.749   4.718  12.134  0.00  0.00    +0.000 C 
ATOM     12  C   UNL     1      44.539   4.779  10.606  0.00  0.00    +0.000 C 
ATOM     13  C   UNL     1      43.378   4.843  12.828  0.00  0.00    +0.000 C 
ENDBRANCH   1  11
BRANCH   3  14
ATOM     14  C   UNL     1      48.871   6.988  13.999  0.00  0.00    +0.000 C 
BRANCH  14  15
ATOM     15  C   UNL     1      48.818   7.189  15.493  0.00  0.00    +0.000 A 
ATOM     16  C   UNL     1      48.992   6.108  16.369  0.00  0.00    +0.000 A 
ATOM     17  C   UNL     1      48.822   6.276  17.741  0.00  0.00    +0.000 A 
ATOM     18  C   UNL     1      48.500   7.531  18.256  0.00  0.00    +0.000 A 
ATOM     19  C   UNL     1      48.382   8.645  17.411  0.00  0.00    +0.000 A 
ATOM     20  C   UNL     1      48.544   8.458  16.029  0.00  0.00    +0.000 A 
BRANCH  19  21
ATOM     21  C   UNL     1      47.959   9.972  17.991  0.00  0.00    +0.000 C 
BRANCH  21  22
ATOM     22  N   UNL     1      47.982  11.068  17.027  0.00  0.00    +0.000 NA
ATOM     23  H   UNL     1      47.780  10.691  16.102  0.00  0.00    +0.000 HD
ATOM     24  H   UNL     1      48.929  11.441  16.981  0.00  0.00    +0.000 HD
ENDBRANCH  21  22
ENDBRANCH  19  21
ENDBRANCH  14  15
ENDBRANCH   3  14
TORSDOF 5
ENDMDL
MODEL 9
REMARK VINA RESULT:    -5.089      3.831      6.826
REMARK INTER + INTRA:          -7.031
REMARK INTER:                  -6.171
REMARK INTRA:                  -0.860
REMARK UNBOUND:                -0.603
REMARK  Name = 
REMARK  8 active torsions:
REMARK  status: ('A' for Active; 'I' for Inactive)
REMARK    1  A    between atoms: C_1  and  C_2
REMARK    2  A    between atoms: C_2  and  C_3
REMARK    3  A    between atoms: C_2  and  C_4
REMARK    4  A    between atoms: C_2  and  C_5
REMARK    5  A    between atoms: N_7  and  C_8
REMARK    6  A    between atoms: C_8  and  C_9
REMARK    7  A    between atoms: C_13  and  C_14
REMARK    8  A    between atoms: C_14  and  N_15
REMARK                            x       y       z     vdW  Elec       q    Type
REMARK                         _______ _______ _______ _____ _____    ______ ____
ROOT
ATOM      1  C   UNL     1      48.627   6.330  17.308  0.00  0.00    +0.000 A 
ATOM      2  C   UNL     1      48.834   5.903  16.008  0.00  0.00    +0.000 A 
ATOM      3  N   UNL     1      48.897   6.994  15.179  0.00  0.00    +0.000 N 
ATOM      4  C   UNL     1      48.819   8.152  15.916  0.00  0.00    +0.000 A 
ATOM      5  C   UNL     1      48.875   9.496  15.522  0.00  0.00    +0.000 A 
ATOM      6  C   UNL     1      48.760  10.484  16.504  0.00  0.00    +0.000 A 
ATOM      7  C   UNL     1      48.592  10.138  17.841  0.00  0.00    +0.000 A 
ATOM      8  C   UNL     1      48.533   8.795  18.223  0.00  0.00    +0.000 A 
ATOM      9  C   UNL     1      48.653   7.771  17.255  0.00  0.00    +0.000 A 
ENDROOT
BRANCH   1  11
ATOM     10  C   UNL     1      47.107   5.859  19.281  0.00  0.00    +0.000 C 
ATOM     11  C   UNL     1      48.389   5.434  18.525  0.00  0.00    +0.000 C 
ATOM     12  C   UNL     1      49.574   5.545  19.509  0.00  0.00    +0.000 C 
ATOM     13  C   UNL     1      48.215   3.957  18.124  0.00  0.00    +0.000 C 
ENDBRANCH   1  11
BRANCH   3  14
ATOM     14  C   UNL     1      48.951   6.905  13.715  0.00  0.00    +0.000 C 
BRANCH  14  15
ATOM     15  C   UNL     1      47.582   7.036  13.095  0.00  0.00    +0.000 A 
ATOM     16  C   UNL     1      47.196   8.222  12.454  0.00  0.00    +0.000 A 
ATOM     17  C   UNL     1      45.893   8.381  11.990  0.00  0.00    +0.000 A 
ATOM     18  C   UNL     1      44.967   7.349  12.141  0.00  0.00    +0.000 A 
ATOM     19  C   UNL     1      45.341   6.128  12.720  0.00  0.00    +0.000 A 
ATOM     20  C   UNL     1      46.655   5.986  13.194  0.00  0.00    +0.000 A 
BRANCH  19  21
ATOM     21  C   UNL     1      44.297   5.060  12.936  0.00  0.00    +0.000 C 
BRANCH  21  22
ATOM     22  N   UNL     1      42.979   5.588  13.274  0.00  0.00    +0.000 NA
ATOM     23  H   UNL     1      42.465   5.755  12.412  0.00  0.00    +0.000 HD
ATOM     24  H   UNL     1      43.097   6.499  13.716  0.00  0.00    +0.000 HD
ENDBRANCH  21  22
ENDBRANCH  19  21
ENDBRANCH  14  15
ENDBRANCH   3  14
TORSDOF 5
ENDMDL
