MODEL 1
REMARK VINA RESULT:    -9.333      0.000      0.000
REMARK INTER + INTRA:         -12.859
REMARK INTER:                 -12.061
REMARK INTRA:                  -0.798
REMARK UNBOUND:                -0.798
REMARK  Name = 
REMARK  5 active torsions:
REMARK  status: ('A' for Active; 'I' for Inactive)
REMARK    1  A    between atoms: C_2  and  C_4
REMARK    2  A    between atoms: N_8  and  C_9
REMARK    3  A    between atoms: C_9  and  C_10
REMARK    4  A    between atoms: C_10  and  C_11
REMARK    5  A    between atoms: C_15  and  C_16
REMARK                            x       y       z     vdW  Elec       q    Type
REMARK                         _______ _______ _______ _____ _____    ______ ____
ROOT
ATOM      1  C   UNL     1      43.666   5.666  12.158  0.00  0.00    +0.000 C 
ENDROOT
BRANCH   1   2
ATOM      2  C   UNL     1      45.145   5.794  12.441  0.00  0.00    +0.000 A 
ATOM      3  C   UNL     1      45.966   6.562  11.610  0.00  0.00    +0.000 A 
ATOM      4  C   UNL     1      47.317   6.710  11.911  0.00  0.00    +0.000 A 
ATOM      5  C   UNL     1      47.847   6.113  13.055  0.00  0.00    +0.000 A 
ATOM      6  C   UNL     1      47.045   5.369  13.940  0.00  0.00    +0.000 A 
ATOM      7  C   UNL     1      45.692   5.204  13.591  0.00  0.00    +0.000 A 
BRANCH   6   8
ATOM      8  C   UNL     1      47.596   4.797  15.191  0.00  0.00    +0.000 A 
ATOM      9  C   UNL     1      47.435   3.431  15.504  0.00  0.00    +0.000 A 
ATOM     10  C   UNL     1      47.965   2.875  16.676  0.00  0.00    +0.000 A 
ATOM     11  C   UNL     1      48.681   3.673  17.562  0.00  0.00    +0.000 A 
ATOM     12  C   UNL     1      48.836   5.022  17.283  0.00  0.00    +0.000 A 
ATOM     13  F   UNL     1      49.517   5.794  18.142  0.00  0.00    +0.000 F 
ATOM     14  C   UNL     1      48.294   5.581  16.128  0.00  0.00    +0.000 A 
ATOM     15  F   UNL     1      48.445   6.903  15.940  0.00  0.00    +0.000 F 
ENDBRANCH   6   8
ENDBRANCH   1   2
BRANCH   1  16
ATOM     16  C   UNL     1      43.386   4.458  11.258  0.00  0.00    +0.000 C 
BRANCH  16  21
ATOM     17  C   UNL     1      46.436   2.480   7.709  0.00  0.00    +0.000 A 
ATOM     18  C   UNL     1      45.639   1.836   8.649  0.00  0.00    +0.000 A 
ATOM     19  C   UNL     1      44.740   2.588   9.409  0.00  0.00    +0.000 A 
ATOM     20  C   UNL     1      44.658   3.965   9.224  0.00  0.00    +0.000 A 
ATOM     21  N   UNL     1      43.728   4.761   9.877  0.00  0.00    +0.000 N 
ATOM     22  N   UNL     1      45.442   4.602   8.332  0.00  0.00    +0.000 NA
ATOM     23  C   UNL     1      46.317   3.857   7.602  0.00  0.00    +0.000 A 
ATOM     24  H   UNL     1      43.966   5.729   9.674  0.00  0.00    +0.000 HD
BRANCH  17  26
ATOM     25  N   UNL     1      48.487   2.468   6.408  0.00  0.00    +0.000 N 
ATOM     26  C   UNL     1      47.401   1.763   6.851  0.00  0.00    +0.000 C 
ATOM     27  O   UNL     1      47.256   0.580   6.575  0.00  0.00    +0.000 OA
ATOM     28  H   UNL     1      49.192   1.938   5.909  0.00  0.00    +0.000 HD
ATOM     29  H   UNL     1      48.772   3.344   6.824  0.00  0.00    +0.000 HD
ENDBRANCH  17  26
ENDBRANCH  16  21
ENDBRANCH   1  16
TORSDOF 5
ENDMDL
MODEL 2
REMARK VINA RESULT:    -9.218      2.241      4.082
REMARK INTER + INTRA:         -12.711
REMARK INTER:                 -11.855
REMARK INTRA:                  -0.856
REMARK UNBOUND:                -0.798
REMARK  Name = 
REMARK  5 active torsions:
REMARK  status: ('A' for Active; 'I' for Inactive)
REMARK    1  A    between atoms: C_2  and  C_4
REMARK    2  A    between atoms: N_8  and  C_9
REMARK    3  A    between atoms: C_9  and  C_10
REMARK    4  A    between atoms: C_10  and  C_11
REMARK    5  A    between atoms: C_15  and  C_16
REMARK                            x       y       z     vdW  Elec       q    Type
REMARK                         _______ _______ _______ _____ _____    ______ ____
ROOT
ATOM      1  C   UNL     1      43.472   5.638  12.168  0.00  0.00    +0.000 C 
ENDROOT
BRANCH   1   2
ATOM      2  C   UNL     1      44.886   5.830  12.666  0.00  0.00    +0.000 A 
ATOM      3  C   UNL     1      45.513   4.840  13.428  0.00  0.00    +0.000 A 
ATOM      4  C   UNL     1      46.833   5.010  13.839  0.00  0.00    +0.000 A 
ATOM      5  C   UNL     1      47.537   6.156  13.469  0.00  0.00    +0.000 A 
ATOM      6  C   UNL     1      46.955   7.155  12.666  0.00  0.00    +0.000 A 
ATOM      7  C   UNL     1      45.609   6.974  12.298  0.00  0.00    +0.000 A 
BRANCH   6   8
ATOM      8  C   UNL     1      47.729   8.336  12.216  0.00  0.00    +0.000 A 
ATOM      9  C   UNL     1      47.162   9.628  12.223  0.00  0.00    +0.000 A 
ATOM     10  C   UNL     1      47.889  10.754  11.815  0.00  0.00    +0.000 A 
ATOM     11  C   UNL     1      49.208  10.617  11.397  0.00  0.00    +0.000 A 
ATOM     12  C   UNL     1      49.778   9.354  11.365  0.00  0.00    +0.000 A 
ATOM     13  F   UNL     1      51.047   9.220  10.952  0.00  0.00    +0.000 F 
ATOM     14  C   UNL     1      49.053   8.230  11.753  0.00  0.00    +0.000 A 
ATOM     15  F   UNL     1      49.652   7.032  11.656  0.00  0.00    +0.000 F 
ENDBRANCH   6   8
ENDBRANCH   1   2
BRANCH   1  16
ATOM     16  C   UNL     1      43.378   4.414  11.252  0.00  0.00    +0.000 C 
BRANCH  16  21
ATOM     17  C   UNL     1      46.468   2.521   7.691  0.00  0.00    +0.000 A 
ATOM     18  C   UNL     1      45.638   1.856   8.586  0.00  0.00    +0.000 A 
ATOM     19  C   UNL     1      44.737   2.594   9.356  0.00  0.00    +0.000 A 
ATOM     20  C   UNL     1      44.685   3.979   9.227  0.00  0.00    +0.000 A 
ATOM     21  N   UNL     1      43.757   4.766   9.891  0.00  0.00    +0.000 N 
ATOM     22  N   UNL     1      45.502   4.635   8.378  0.00  0.00    +0.000 NA
ATOM     23  C   UNL     1      46.377   3.903   7.637  0.00  0.00    +0.000 A 
ATOM     24  H   UNL     1      44.018   5.737   9.733  0.00  0.00    +0.000 HD
BRANCH  17  26
ATOM     25  N   UNL     1      48.542   2.523   6.426  0.00  0.00    +0.000 N 
ATOM     26  C   UNL     1      47.438   1.820   6.825  0.00  0.00    +0.000 C 
ATOM     27  O   UNL     1      47.280   0.649   6.505  0.00  0.00    +0.000 OA
ATOM     28  H   UNL     1      49.248   2.001   5.921  0.00  0.00    +0.000 HD
ATOM     29  H   UNL     1      48.832   3.380   6.877  0.00  0.00    +0.000 HD
ENDBRANCH  17  26
ENDBRANCH  16  21
ENDBRANCH   1  16
TORSDOF 5
ENDMDL
MODEL 3
REMARK VINA RESULT:    -8.471      2.620      3.354
REMARK INTER + INTRA:         -11.745
REMARK INTER:                 -10.916
REMARK INTRA:                  -0.829
REMARK UNBOUND:                -0.798
REMARK  Name = 
REMARK  5 active torsions:
REMARK  status: ('A' for Active; 'I' for Inactive)
REMARK    1  A    between atoms: C_2  and  C_4
REMARK    2  A    between atoms: N_8  and  C_9
REMARK    3  A    between atoms: C_9  and  C_10
REMARK    4  A    between atoms: C_10  and  C_11
REMARK    5  A    between atoms: C_15  and  C_16
REMARK                            x       y       z     vdW  Elec       q    Type
REMARK                         _______ _______ _______ _____ _____    ______ ____
ROOT
ATOM      1  C   UNL     1      44.896   4.886  12.072  0.00  0.00    +0.000 C 
ENDROOT
BRANCH   1   2
ATOM      2  C   UNL     1      45.465   6.286  12.057  0.00  0.00    +0.000 A 
ATOM      3  C   UNL     1      44.621   7.399  12.057  0.00  0.00    +0.000 A 
ATOM      4  C   UNL     1      45.160   8.682  12.092  0.00  0.00    +0.000 A 
ATOM      5  C   UNL     1      46.543   8.857  12.152  0.00  0.00    +0.000 A 
ATOM      6  C   UNL     1      47.425   7.761  12.199  0.00  0.00    +0.000 A 
ATOM      7  C   UNL     1      46.854   6.477  12.124  0.00  0.00    +0.000 A 
BRANCH   6   8
ATOM      8  C   UNL     1      48.889   7.950  12.337  0.00  0.00    +0.000 A 
ATOM      9  C   UNL     1      49.743   7.888  11.216  0.00  0.00    +0.000 A 
ATOM     10  C   UNL     1      51.126   8.080  11.331  0.00  0.00    +0.000 A 
ATOM     11  C   UNL     1      51.690   8.350  12.573  0.00  0.00    +0.000 A 
ATOM     12  C   UNL     1      50.871   8.397  13.691  0.00  0.00    +0.000 A 
ATOM     13  F   UNL     1      51.415   8.646  14.890  0.00  0.00    +0.000 F 
ATOM     14  C   UNL     1      49.498   8.188  13.583  0.00  0.00    +0.000 A 
ATOM     15  F   UNL     1      48.769   8.205  14.711  0.00  0.00    +0.000 F 
ENDBRANCH   6   8
ENDBRANCH   1   2
BRANCH   1  16
ATOM     16  C   UNL     1      43.658   4.791  11.174  0.00  0.00    +0.000 C 
BRANCH  16  21
ATOM     17  C   UNL     1      46.465   2.371   7.699  0.00  0.00    +0.000 A 
ATOM     18  C   UNL     1      45.612   1.850   8.665  0.00  0.00    +0.000 A 
ATOM     19  C   UNL     1      44.801   2.720   9.396  0.00  0.00    +0.000 A 
ATOM     20  C   UNL     1      44.861   4.090   9.158  0.00  0.00    +0.000 A 
ATOM     21  N   UNL     1      44.022   5.003   9.781  0.00  0.00    +0.000 N 
ATOM     22  N   UNL     1      45.701   4.607   8.240  0.00  0.00    +0.000 NA
ATOM     23  C   UNL     1      46.489   3.747   7.538  0.00  0.00    +0.000 A 
ATOM     24  H   UNL     1      44.358   5.933   9.539  0.00  0.00    +0.000 HD
BRANCH  17  26
ATOM     25  N   UNL     1      48.424   2.130   6.283  0.00  0.00    +0.000 N 
ATOM     26  C   UNL     1      47.346   1.525   6.868  0.00  0.00    +0.000 C 
ATOM     27  O   UNL     1      47.141   0.325   6.736  0.00  0.00    +0.000 OA
ATOM     28  H   UNL     1      49.075   1.520   5.803  0.00  0.00    +0.000 HD
ATOM     29  H   UNL     1      48.767   3.034   6.579  0.00  0.00    +0.000 HD
ENDBRANCH  17  26
ENDBRANCH  16  21
ENDBRANCH   1  16
TORSDOF 5
ENDMDL
MODEL 4
REMARK VINA RESULT:    -8.358      4.639      8.370
REMARK INTER + INTRA:         -11.599
REMARK INTER:                 -10.871
REMARK INTRA:                  -0.728
REMARK UNBOUND:                -0.798
REMARK  Name = 
REMARK  5 active torsions:
REMARK  status: ('A' for Active; 'I' for Inactive)
REMARK    1  A    between atoms: C_2  and  C_4
REMARK    2  A    between atoms: N_8  and  C_9
REMARK    3  A    between atoms: C_9  and  C_10
REMARK    4  A    between atoms: C_10  and  C_11
REMARK    5  A    between atoms: C_15  and  C_16
REMARK                            x       y       z     vdW  Elec       q    Type
REMARK                         _______ _______ _______ _____ _____    ______ ____
ROOT
ATOM      1  C   UNL     1      46.096   7.186  11.782  0.00  0.00    +0.000 C 
ENDROOT
BRANCH   1   2
ATOM      2  C   UNL     1      45.300   6.101  11.094  0.00  0.00    +0.000 A 
ATOM      3  C   UNL     1      43.934   5.953  11.344  0.00  0.00    +0.000 A 
ATOM      4  C   UNL     1      43.204   4.980  10.666  0.00  0.00    +0.000 A 
ATOM      5  C   UNL     1      43.831   4.170   9.719  0.00  0.00    +0.000 A 
ATOM      6  C   UNL     1      45.195   4.317   9.407  0.00  0.00    +0.000 A 
ATOM      7  C   UNL     1      45.916   5.283  10.135  0.00  0.00    +0.000 A 
BRANCH   6   8
ATOM      8  C   UNL     1      45.842   3.504   8.350  0.00  0.00    +0.000 A 
ATOM      9  C   UNL     1      46.414   4.108   7.211  0.00  0.00    +0.000 A 
ATOM     10  C   UNL     1      47.042   3.351   6.212  0.00  0.00    +0.000 A 
ATOM     11  C   UNL     1      47.122   1.968   6.335  0.00  0.00    +0.000 A 
ATOM     12  C   UNL     1      46.549   1.353   7.438  0.00  0.00    +0.000 A 
ATOM     13  F   UNL     1      46.617   0.019   7.551  0.00  0.00    +0.000 F 
ATOM     14  C   UNL     1      45.909   2.101   8.423  0.00  0.00    +0.000 A 
ATOM     15  F   UNL     1      45.339   1.439   9.443  0.00  0.00    +0.000 F 
ENDBRANCH   6   8
ENDBRANCH   1   2
BRANCH   1  16
ATOM     16  C   UNL     1      47.146   6.581  12.719  0.00  0.00    +0.000 C 
BRANCH  16  21
ATOM     17  C   UNL     1      48.550   4.401  17.089  0.00  0.00    +0.000 A 
ATOM     18  C   UNL     1      48.900   5.641  16.567  0.00  0.00    +0.000 A 
ATOM     19  C   UNL     1      48.245   6.109  15.426  0.00  0.00    +0.000 A 
ATOM     20  C   UNL     1      47.261   5.331  14.822  0.00  0.00    +0.000 A 
ATOM     21  N   UNL     1      46.508   5.768  13.743  0.00  0.00    +0.000 N 
ATOM     22  N   UNL     1      46.930   4.117  15.308  0.00  0.00    +0.000 NA
ATOM     23  C   UNL     1      47.580   3.672  16.417  0.00  0.00    +0.000 A 
ATOM     24  H   UNL     1      45.965   4.973  13.413  0.00  0.00    +0.000 HD
BRANCH  17  26
ATOM     25  N   UNL     1      48.383   3.087  19.125  0.00  0.00    +0.000 N 
ATOM     26  C   UNL     1      49.178   3.835  18.300  0.00  0.00    +0.000 C 
ATOM     27  O   UNL     1      50.367   3.997  18.539  0.00  0.00    +0.000 OA
ATOM     28  H   UNL     1      48.848   2.620  19.894  0.00  0.00    +0.000 HD
ATOM     29  H   UNL     1      47.489   2.718  18.830  0.00  0.00    +0.000 HD
ENDBRANCH  17  26
ENDBRANCH  16  21
ENDBRANCH   1  16
TORSDOF 5
ENDMDL
MODEL 5
REMARK VINA RESULT:    -8.200      2.339      2.891
REMARK INTER + INTRA:         -11.395
REMARK INTER:                 -10.402
REMARK INTRA:                  -0.992
REMARK UNBOUND:                -0.798
REMARK  Name = 
REMARK  5 active torsions:
REMARK  status: ('A' for Active; 'I' for Inactive)
REMARK    1  A    between atoms: C_2  and  C_4
REMARK    2  A    between atoms: N_8  and  C_9
REMARK    3  A    between atoms: C_9  and  C_10
REMARK    4  A    between atoms: C_10  and  C_11
REMARK    5  A    between atoms: C_15  and  C_16
REMARK                            x       y       z     vdW  Elec       q    Type
REMARK                         _______ _______ _______ _____ _____    ______ ____
ROOT
ATOM      1  C   UNL     1      43.668   4.163  12.569  0.00  0.00    +0.000 C 
ENDROOT
BRANCH   1   2
ATOM      2  C   UNL     1      44.474   5.418  12.330  0.00  0.00    +0.000 A 
ATOM      3  C   UNL     1      43.958   6.460  11.556  0.00  0.00    +0.000 A 
ATOM      4  C   UNL     1      44.693   7.631  11.385  0.00  0.00    +0.000 A 
ATOM      5  C   UNL     1      45.933   7.774  12.007  0.00  0.00    +0.000 A 
ATOM      6  C   UNL     1      46.468   6.766  12.831  0.00  0.00    +0.000 A 
ATOM      7  C   UNL     1      45.721   5.579  12.955  0.00  0.00    +0.000 A 
BRANCH   6   8
ATOM      8  C   UNL     1      47.751   6.950  13.548  0.00  0.00    +0.000 A 
ATOM      9  C   UNL     1      47.915   6.513  14.879  0.00  0.00    +0.000 A 
ATOM     10  C   UNL     1      49.129   6.667  15.562  0.00  0.00    +0.000 A 
ATOM     11  C   UNL     1      50.215   7.255  14.925  0.00  0.00    +0.000 A 
ATOM     12  C   UNL     1      50.071   7.709  13.623  0.00  0.00    +0.000 A 
ATOM     13  F   UNL     1      51.115   8.287  13.012  0.00  0.00    +0.000 F 
ATOM     14  C   UNL     1      48.860   7.574  12.947  0.00  0.00    +0.000 A 
ATOM     15  F   UNL     1      48.776   8.074  11.703  0.00  0.00    +0.000 F 
ENDBRANCH   6   8
ENDBRANCH   1   2
BRANCH   1  16
ATOM     16  C   UNL     1      43.365   3.450  11.247  0.00  0.00    +0.000 C 
BRANCH  16  21
ATOM     17  C   UNL     1      46.529   2.825   7.321  0.00  0.00    +0.000 A 
ATOM     18  C   UNL     1      46.072   3.998   7.911  0.00  0.00    +0.000 A 
ATOM     19  C   UNL     1      45.346   3.924   9.101  0.00  0.00    +0.000 A 
ATOM     20  C   UNL     1      45.081   2.684   9.676  0.00  0.00    +0.000 A 
ATOM     21  N   UNL     1      44.445   2.539  10.900  0.00  0.00    +0.000 N 
ATOM     22  N   UNL     1      45.499   1.540   9.099  0.00  0.00    +0.000 NA
ATOM     23  C   UNL     1      46.202   1.628   7.937  0.00  0.00    +0.000 A 
ATOM     24  H   UNL     1      44.255   1.547  11.024  0.00  0.00    +0.000 HD
BRANCH  17  26
ATOM     25  N   UNL     1      48.652   2.528   6.179  0.00  0.00    +0.000 N 
ATOM     26  C   UNL     1      47.318   2.811   6.072  0.00  0.00    +0.000 C 
ATOM     27  O   UNL     1      46.795   3.008   4.983  0.00  0.00    +0.000 OA
ATOM     28  H   UNL     1      49.158   2.419   5.308  0.00  0.00    +0.000 HD
ATOM     29  H   UNL     1      49.053   2.107   7.006  0.00  0.00    +0.000 HD
ENDBRANCH  17  26
ENDBRANCH  16  21
ENDBRANCH   1  16
TORSDOF 5
ENDMDL
MODEL 6
REMARK VINA RESULT:    -7.863      4.500      7.724
REMARK INTER + INTRA:         -10.959
REMARK INTER:                  -9.850
REMARK INTRA:                  -1.109
REMARK UNBOUND:                -0.798
REMARK  Name = 
REMARK  5 active torsions:
REMARK  status: ('A' for Active; 'I' for Inactive)
REMARK    1  A    between atoms: C_2  and  C_4
REMARK    2  A    between atoms: N_8  and  C_9
REMARK    3  A    between atoms: C_9  and  C_10
REMARK    4  A    between atoms: C_10  and  C_11
REMARK    5  A    between atoms: C_15  and  C_16
REMARK                            x       y       z     vdW  Elec       q    Type
REMARK                         _______ _______ _______ _____ _____    ______ ____
ROOT
ATOM      1  C   UNL     1      48.864   8.099  12.327  0.00  0.00    +0.000 C 
ENDROOT
BRANCH   1   2
ATOM      2  C   UNL     1      47.400   7.871  12.032  0.00  0.00    +0.000 A 
ATOM      3  C   UNL     1      46.467   8.893  12.223  0.00  0.00    +0.000 A 
ATOM      4  C   UNL     1      45.128   8.683  11.902  0.00  0.00    +0.000 A 
ATOM      5  C   UNL     1      44.723   7.461  11.364  0.00  0.00    +0.000 A 
ATOM      6  C   UNL     1      45.639   6.422  11.114  0.00  0.00    +0.000 A 
ATOM      7  C   UNL     1      46.978   6.649  11.485  0.00  0.00    +0.000 A 
BRANCH   6   8
ATOM      8  C   UNL     1      45.217   5.153  10.477  0.00  0.00    +0.000 A 
ATOM      9  C   UNL     1      45.595   4.838   9.155  0.00  0.00    +0.000 A 
ATOM     10  C   UNL     1      45.216   3.633   8.547  0.00  0.00    +0.000 A 
ATOM     11  C   UNL     1      44.456   2.707   9.252  0.00  0.00    +0.000 A 
ATOM     12  C   UNL     1      44.059   3.005  10.547  0.00  0.00    +0.000 A 
ATOM     13  F   UNL     1      43.317   2.116  11.224  0.00  0.00    +0.000 F 
ATOM     14  C   UNL     1      44.418   4.209  11.148  0.00  0.00    +0.000 A 
ATOM     15  F   UNL     1      43.965   4.452  12.388  0.00  0.00    +0.000 F 
ENDBRANCH   6   8
ENDBRANCH   1   2
BRANCH   1  16
ATOM     16  C   UNL     1      49.074   8.460  13.801  0.00  0.00    +0.000 C 
BRANCH  16  21
ATOM     17  C   UNL     1      48.084   4.487  16.808  0.00  0.00    +0.000 A 
ATOM     18  C   UNL     1      47.386   4.952  15.699  0.00  0.00    +0.000 A 
ATOM     19  C   UNL     1      47.949   5.961  14.915  0.00  0.00    +0.000 A 
ATOM     20  C   UNL     1      49.191   6.492  15.253  0.00  0.00    +0.000 A 
ATOM     21  N   UNL     1      49.850   7.429  14.473  0.00  0.00    +0.000 N 
ATOM     22  N   UNL     1      49.864   6.063  16.339  0.00  0.00    +0.000 NA
ATOM     23  C   UNL     1      49.301   5.083  17.097  0.00  0.00    +0.000 A 
ATOM     24  H   UNL     1      50.658   7.748  15.004  0.00  0.00    +0.000 HD
BRANCH  17  26
ATOM     25  N   UNL     1      48.303   3.116  18.801  0.00  0.00    +0.000 N 
ATOM     26  C   UNL     1      47.572   3.412  17.684  0.00  0.00    +0.000 C 
ATOM     27  O   UNL     1      46.522   2.834  17.439  0.00  0.00    +0.000 OA
ATOM     28  H   UNL     1      47.889   2.453  19.445  0.00  0.00    +0.000 HD
ATOM     29  H   UNL     1      49.012   3.737  19.167  0.00  0.00    +0.000 HD
ENDBRANCH  17  26
ENDBRANCH  16  21
ENDBRANCH   1  16
TORSDOF 5
ENDMDL
MODEL 7
REMARK VINA RESULT:    -7.656      4.894      8.127
REMARK INTER + INTRA:         -10.692
REMARK INTER:                  -9.818
REMARK INTRA:                  -0.875
REMARK UNBOUND:                -0.798
REMARK  Name = 
REMARK  5 active torsions:
REMARK  status: ('A' for Active; 'I' for Inactive)
REMARK    1  A    between atoms: C_2  and  C_4
REMARK    2  A    between atoms: N_8  and  C_9
REMARK    3  A    between atoms: C_9  and  C_10
REMARK    4  A    between atoms: C_10  and  C_11
REMARK    5  A    between atoms: C_15  and  C_16
REMARK                            x       y       z     vdW  Elec       q    Type
REMARK                         _______ _______ _______ _____ _____    ______ ____
ROOT
ATOM      1  C   UNL     1      48.876   6.954  14.459  0.00  0.00    +0.000 C 
ENDROOT
BRANCH   1   2
ATOM      2  C   UNL     1      47.615   7.220  13.670  0.00  0.00    +0.000 A 
ATOM      3  C   UNL     1      47.049   8.496  13.640  0.00  0.00    +0.000 A 
ATOM      4  C   UNL     1      45.914   8.737  12.869  0.00  0.00    +0.000 A 
ATOM      5  C   UNL     1      45.357   7.710  12.107  0.00  0.00    +0.000 A 
ATOM      6  C   UNL     1      45.923   6.422  12.075  0.00  0.00    +0.000 A 
ATOM      7  C   UNL     1      47.047   6.198  12.893  0.00  0.00    +0.000 A 
BRANCH   6   8
ATOM      8  C   UNL     1      45.372   5.353  11.209  0.00  0.00    +0.000 A 
ATOM      9  C   UNL     1      45.642   5.322   9.825  0.00  0.00    +0.000 A 
ATOM     10  C   UNL     1      45.139   4.307   8.999  0.00  0.00    +0.000 A 
ATOM     11  C   UNL     1      44.361   3.291   9.541  0.00  0.00    +0.000 A 
ATOM     12  C   UNL     1      44.069   3.313  10.896  0.00  0.00    +0.000 A 
ATOM     13  F   UNL     1      43.309   2.338  11.417  0.00  0.00    +0.000 F 
ATOM     14  C   UNL     1      44.551   4.329  11.717  0.00  0.00    +0.000 A 
ATOM     15  F   UNL     1      44.195   4.313  13.012  0.00  0.00    +0.000 F 
ENDBRANCH   6   8
ENDBRANCH   1   2
BRANCH   1  16
ATOM     16  C   UNL     1      48.660   7.248  15.947  0.00  0.00    +0.000 C 
BRANCH  16  21
ATOM     17  C   UNL     1      51.051   3.065  17.557  0.00  0.00    +0.000 A 
ATOM     18  C   UNL     1      51.485   4.385  17.554  0.00  0.00    +0.000 A 
ATOM     19  C   UNL     1      50.581   5.398  17.229  0.00  0.00    +0.000 A 
ATOM     20  C   UNL     1      49.266   5.077  16.904  0.00  0.00    +0.000 A 
ATOM     21  N   UNL     1      48.292   6.033  16.659  0.00  0.00    +0.000 N 
ATOM     22  N   UNL     1      48.842   3.797  16.882  0.00  0.00    +0.000 NA
ATOM     23  C   UNL     1      49.735   2.821  17.198  0.00  0.00    +0.000 A 
ATOM     24  H   UNL     1      47.469   5.543  16.317  0.00  0.00    +0.000 HD
BRANCH  17  26
ATOM     25  N   UNL     1      51.420   0.672  17.760  0.00  0.00    +0.000 N 
ATOM     26  C   UNL     1      51.934   1.932  17.905  0.00  0.00    +0.000 C 
ATOM     27  O   UNL     1      53.087   2.110  18.274  0.00  0.00    +0.000 OA
ATOM     28  H   UNL     1      52.067  -0.094  17.902  0.00  0.00    +0.000 HD
ATOM     29  H   UNL     1      50.588   0.484  17.218  0.00  0.00    +0.000 HD
ENDBRANCH  17  26
ENDBRANCH  16  21
ENDBRANCH   1  16
TORSDOF 5
ENDMDL
MODEL 8
REMARK VINA RESULT:    -7.107      4.875      8.228
REMARK INTER + INTRA:          -9.982
REMARK INTER:                  -9.193
REMARK INTRA:                  -0.789
REMARK UNBOUND:                -0.798
REMARK  Name = 
REMARK  5 active torsions:
REMARK  status: ('A' for Active; 'I' for Inactive)
REMARK    1  A    between atoms: C_2  and  C_4
REMARK    2  A    between atoms: N_8  and  C_9
REMARK    3  A    between atoms: C_9  and  C_10
REMARK    4  A    between atoms: C_10  and  C_11
REMARK    5  A    between atoms: C_15  and  C_16
REMARK                            x       y       z     vdW  Elec       q    Type
REMARK                         _______ _______ _______ _____ _____    ______ ____
ROOT
ATOM      1  C   UNL     1      48.562   7.438  13.777  0.00  0.00    +0.000 C 
ENDROOT
BRANCH   1   2
ATOM      2  C   UNL     1      47.235   7.448  13.054  0.00  0.00    +0.000 A 
ATOM      3  C   UNL     1      46.410   8.575  13.095  0.00  0.00    +0.000 A 
ATOM      4  C   UNL     1      45.212   8.586  12.385  0.00  0.00    +0.000 A 
ATOM      5  C   UNL     1      44.849   7.484  11.611  0.00  0.00    +0.000 A 
ATOM      6  C   UNL     1      45.674   6.349  11.508  0.00  0.00    +0.000 A 
ATOM      7  C   UNL     1      46.859   6.349  12.267  0.00  0.00    +0.000 A 
BRANCH   6   8
ATOM      8  C   UNL     1      45.319   5.210  10.628  0.00  0.00    +0.000 A 
ATOM      9  C   UNL     1      45.717   5.179   9.275  0.00  0.00    +0.000 A 
ATOM     10  C   UNL     1      45.402   4.101   8.438  0.00  0.00    +0.000 A 
ATOM     11  C   UNL     1      44.688   3.018   8.938  0.00  0.00    +0.000 A 
ATOM     12  C   UNL     1      44.271   3.036  10.261  0.00  0.00    +0.000 A 
ATOM     13  F   UNL     1      43.573   1.996  10.741  0.00  0.00    +0.000 F 
ATOM     14  C   UNL     1      44.567   4.114  11.091  0.00  0.00    +0.000 A 
ATOM     15  F   UNL     1      44.097   4.087  12.348  0.00  0.00    +0.000 F 
ENDBRANCH   6   8
ENDBRANCH   1   2
BRANCH   1  16
ATOM     16  C   UNL     1      48.483   8.252  15.073  0.00  0.00    +0.000 C 
BRANCH  16  21
ATOM     17  C   UNL     1      50.713   4.377  17.488  0.00  0.00    +0.000 A 
ATOM     18  C   UNL     1      51.276   5.539  16.972  0.00  0.00    +0.000 A 
ATOM     19  C   UNL     1      50.436   6.554  16.507  0.00  0.00    +0.000 A 
ATOM     20  C   UNL     1      49.055   6.389  16.557  0.00  0.00    +0.000 A 
ATOM     21  N   UNL     1      48.161   7.387  16.199  0.00  0.00    +0.000 N 
ATOM     22  N   UNL     1      48.500   5.257  17.035  0.00  0.00    +0.000 NA
ATOM     23  C   UNL     1      49.331   4.275  17.480  0.00  0.00    +0.000 A 
ATOM     24  H   UNL     1      47.232   6.972  16.196  0.00  0.00    +0.000 HD
BRANCH  17  26
ATOM     25  N   UNL     1      52.204   3.479  19.182  0.00  0.00    +0.000 N 
ATOM     26  C   UNL     1      51.523   3.261  18.016  0.00  0.00    +0.000 C 
ATOM     27  O   UNL     1      51.558   2.174  17.454  0.00  0.00    +0.000 OA
ATOM     28  H   UNL     1      52.670   2.676  19.587  0.00  0.00    +0.000 HD
ATOM     29  H   UNL     1      51.991   4.252  19.798  0.00  0.00    +0.000 HD
ENDBRANCH  17  26
ENDBRANCH  16  21
ENDBRANCH   1  16
TORSDOF 5
ENDMDL
MODEL 9
REMARK VINA RESULT:    -7.100      5.029      8.775
REMARK INTER + INTRA:          -9.973
REMARK INTER:                  -9.503
REMARK INTRA:                  -0.470
REMARK UNBOUND:                -0.798
REMARK  Name = 
REMARK  5 active torsions:
REMARK  status: ('A' for Active; 'I' for Inactive)
REMARK    1  A    between atoms: C_2  and  C_4
REMARK    2  A    between atoms: N_8  and  C_9
REMARK    3  A    between atoms: C_9  and  C_10
REMARK    4  A    between atoms: C_10  and  C_11
REMARK    5  A    between atoms: C_15  and  C_16
REMARK                            x       y       z     vdW  Elec       q    Type
REMARK                         _______ _______ _______ _____ _____    ______ ____
ROOT
ATOM      1  C   UNL     1      45.466   3.787  13.187  0.00  0.00    +0.000 C 
ENDROOT
BRANCH   1   2
ATOM      2  C   UNL     1      44.975   3.921  11.764  0.00  0.00    +0.000 A 
ATOM      3  C   UNL     1      43.971   4.837  11.439  0.00  0.00    +0.000 A 
ATOM      4  C   UNL     1      43.564   4.983  10.116  0.00  0.00    +0.000 A 
ATOM      5  C   UNL     1      44.175   4.234   9.110  0.00  0.00    +0.000 A 
ATOM      6  C   UNL     1      45.220   3.335   9.390  0.00  0.00    +0.000 A 
ATOM      7  C   UNL     1      45.585   3.180  10.741  0.00  0.00    +0.000 A 
BRANCH   6   8
ATOM      8  C   UNL     1      45.916   2.594   8.311  0.00  0.00    +0.000 A 
ATOM      9  C   UNL     1      46.123   1.202   8.395  0.00  0.00    +0.000 A 
ATOM     10  C   UNL     1      46.765   0.489   7.374  0.00  0.00    +0.000 A 
ATOM     11  C   UNL     1      47.209   1.152   6.236  0.00  0.00    +0.000 A 
ATOM     12  C   UNL     1      47.033   2.524   6.141  0.00  0.00    +0.000 A 
ATOM     13  F   UNL     1      47.470   3.166   5.048  0.00  0.00    +0.000 F 
ATOM     14  C   UNL     1      46.411   3.239   7.162  0.00  0.00    +0.000 A 
ATOM     15  F   UNL     1      46.310   4.571   7.025  0.00  0.00    +0.000 F 
ENDBRANCH   6   8
ENDBRANCH   1   2
BRANCH   1  16
ATOM     16  C   UNL     1      45.739   5.164  13.802  0.00  0.00    +0.000 C 
BRANCH  16  21
ATOM     17  C   UNL     1      48.690   4.493  17.883  0.00  0.00    +0.000 A 
ATOM     18  C   UNL     1      47.620   3.730  17.431  0.00  0.00    +0.000 A 
ATOM     19  C   UNL     1      47.069   4.005  16.177  0.00  0.00    +0.000 A 
ATOM     20  C   UNL     1      47.588   5.039  15.403  0.00  0.00    +0.000 A 
ATOM     21  N   UNL     1      47.153   5.311  14.114  0.00  0.00    +0.000 N 
ATOM     22  N   UNL     1      48.611   5.799  15.842  0.00  0.00    +0.000 NA
ATOM     23  C   UNL     1      49.135   5.522  17.067  0.00  0.00    +0.000 A 
ATOM     24  H   UNL     1      47.589   6.184  13.827  0.00  0.00    +0.000 HD
BRANCH  17  26
ATOM     25  N   UNL     1      48.563   3.784  20.202  0.00  0.00    +0.000 N 
ATOM     26  C   UNL     1      49.345   4.262  19.187  0.00  0.00    +0.000 C 
ATOM     27  O   UNL     1      50.543   4.456  19.344  0.00  0.00    +0.000 OA
ATOM     28  H   UNL     1      49.044   3.532  21.058  0.00  0.00    +0.000 HD
ATOM     29  H   UNL     1      47.655   3.369  20.040  0.00  0.00    +0.000 HD
ENDBRANCH  17  26
ENDBRANCH  16  21
ENDBRANCH   1  16
TORSDOF 5
ENDMDL
