MODEL 1
REMARK VINA RESULT:    -8.487      0.000      0.000
REMARK INTER + INTRA:         -11.754
REMARK INTER:                 -10.968
REMARK INTRA:                  -0.786
REMARK UNBOUND:                -0.786
REMARK  Name = 
REMARK  5 active torsions:
REMARK  status: ('A' for Active; 'I' for Inactive)
REMARK    1  A    between atoms: C_2  and  C_4
REMARK    2  A    between atoms: C_7  and  N_8
REMARK    3  A    between atoms: N_8  and  C_9
REMARK    4  A    between atoms: C_9  and  C_10
REMARK    5  A    between atoms: C_12  and  N_13
REMARK                            x       y       z     vdW  Elec       q    Type
REMARK                         _______ _______ _______ _____ _____    ______ ____
ROOT
ATOM      1  N   UNL     1      43.733   4.758   9.995  0.00  0.00    +0.000 N 
ATOM      2  H   UNL     1      42.911   5.070   9.487  0.00  0.00    +0.000 HD
ENDROOT
BRANCH   1   6
ATOM      3  C   UNL     1      46.348   2.307   7.773  0.00  0.00    +0.000 A 
ATOM      4  C   UNL     1      45.450   1.726   8.672  0.00  0.00    +0.000 A 
ATOM      5  C   UNL     1      44.588   2.530   9.411  0.00  0.00    +0.000 A 
ATOM      6  C   UNL     1      44.565   3.920   9.254  0.00  0.00    +0.000 A 
ATOM      7  C   UNL     1      45.501   4.494   8.378  0.00  0.00    +0.000 A 
ATOM      8  C   UNL     1      46.392   3.697   7.651  0.00  0.00    +0.000 A 
BRANCH   3  10
ATOM      9  N   UNL     1      48.409   2.086   6.508  0.00  0.00    +0.000 N 
ATOM     10  C   UNL     1      47.288   1.466   6.994  0.00  0.00    +0.000 C 
ATOM     11  O   UNL     1      47.096   0.275   6.820  0.00  0.00    +0.000 OA
ATOM     12  H   UNL     1      49.087   1.496   6.047  0.00  0.00    +0.000 HD
ATOM     13  H   UNL     1      48.719   2.989   6.840  0.00  0.00    +0.000 HD
ENDBRANCH   3  10
ENDBRANCH   1   6
BRANCH   1  14
ATOM     14  C   UNL     1      43.517   4.541  11.431  0.00  0.00    +0.000 C 
BRANCH  14  15
ATOM     15  C   UNL     1      44.794   4.737  12.235  0.00  0.00    +0.000 A 
ATOM     16  C   UNL     1      45.372   6.004  12.331  0.00  0.00    +0.000 A 
ATOM     17  C   UNL     1      46.574   6.194  13.017  0.00  0.00    +0.000 A 
ATOM     18  C   UNL     1      47.125   5.061  13.615  0.00  0.00    +0.000 A 
ATOM     19  C   UNL     1      46.477   3.840  13.517  0.00  0.00    +0.000 A 
ATOM     20  N   UNL     1      45.324   3.648  12.843  0.00  0.00    +0.000 NA
BRANCH  17  21
ATOM     21  N   UNL     1      47.181   7.433  13.086  0.00  0.00    +0.000 N 
ATOM     22  C   UNL     1      48.637   7.589  12.960  0.00  0.00    +0.000 C 
ATOM     23  C   UNL     1      48.998   8.456  11.747  0.00  0.00    +0.000 C 
ATOM     24  S   UNL     1      48.284  10.133  11.847  0.00  0.00    +0.000 S 
ATOM     25  C   UNL     1      46.547   9.639  12.125  0.00  0.00    +0.000 C 
ATOM     26  C   UNL     1      46.404   8.665  13.297  0.00  0.00    +0.000 C 
ENDBRANCH  17  21
ENDBRANCH  14  15
ENDBRANCH   1  14
TORSDOF 5
ENDMDL
MODEL 2
REMARK VINA RESULT:    -7.774      2.072      2.952
REMARK INTER + INTRA:         -10.832
REMARK INTER:                 -10.368
REMARK INTRA:                  -0.464
REMARK UNBOUND:                -0.786
REMARK  Name = 
REMARK  5 active torsions:
REMARK  status: ('A' for Active; 'I' for Inactive)
REMARK    1  A    between atoms: C_2  and  C_4
REMARK    2  A    between atoms: C_7  and  N_8
REMARK    3  A    between atoms: N_8  and  C_9
REMARK    4  A    between atoms: C_9  and  C_10
REMARK    5  A    between atoms: C_12  and  N_13
REMARK                            x       y       z     vdW  Elec       q    Type
REMARK                         _______ _______ _______ _____ _____    ______ ____
ROOT
ATOM      1  N   UNL     1      43.886   3.805  10.706  0.00  0.00    +0.000 N 
ATOM      2  H   UNL     1      44.123   3.360  11.587  0.00  0.00    +0.000 HD
ENDROOT
BRANCH   1   6
ATOM      3  C   UNL     1      46.401   2.701   7.506  0.00  0.00    +0.000 A 
ATOM      4  C   UNL     1      45.906   1.720   8.368  0.00  0.00    +0.000 A 
ATOM      5  C   UNL     1      45.079   2.079   9.429  0.00  0.00    +0.000 A 
ATOM      6  C   UNL     1      44.691   3.406   9.641  0.00  0.00    +0.000 A 
ATOM      7  C   UNL     1      45.229   4.387   8.791  0.00  0.00    +0.000 A 
ATOM      8  C   UNL     1      46.084   4.040   7.739  0.00  0.00    +0.000 A 
BRANCH   3  10
ATOM      9  N   UNL     1      47.276   3.157   5.287  0.00  0.00    +0.000 N 
ATOM     10  C   UNL     1      47.300   2.338   6.384  0.00  0.00    +0.000 C 
ATOM     11  O   UNL     1      48.050   1.379   6.444  0.00  0.00    +0.000 OA
ATOM     12  H   UNL     1      47.946   2.956   4.558  0.00  0.00    +0.000 HD
ATOM     13  H   UNL     1      46.864   4.081   5.306  0.00  0.00    +0.000 HD
ENDBRANCH   3  10
ENDBRANCH   1   6
BRANCH   1  14
ATOM     14  C   UNL     1      43.420   5.192  10.830  0.00  0.00    +0.000 C 
BRANCH  14  15
ATOM     15  C   UNL     1      44.431   6.069  11.554  0.00  0.00    +0.000 A 
ATOM     16  C   UNL     1      45.419   5.486  12.350  0.00  0.00    +0.000 A 
ATOM     17  C   UNL     1      46.322   6.275  13.067  0.00  0.00    +0.000 A 
ATOM     18  C   UNL     1      46.193   7.655  12.908  0.00  0.00    +0.000 A 
ATOM     19  C   UNL     1      45.216   8.167  12.068  0.00  0.00    +0.000 A 
ATOM     20  N   UNL     1      44.333   7.410  11.385  0.00  0.00    +0.000 NA
BRANCH  17  21
ATOM     21  N   UNL     1      47.278   5.715  13.892  0.00  0.00    +0.000 N 
ATOM     22  C   UNL     1      48.507   6.436  14.253  0.00  0.00    +0.000 C 
ATOM     23  C   UNL     1      48.595   6.658  15.768  0.00  0.00    +0.000 C 
ATOM     24  S   UNL     1      48.595   5.093  16.706  0.00  0.00    +0.000 S 
ATOM     25  C   UNL     1      47.079   4.376  15.980  0.00  0.00    +0.000 C 
ATOM     26  C   UNL     1      47.123   4.362  14.450  0.00  0.00    +0.000 C 
ENDBRANCH  17  21
ENDBRANCH  14  15
ENDBRANCH   1  14
TORSDOF 5
ENDMDL
MODEL 3
REMARK VINA RESULT:    -6.649      4.439      7.869
REMARK INTER + INTRA:          -9.378
REMARK INTER:                  -8.813
REMARK INTRA:                  -0.566
REMARK UNBOUND:                -0.786
REMARK  Name = 
REMARK  5 active torsions:
REMARK  status: ('A' for Active; 'I' for Inactive)
REMARK    1  A    between atoms: C_2  and  C_4
REMARK    2  A    between atoms: C_7  and  N_8
REMARK    3  A    between atoms: N_8  and  C_9
REMARK    4  A    between atoms: C_9  and  C_10
REMARK    5  A    between atoms: C_12  and  N_13
REMARK                            x       y       z     vdW  Elec       q    Type
REMARK                         _______ _______ _______ _____ _____    ______ ____
ROOT
ATOM      1  N   UNL     1      47.192   5.277  13.622  0.00  0.00    +0.000 N 
ATOM      2  H   UNL     1      47.629   4.662  12.943  0.00  0.00    +0.000 HD
ENDROOT
BRANCH   1   6
ATOM      3  C   UNL     1      48.281   4.592  17.639  0.00  0.00    +0.000 A 
ATOM      4  C   UNL     1      47.505   3.649  16.961  0.00  0.00    +0.000 A 
ATOM      5  C   UNL     1      47.139   3.872  15.636  0.00  0.00    +0.000 A 
ATOM      6  C   UNL     1      47.560   5.009  14.940  0.00  0.00    +0.000 A 
ATOM      7  C   UNL     1      48.305   5.969  15.645  0.00  0.00    +0.000 A 
ATOM      8  C   UNL     1      48.655   5.768  16.985  0.00  0.00    +0.000 A 
BRANCH   3  10
ATOM      9  N   UNL     1      48.360   3.159  19.596  0.00  0.00    +0.000 N 
ATOM     10  C   UNL     1      48.661   4.380  19.056  0.00  0.00    +0.000 C 
ATOM     11  O   UNL     1      49.243   5.234  19.702  0.00  0.00    +0.000 OA
ATOM     12  H   UNL     1      48.690   2.986  20.536  0.00  0.00    +0.000 HD
ATOM     13  H   UNL     1      48.113   2.358  19.030  0.00  0.00    +0.000 HD
ENDBRANCH   3  10
ENDBRANCH   1   6
BRANCH   1  14
ATOM     14  C   UNL     1      45.824   5.688  13.281  0.00  0.00    +0.000 C 
BRANCH  14  15
ATOM     15  C   UNL     1      45.064   4.586  12.558  0.00  0.00    +0.000 A 
ATOM     16  C   UNL     1      45.368   4.283  11.229  0.00  0.00    +0.000 A 
ATOM     17  C   UNL     1      44.644   3.314  10.530  0.00  0.00    +0.000 A 
ATOM     18  C   UNL     1      43.642   2.661  11.246  0.00  0.00    +0.000 A 
ATOM     19  C   UNL     1      43.420   2.980  12.576  0.00  0.00    +0.000 A 
ATOM     20  N   UNL     1      44.106   3.925  13.252  0.00  0.00    +0.000 NA
BRANCH  17  21
ATOM     21  N   UNL     1      44.905   3.033   9.203  0.00  0.00    +0.000 N 
ATOM     22  C   UNL     1      45.097   4.100   8.209  0.00  0.00    +0.000 C 
ATOM     23  C   UNL     1      46.497   4.032   7.587  0.00  0.00    +0.000 C 
ATOM     24  S   UNL     1      46.812   2.446   6.741  0.00  0.00    +0.000 S 
ATOM     25  C   UNL     1      46.382   1.341   8.131  0.00  0.00    +0.000 C 
ATOM     26  C   UNL     1      44.998   1.650   8.708  0.00  0.00    +0.000 C 
ENDBRANCH  17  21
ENDBRANCH  14  15
ENDBRANCH   1  14
TORSDOF 5
ENDMDL
MODEL 4
REMARK VINA RESULT:    -6.126      3.454      6.934
REMARK INTER + INTRA:          -8.702
REMARK INTER:                  -8.062
REMARK INTRA:                  -0.641
REMARK UNBOUND:                -0.786
REMARK  Name = 
REMARK  5 active torsions:
REMARK  status: ('A' for Active; 'I' for Inactive)
REMARK    1  A    between atoms: C_2  and  C_4
REMARK    2  A    between atoms: C_7  and  N_8
REMARK    3  A    between atoms: N_8  and  C_9
REMARK    4  A    between atoms: C_9  and  C_10
REMARK    5  A    between atoms: C_12  and  N_13
REMARK                            x       y       z     vdW  Elec       q    Type
REMARK                         _______ _______ _______ _____ _____    ______ ____
ROOT
ATOM      1  N   UNL     1      45.608   7.192  12.051  0.00  0.00    +0.000 N 
ATOM      2  H   UNL     1      45.158   7.032  11.155  0.00  0.00    +0.000 HD
ENDROOT
BRANCH   1   6
ATOM      3  C   UNL     1      49.312   9.199  11.855  0.00  0.00    +0.000 A 
ATOM      4  C   UNL     1      49.263   7.815  11.669  0.00  0.00    +0.000 A 
ATOM      5  C   UNL     1      48.044   7.147  11.737  0.00  0.00    +0.000 A 
ATOM      6  C   UNL     1      46.843   7.831  11.952  0.00  0.00    +0.000 A 
ATOM      7  C   UNL     1      46.911   9.216  12.179  0.00  0.00    +0.000 A 
ATOM      8  C   UNL     1      48.135   9.893  12.141  0.00  0.00    +0.000 A 
BRANCH   3  10
ATOM      9  N   UNL     1      50.935  10.663  12.911  0.00  0.00    +0.000 N 
ATOM     10  C   UNL     1      50.605   9.923  11.807  0.00  0.00    +0.000 C 
ATOM     11  O   UNL     1      51.356   9.840  10.851  0.00  0.00    +0.000 OA
ATOM     12  H   UNL     1      51.851  11.091  12.911  0.00  0.00    +0.000 HD
ATOM     13  H   UNL     1      50.467  10.554  13.801  0.00  0.00    +0.000 HD
ENDBRANCH   3  10
ENDBRANCH   1   6
BRANCH   1  14
ATOM     14  C   UNL     1      45.372   6.140  13.048  0.00  0.00    +0.000 C 
BRANCH  14  15
ATOM     15  C   UNL     1      44.804   4.877  12.418  0.00  0.00    +0.000 A 
ATOM     16  C   UNL     1      45.133   4.543  11.103  0.00  0.00    +0.000 A 
ATOM     17  C   UNL     1      44.578   3.418  10.488  0.00  0.00    +0.000 A 
ATOM     18  C   UNL     1      43.720   2.649  11.273  0.00  0.00    +0.000 A 
ATOM     19  C   UNL     1      43.469   3.014  12.587  0.00  0.00    +0.000 A 
ATOM     20  N   UNL     1      43.990   4.107  13.181  0.00  0.00    +0.000 NA
BRANCH  17  21
ATOM     21  N   UNL     1      44.860   3.098   9.174  0.00  0.00    +0.000 N 
ATOM     22  C   UNL     1      45.064   4.135   8.152  0.00  0.00    +0.000 C 
ATOM     23  C   UNL     1      46.474   4.054   7.554  0.00  0.00    +0.000 C 
ATOM     24  S   UNL     1      46.807   2.444   6.761  0.00  0.00    +0.000 S 
ATOM     25  C   UNL     1      46.360   1.380   8.177  0.00  0.00    +0.000 C 
ATOM     26  C   UNL     1      44.965   1.701   8.723  0.00  0.00    +0.000 C 
ENDBRANCH  17  21
ENDBRANCH  14  15
ENDBRANCH   1  14
TORSDOF 5
ENDMDL
MODEL 5
REMARK VINA RESULT:    -6.126      5.426      8.216
REMARK INTER + INTRA:          -8.702
REMARK INTER:                  -8.168
REMARK INTRA:                  -0.533
REMARK UNBOUND:                -0.786
REMARK  Name = 
REMARK  5 active torsions:
REMARK  status: ('A' for Active; 'I' for Inactive)
REMARK    1  A    between atoms: C_2  and  C_4
REMARK    2  A    between atoms: C_7  and  N_8
REMARK    3  A    between atoms: N_8  and  C_9
REMARK    4  A    between atoms: C_9  and  C_10
REMARK    5  A    between atoms: C_12  and  N_13
REMARK                            x       y       z     vdW  Elec       q    Type
REMARK                         _______ _______ _______ _____ _____    ______ ____
ROOT
ATOM      1  N   UNL     1      48.627   4.542  17.287  0.00  0.00    +0.000 N 
ATOM      2  H   UNL     1      48.780   5.545  17.286  0.00  0.00    +0.000 HD
ENDROOT
BRANCH   1   6
ATOM      3  C   UNL     1      52.116   2.219  17.748  0.00  0.00    +0.000 A 
ATOM      4  C   UNL     1      52.172   3.600  17.946  0.00  0.00    +0.000 A 
ATOM      5  C   UNL     1      51.025   4.373  17.791  0.00  0.00    +0.000 A 
ATOM      6  C   UNL     1      49.790   3.797  17.474  0.00  0.00    +0.000 A 
ATOM      7  C   UNL     1      49.756   2.413  17.237  0.00  0.00    +0.000 A 
ATOM      8  C   UNL     1      50.910   1.631  17.362  0.00  0.00    +0.000 A 
BRANCH   3  10
ATOM      9  N   UNL     1      53.922   1.359  19.124  0.00  0.00    +0.000 N 
ATOM     10  C   UNL     1      53.334   1.385  17.888  0.00  0.00    +0.000 C 
ATOM     11  O   UNL     1      53.774   0.726  16.962  0.00  0.00    +0.000 OA
ATOM     12  H   UNL     1      54.703   0.729  19.240  0.00  0.00    +0.000 HD
ATOM     13  H   UNL     1      53.451   1.683  19.959  0.00  0.00    +0.000 HD
ENDBRANCH   3  10
ENDBRANCH   1   6
BRANCH   1  14
ATOM     14  C   UNL     1      47.570   4.086  16.375  0.00  0.00    +0.000 C 
BRANCH  14  15
ATOM     15  C   UNL     1      47.503   4.934  15.113  0.00  0.00    +0.000 A 
ATOM     16  C   UNL     1      46.510   4.695  14.162  0.00  0.00    +0.000 A 
ATOM     17  C   UNL     1      46.465   5.424  12.971  0.00  0.00    +0.000 A 
ATOM     18  C   UNL     1      47.439   6.410  12.818  0.00  0.00    +0.000 A 
ATOM     19  C   UNL     1      48.372   6.624  13.821  0.00  0.00    +0.000 A 
ATOM     20  N   UNL     1      48.428   5.913  14.966  0.00  0.00    +0.000 NA
BRANCH  17  21
ATOM     21  N   UNL     1      45.514   5.171  12.002  0.00  0.00    +0.000 N 
ATOM     22  C   UNL     1      45.367   6.033  10.819  0.00  0.00    +0.000 C 
ATOM     23  C   UNL     1      45.621   5.248   9.527  0.00  0.00    +0.000 C 
ATOM     24  S   UNL     1      44.470   3.848   9.318  0.00  0.00    +0.000 S 
ATOM     25  C   UNL     1      44.763   3.052  10.936  0.00  0.00    +0.000 C 
ATOM     26  C   UNL     1      44.591   4.030  12.101  0.00  0.00    +0.000 C 
ENDBRANCH  17  21
ENDBRANCH  14  15
ENDBRANCH   1  14
TORSDOF 5
ENDMDL
MODEL 6
REMARK VINA RESULT:    -5.852      5.044      7.980
REMARK INTER + INTRA:          -8.349
REMARK INTER:                  -7.664
REMARK INTRA:                  -0.684
REMARK UNBOUND:                -0.786
REMARK  Name = 
REMARK  5 active torsions:
REMARK  status: ('A' for Active; 'I' for Inactive)
REMARK    1  A    between atoms: C_2  and  C_4
REMARK    2  A    between atoms: C_7  and  N_8
REMARK    3  A    between atoms: N_8  and  C_9
REMARK    4  A    between atoms: C_9  and  C_10
REMARK    5  A    between atoms: C_12  and  N_13
REMARK                            x       y       z     vdW  Elec       q    Type
REMARK                         _______ _______ _______ _____ _____    ______ ____
ROOT
ATOM      1  N   UNL     1      48.757   5.698  17.251  0.00  0.00    +0.000 N 
ATOM      2  H   UNL     1      48.120   5.788  18.037  0.00  0.00    +0.000 HD
ENDROOT
BRANCH   1   6
ATOM      3  C   UNL     1      51.295   2.344  17.560  0.00  0.00    +0.000 A 
ATOM      4  C   UNL     1      49.935   2.162  17.301  0.00  0.00    +0.000 A 
ATOM      5  C   UNL     1      49.092   3.265  17.202  0.00  0.00    +0.000 A 
ATOM      6  C   UNL     1      49.575   4.572  17.320  0.00  0.00    +0.000 A 
ATOM      7  C   UNL     1      50.937   4.740  17.621  0.00  0.00    +0.000 A 
ATOM      8  C   UNL     1      51.789   3.637  17.750  0.00  0.00    +0.000 A 
BRANCH   3  10
ATOM      9  N   UNL     1      51.658   0.030  18.197  0.00  0.00    +0.000 N 
ATOM     10  C   UNL     1      52.203   1.180  17.690  0.00  0.00    +0.000 C 
ATOM     11  O   UNL     1      53.368   1.227  17.333  0.00  0.00    +0.000 OA
ATOM     12  H   UNL     1      52.255  -0.785  18.210  0.00  0.00    +0.000 HD
ATOM     13  H   UNL     1      50.660  -0.117  18.263  0.00  0.00    +0.000 HD
ENDBRANCH   3  10
ENDBRANCH   1   6
BRANCH   1  14
ATOM     14  C   UNL     1      49.258   6.973  16.724  0.00  0.00    +0.000 C 
BRANCH  14  15
ATOM     15  C   UNL     1      49.089   7.071  15.215  0.00  0.00    +0.000 A 
ATOM     16  C   UNL     1      48.027   6.418  14.587  0.00  0.00    +0.000 A 
ATOM     17  C   UNL     1      47.887   6.449  13.197  0.00  0.00    +0.000 A 
ATOM     18  C   UNL     1      48.841   7.189  12.500  0.00  0.00    +0.000 A 
ATOM     19  C   UNL     1      49.847   7.848  13.190  0.00  0.00    +0.000 A 
ATOM     20  N   UNL     1      49.995   7.810  14.529  0.00  0.00    +0.000 NA
BRANCH  17  21
ATOM     21  N   UNL     1      46.865   5.774  12.557  0.00  0.00    +0.000 N 
ATOM     22  C   UNL     1      46.261   4.563  13.131  0.00  0.00    +0.000 C 
ATOM     23  C   UNL     1      44.766   4.768  13.409  0.00  0.00    +0.000 C 
ATOM     24  S   UNL     1      43.823   5.179  11.902  0.00  0.00    +0.000 S 
ATOM     25  C   UNL     1      44.846   6.589  11.353  0.00  0.00    +0.000 C 
ATOM     26  C   UNL     1      46.331   6.225  11.263  0.00  0.00    +0.000 C 
ENDBRANCH  17  21
ENDBRANCH  14  15
ENDBRANCH   1  14
TORSDOF 5
ENDMDL
MODEL 7
REMARK VINA RESULT:    -5.824      4.512      5.755
REMARK INTER + INTRA:          -8.311
REMARK INTER:                  -7.857
REMARK INTRA:                  -0.454
REMARK UNBOUND:                -0.786
REMARK  Name = 
REMARK  5 active torsions:
REMARK  status: ('A' for Active; 'I' for Inactive)
REMARK    1  A    between atoms: C_2  and  C_4
REMARK    2  A    between atoms: C_7  and  N_8
REMARK    3  A    between atoms: N_8  and  C_9
REMARK    4  A    between atoms: C_9  and  C_10
REMARK    5  A    between atoms: C_12  and  N_13
REMARK                            x       y       z     vdW  Elec       q    Type
REMARK                         _______ _______ _______ _____ _____    ______ ____
ROOT
ATOM      1  N   UNL     1      46.041   5.073  14.174  0.00  0.00    +0.000 N 
ATOM      2  H   UNL     1      45.546   4.372  14.715  0.00  0.00    +0.000 HD
ENDROOT
BRANCH   1   6
ATOM      3  C   UNL     1      45.449   4.587  10.027  0.00  0.00    +0.000 A 
ATOM      4  C   UNL     1      45.901   5.812  10.523  0.00  0.00    +0.000 A 
ATOM      5  C   UNL     1      46.094   5.980  11.891  0.00  0.00    +0.000 A 
ATOM      6  C   UNL     1      45.882   4.935  12.796  0.00  0.00    +0.000 A 
ATOM      7  C   UNL     1      45.389   3.721  12.288  0.00  0.00    +0.000 A 
ATOM      8  C   UNL     1      45.164   3.551  10.918  0.00  0.00    +0.000 A 
BRANCH   3  10
ATOM      9  N   UNL     1      43.948   4.052   8.195  0.00  0.00    +0.000 N 
ATOM     10  C   UNL     1      45.217   4.399   8.575  0.00  0.00    +0.000 C 
ATOM     11  O   UNL     1      46.100   4.575   7.752  0.00  0.00    +0.000 OA
ATOM     12  H   UNL     1      43.771   4.003   7.201  0.00  0.00    +0.000 HD
ATOM     13  H   UNL     1      43.151   4.144   8.811  0.00  0.00    +0.000 HD
ENDBRANCH   3  10
ENDBRANCH   1   6
BRANCH   1  14
ATOM     14  C   UNL     1      47.321   5.498  14.754  0.00  0.00    +0.000 C 
BRANCH  14  15
ATOM     15  C   UNL     1      47.690   4.676  15.980  0.00  0.00    +0.000 A 
ATOM     16  C   UNL     1      48.887   4.925  16.655  0.00  0.00    +0.000 A 
ATOM     17  C   UNL     1      49.270   4.145  17.749  0.00  0.00    +0.000 A 
ATOM     18  C   UNL     1      48.377   3.145  18.133  0.00  0.00    +0.000 A 
ATOM     19  C   UNL     1      47.186   2.979  17.445  0.00  0.00    +0.000 A 
ATOM     20  N   UNL     1      46.818   3.719  16.379  0.00  0.00    +0.000 NA
BRANCH  17  21
ATOM     21  N   UNL     1      50.471   4.352  18.401  0.00  0.00    +0.000 N 
ATOM     22  C   UNL     1      51.749   3.909  17.826  0.00  0.00    +0.000 C 
ATOM     23  C   UNL     1      52.687   5.097  17.578  0.00  0.00    +0.000 C 
ATOM     24  S   UNL     1      53.074   6.015  19.107  0.00  0.00    +0.000 S 
ATOM     25  C   UNL     1      51.356   6.312  19.652  0.00  0.00    +0.000 C 
ATOM     26  C   UNL     1      50.536   5.021  19.710  0.00  0.00    +0.000 C 
ENDBRANCH  17  21
ENDBRANCH  14  15
ENDBRANCH   1  14
TORSDOF 5
ENDMDL
MODEL 8
REMARK VINA RESULT:    -5.795      4.219      6.109
REMARK INTER + INTRA:          -8.274
REMARK INTER:                  -7.661
REMARK INTRA:                  -0.613
REMARK UNBOUND:                -0.786
REMARK  Name = 
REMARK  5 active torsions:
REMARK  status: ('A' for Active; 'I' for Inactive)
REMARK    1  A    between atoms: C_2  and  C_4
REMARK    2  A    between atoms: C_7  and  N_8
REMARK    3  A    between atoms: N_8  and  C_9
REMARK    4  A    between atoms: C_9  and  C_10
REMARK    5  A    between atoms: C_12  and  N_13
REMARK                            x       y       z     vdW  Elec       q    Type
REMARK                         _______ _______ _______ _____ _____    ______ ____
ROOT
ATOM      1  N   UNL     1      46.991   7.260  13.624  0.00  0.00    +0.000 N 
ATOM      2  H   UNL     1      46.749   7.294  14.610  0.00  0.00    +0.000 HD
ENDROOT
BRANCH   1   6
ATOM      3  C   UNL     1      44.941   4.178  11.604  0.00  0.00    +0.000 A 
ATOM      4  C   UNL     1      45.257   5.359  10.928  0.00  0.00    +0.000 A 
ATOM      5  C   UNL     1      45.930   6.381  11.591  0.00  0.00    +0.000 A 
ATOM      6  C   UNL     1      46.338   6.248  12.922  0.00  0.00    +0.000 A 
ATOM      7  C   UNL     1      45.978   5.073  13.602  0.00  0.00    +0.000 A 
ATOM      8  C   UNL     1      45.277   4.051  12.953  0.00  0.00    +0.000 A 
BRANCH   3  10
ATOM      9  N   UNL     1      44.871   2.434   9.916  0.00  0.00    +0.000 N 
ATOM     10  C   UNL     1      44.205   3.088  10.918  0.00  0.00    +0.000 C 
ATOM     11  O   UNL     1      43.078   2.764  11.248  0.00  0.00    +0.000 OA
ATOM     12  H   UNL     1      44.400   1.640   9.504  0.00  0.00    +0.000 HD
ATOM     13  H   UNL     1      45.872   2.505   9.790  0.00  0.00    +0.000 HD
ENDBRANCH   3  10
ENDBRANCH   1   6
BRANCH   1  14
ATOM     14  C   UNL     1      48.384   7.617  13.327  0.00  0.00    +0.000 C 
BRANCH  14  15
ATOM     15  C   UNL     1      49.313   7.300  14.490  0.00  0.00    +0.000 A 
ATOM     16  C   UNL     1      48.875   6.480  15.531  0.00  0.00    +0.000 A 
ATOM     17  C   UNL     1      49.693   6.222  16.634  0.00  0.00    +0.000 A 
ATOM     18  C   UNL     1      50.961   6.801  16.607  0.00  0.00    +0.000 A 
ATOM     19  C   UNL     1      51.348   7.572  15.522  0.00  0.00    +0.000 A 
ATOM     20  N   UNL     1      50.558   7.835  14.462  0.00  0.00    +0.000 NA
BRANCH  17  21
ATOM     21  N   UNL     1      49.259   5.446  17.692  0.00  0.00    +0.000 N 
ATOM     22  C   UNL     1      50.167   4.539  18.409  0.00  0.00    +0.000 C 
ATOM     23  C   UNL     1      50.286   4.928  19.887  0.00  0.00    +0.000 C 
ATOM     24  S   UNL     1      48.682   4.881  20.756  0.00  0.00    +0.000 S 
ATOM     25  C   UNL     1      47.753   5.955  19.606  0.00  0.00    +0.000 C 
ATOM     26  C   UNL     1      47.863   5.479  18.155  0.00  0.00    +0.000 C 
ENDBRANCH  17  21
ENDBRANCH  14  15
ENDBRANCH   1  14
TORSDOF 5
ENDMDL
MODEL 9
REMARK VINA RESULT:    -5.766      3.448      5.584
REMARK INTER + INTRA:          -8.237
REMARK INTER:                  -7.551
REMARK INTRA:                  -0.686
REMARK UNBOUND:                -0.786
REMARK  Name = 
REMARK  5 active torsions:
REMARK  status: ('A' for Active; 'I' for Inactive)
REMARK    1  A    between atoms: C_2  and  C_4
REMARK    2  A    between atoms: C_7  and  N_8
REMARK    3  A    between atoms: N_8  and  C_9
REMARK    4  A    between atoms: C_9  and  C_10
REMARK    5  A    between atoms: C_12  and  N_13
REMARK                            x       y       z     vdW  Elec       q    Type
REMARK                         _______ _______ _______ _____ _____    ______ ____
ROOT
ATOM      1  N   UNL     1      46.135   7.769  13.358  0.00  0.00    +0.000 N 
ATOM      2  H   UNL     1      46.029   7.556  14.345  0.00  0.00    +0.000 HD
ENDROOT
BRANCH   1   6
ATOM      3  C   UNL     1      44.646   4.795  10.766  0.00  0.00    +0.000 A 
ATOM      4  C   UNL     1      44.113   4.924  12.050  0.00  0.00    +0.000 A 
ATOM      5  C   UNL     1      44.603   5.902  12.912  0.00  0.00    +0.000 A 
ATOM      6  C   UNL     1      45.603   6.795  12.515  0.00  0.00    +0.000 A 
ATOM      7  C   UNL     1      46.159   6.627  11.235  0.00  0.00    +0.000 A 
ATOM      8  C   UNL     1      45.693   5.630  10.372  0.00  0.00    +0.000 A 
BRANCH   3  10
ATOM      9  N   UNL     1      44.154   4.049   8.508  0.00  0.00    +0.000 N 
ATOM     10  C   UNL     1      44.150   3.745   9.844  0.00  0.00    +0.000 C 
ATOM     11  O   UNL     1      43.788   2.653  10.245  0.00  0.00    +0.000 OA
ATOM     12  H   UNL     1      43.892   3.307   7.875  0.00  0.00    +0.000 HD
ATOM     13  H   UNL     1      44.672   4.831   8.128  0.00  0.00    +0.000 HD
ENDBRANCH   3  10
ENDBRANCH   1   6
BRANCH   1  14
ATOM     14  C   UNL     1      47.375   8.477  13.017  0.00  0.00    +0.000 C 
BRANCH  14  15
ATOM     15  C   UNL     1      48.539   8.040  13.894  0.00  0.00    +0.000 A 
ATOM     16  C   UNL     1      48.362   7.026  14.838  0.00  0.00    +0.000 A 
ATOM     17  C   UNL     1      49.402   6.649  15.690  0.00  0.00    +0.000 A 
ATOM     18  C   UNL     1      50.614   7.316  15.513  0.00  0.00    +0.000 A 
ATOM     19  C   UNL     1      50.734   8.284  14.529  0.00  0.00    +0.000 A 
ATOM     20  N   UNL     1      49.729   8.662  13.713  0.00  0.00    +0.000 NA
BRANCH  17  21
ATOM     21  N   UNL     1      49.230   5.677  16.657  0.00  0.00    +0.000 N 
ATOM     22  C   UNL     1      47.948   4.978  16.832  0.00  0.00    +0.000 C 
ATOM     23  C   UNL     1      48.101   3.471  16.595  0.00  0.00    +0.000 C 
ATOM     24  S   UNL     1      49.294   2.699  17.740  0.00  0.00    +0.000 S 
ATOM     25  C   UNL     1      50.701   3.818  17.412  0.00  0.00    +0.000 C 
ATOM     26  C   UNL     1      50.317   5.292  17.570  0.00  0.00    +0.000 C 
ENDBRANCH  17  21
ENDBRANCH  14  15
ENDBRANCH   1  14
TORSDOF 5
ENDMDL
