MODEL 1
REMARK VINA RESULT:    -7.742      0.000      0.000
REMARK INTER + INTRA:         -10.353
REMARK INTER:                  -9.779
REMARK INTRA:                  -0.574
REMARK UNBOUND:                -0.574
REMARK  Name = 
REMARK  5 active torsions:
REMARK  status: ('A' for Active; 'I' for Inactive)
REMARK    1  A    between atoms: N_1  and  C_2
REMARK    2  A    between atoms: C_2  and  C_3
REMARK    3  A    between atoms: C_3  and  C_4
REMARK    4  A    between atoms: C_7  and  C_8
REMARK    5  A    between atoms: C_8  and  N_9
REMARK                            x       y       z     vdW  Elec       q    Type
REMARK                         _______ _______ _______ _____ _____    ______ ____
ROOT
ATOM      1  C   UNL     1      46.161   2.178   7.795  0.00  0.00    +0.000 A 
ATOM      2  C   UNL     1      45.351   1.612   8.787  0.00  0.00    +0.000 A 
ATOM      3  C   UNL     1      44.573   2.424   9.621  0.00  0.00    +0.000 A 
ATOM      4  C   UNL     1      44.584   3.818   9.474  0.00  0.00    +0.000 A 
ATOM      5  C   UNL     1      45.375   4.379   8.462  0.00  0.00    +0.000 A 
ATOM      6  C   UNL     1      46.152   3.567   7.629  0.00  0.00    +0.000 A 
ENDROOT
BRANCH   1   7
ATOM      7  C   UNL     1      47.044   1.308   6.928  0.00  0.00    +0.000 C 
BRANCH   7   8
ATOM      8  C   UNL     1      48.330   2.015   6.487  0.00  0.00    +0.000 C 
BRANCH   8   9
ATOM      9  N   UNL     1      48.363   2.185   5.034  0.00  0.00    +0.000 NA
ATOM     10  H   UNL     1      48.094   3.140   4.798  0.00  0.00    +0.000 HD
ATOM     11  H   UNL     1      47.668   1.579   4.599  0.00  0.00    +0.000 HD
ENDBRANCH   8   9
ENDBRANCH   7   8
ENDBRANCH   1   7
BRANCH   4  12
ATOM     12  C   UNL     1      43.753   4.697  10.373  0.00  0.00    +0.000 C 
BRANCH  12  13
ATOM     13  N   UNL     1      44.311   4.836  11.709  0.00  0.00    +0.000 N 
ATOM     14  C   UNL     1      43.885   4.145  12.815  0.00  0.00    +0.000 A 
ATOM     15  N   UNL     1      44.698   4.294  13.835  0.00  0.00    +0.000 NA
ATOM     16  C   UNL     1      45.695   5.107  13.371  0.00  0.00    +0.000 A 
ATOM     17  N   UNL     1      46.783   5.479  14.080  0.00  0.00    +0.000 NA
ATOM     18  C   UNL     1      47.647   6.262  13.403  0.00  0.00    +0.000 A 
ATOM     19  C   UNL     1      47.486   6.708  12.095  0.00  0.00    +0.000 A 
ATOM     20  C   UNL     1      46.358   6.323  11.372  0.00  0.00    +0.000 A 
ATOM     21  C   UNL     1      45.470   5.487  12.050  0.00  0.00    +0.000 A 
ENDBRANCH  12  13
ENDBRANCH   4  12
TORSDOF 5
ENDMDL
MODEL 2
REMARK VINA RESULT:    -7.275      1.346      1.413
REMARK INTER + INTRA:          -9.764
REMARK INTER:                  -9.261
REMARK INTRA:                  -0.503
REMARK UNBOUND:                -0.574
REMARK  Name = 
REMARK  5 active torsions:
REMARK  status: ('A' for Active; 'I' for Inactive)
REMARK    1  A    between atoms: N_1  and  C_2
REMARK    2  A    between atoms: C_2  and  C_3
REMARK    3  A    between atoms: C_3  and  C_4
REMARK    4  A    between atoms: C_7  and  C_8
REMARK    5  A    between atoms: C_8  and  N_9
REMARK                            x       y       z     vdW  Elec       q    Type
REMARK                         _______ _______ _______ _____ _____    ______ ____
ROOT
ATOM      1  C   UNL     1      45.889   2.870   7.856  0.00  0.00    +0.000 A 
ATOM      2  C   UNL     1      45.033   2.348   8.833  0.00  0.00    +0.000 A 
ATOM      3  C   UNL     1      44.544   3.162   9.861  0.00  0.00    +0.000 A 
ATOM      4  C   UNL     1      44.898   4.517   9.931  0.00  0.00    +0.000 A 
ATOM      5  C   UNL     1      45.734   5.042   8.936  0.00  0.00    +0.000 A 
ATOM      6  C   UNL     1      46.221   4.228   7.907  0.00  0.00    +0.000 A 
ENDROOT
BRANCH   1   7
ATOM      7  C   UNL     1      46.462   1.982   6.775  0.00  0.00    +0.000 C 
BRANCH   7   8
ATOM      8  C   UNL     1      47.500   0.987   7.304  0.00  0.00    +0.000 C 
BRANCH   8   9
ATOM      9  N   UNL     1      46.874  -0.289   7.654  0.00  0.00    +0.000 NA
ATOM     10  H   UNL     1      46.579  -0.766   6.802  0.00  0.00    +0.000 HD
ATOM     11  H   UNL     1      46.026  -0.121   8.193  0.00  0.00    +0.000 HD
ENDBRANCH   8   9
ENDBRANCH   7   8
ENDBRANCH   1   7
BRANCH   4  12
ATOM     12  C   UNL     1      44.380   5.396  11.039  0.00  0.00    +0.000 C 
BRANCH  12  13
ATOM     13  N   UNL     1      45.224   5.375  12.224  0.00  0.00    +0.000 N 
ATOM     14  C   UNL     1      45.087   4.500  13.272  0.00  0.00    +0.000 A 
ATOM     15  N   UNL     1      46.106   4.554  14.099  0.00  0.00    +0.000 NA
ATOM     16  C   UNL     1      46.940   5.495  13.562  0.00  0.00    +0.000 A 
ATOM     17  N   UNL     1      48.148   5.835  14.064  0.00  0.00    +0.000 NA
ATOM     18  C   UNL     1      48.806   6.769  13.347  0.00  0.00    +0.000 A 
ATOM     19  C   UNL     1      48.335   7.390  12.196  0.00  0.00    +0.000 A 
ATOM     20  C   UNL     1      47.086   7.037  11.687  0.00  0.00    +0.000 A 
ATOM     21  C   UNL     1      46.407   6.050  12.401  0.00  0.00    +0.000 A 
ENDBRANCH  12  13
ENDBRANCH   4  12
TORSDOF 5
ENDMDL
MODEL 3
REMARK VINA RESULT:    -7.173      1.118      1.563
REMARK INTER + INTRA:          -9.635
REMARK INTER:                  -9.153
REMARK INTRA:                  -0.482
REMARK UNBOUND:                -0.574
REMARK  Name = 
REMARK  5 active torsions:
REMARK  status: ('A' for Active; 'I' for Inactive)
REMARK    1  A    between atoms: N_1  and  C_2
REMARK    2  A    between atoms: C_2  and  C_3
REMARK    3  A    between atoms: C_3  and  C_4
REMARK    4  A    between atoms: C_7  and  C_8
REMARK    5  A    between atoms: C_8  and  N_9
REMARK                            x       y       z     vdW  Elec       q    Type
REMARK                         _______ _______ _______ _____ _____    ______ ____
ROOT
ATOM      1  C   UNL     1      46.098   2.242   7.747  0.00  0.00    +0.000 A 
ATOM      2  C   UNL     1      45.337   1.636   8.755  0.00  0.00    +0.000 A 
ATOM      3  C   UNL     1      44.595   2.413   9.652  0.00  0.00    +0.000 A 
ATOM      4  C   UNL     1      44.593   3.812   9.554  0.00  0.00    +0.000 A 
ATOM      5  C   UNL     1      45.333   4.412   8.528  0.00  0.00    +0.000 A 
ATOM      6  C   UNL     1      46.074   3.636   7.631  0.00  0.00    +0.000 A 
ENDROOT
BRANCH   1   7
ATOM      7  C   UNL     1      46.943   1.409   6.810  0.00  0.00    +0.000 C 
BRANCH   7   8
ATOM      8  C   UNL     1      48.265   2.087   6.436  0.00  0.00    +0.000 C 
BRANCH   8   9
ATOM      9  N   UNL     1      48.274   2.479   5.026  0.00  0.00    +0.000 NA
ATOM     10  H   UNL     1      47.382   2.913   4.789  0.00  0.00    +0.000 HD
ATOM     11  H   UNL     1      48.352   1.649   4.438  0.00  0.00    +0.000 HD
ENDBRANCH   8   9
ENDBRANCH   7   8
ENDBRANCH   1   7
BRANCH   4  12
ATOM     12  C   UNL     1      43.800   4.653  10.521  0.00  0.00    +0.000 C 
BRANCH  12  13
ATOM     13  N   UNL     1      44.638   5.438  11.414  0.00  0.00    +0.000 N 
ATOM     14  C   UNL     1      44.518   6.789  11.620  0.00  0.00    +0.000 A 
ATOM     15  N   UNL     1      45.246   7.202  12.632  0.00  0.00    +0.000 NA
ATOM     16  C   UNL     1      45.856   6.074  13.106  0.00  0.00    +0.000 A 
ATOM     17  N   UNL     1      46.663   6.027  14.189  0.00  0.00    +0.000 NA
ATOM     18  C   UNL     1      47.126   4.796  14.485  0.00  0.00    +0.000 A 
ATOM     19  C   UNL     1      46.859   3.634  13.769  0.00  0.00    +0.000 A 
ATOM     20  C   UNL     1      46.030   3.692  12.650  0.00  0.00    +0.000 A 
ATOM     21  C   UNL     1      45.518   4.954  12.350  0.00  0.00    +0.000 A 
ENDBRANCH  12  13
ENDBRANCH   4  12
TORSDOF 5
ENDMDL
MODEL 4
REMARK VINA RESULT:    -6.619      2.073      6.538
REMARK INTER + INTRA:          -8.934
REMARK INTER:                  -8.423
REMARK INTRA:                  -0.512
REMARK UNBOUND:                -0.574
REMARK  Name = 
REMARK  5 active torsions:
REMARK  status: ('A' for Active; 'I' for Inactive)
REMARK    1  A    between atoms: N_1  and  C_2
REMARK    2  A    between atoms: C_2  and  C_3
REMARK    3  A    between atoms: C_3  and  C_4
REMARK    4  A    between atoms: C_7  and  C_8
REMARK    5  A    between atoms: C_8  and  N_9
REMARK                            x       y       z     vdW  Elec       q    Type
REMARK                         _______ _______ _______ _____ _____    ______ ____
ROOT
ATOM      1  C   UNL     1      46.571   4.567  14.049  0.00  0.00    +0.000 A 
ATOM      2  C   UNL     1      46.513   3.286  13.487  0.00  0.00    +0.000 A 
ATOM      3  C   UNL     1      45.798   3.057  12.306  0.00  0.00    +0.000 A 
ATOM      4  C   UNL     1      45.131   4.107  11.659  0.00  0.00    +0.000 A 
ATOM      5  C   UNL     1      45.214   5.393  12.210  0.00  0.00    +0.000 A 
ATOM      6  C   UNL     1      45.930   5.622  13.389  0.00  0.00    +0.000 A 
ENDROOT
BRANCH   1   7
ATOM      7  C   UNL     1      47.298   4.809  15.353  0.00  0.00    +0.000 C 
BRANCH   7   8
ATOM      8  C   UNL     1      47.580   3.518  16.128  0.00  0.00    +0.000 C 
BRANCH   8   9
ATOM      9  N   UNL     1      46.724   3.418  17.311  0.00  0.00    +0.000 NA
ATOM     10  H   UNL     1      47.209   3.816  18.115  0.00  0.00    +0.000 HD
ATOM     11  H   UNL     1      46.560   2.437  17.536  0.00  0.00    +0.000 HD
ENDBRANCH   8   9
ENDBRANCH   7   8
ENDBRANCH   1   7
BRANCH   4  12
ATOM     12  C   UNL     1      44.354   3.865  10.391  0.00  0.00    +0.000 C 
BRANCH  12  13
ATOM     13  N   UNL     1      45.185   3.905   9.197  0.00  0.00    +0.000 N 
ATOM     14  C   UNL     1      45.726   5.043   8.654  0.00  0.00    +0.000 A 
ATOM     15  N   UNL     1      46.607   4.775   7.718  0.00  0.00    +0.000 NA
ATOM     16  C   UNL     1      46.647   3.409   7.659  0.00  0.00    +0.000 A 
ATOM     17  N   UNL     1      47.469   2.693   6.860  0.00  0.00    +0.000 NA
ATOM     18  C   UNL     1      47.350   1.356   6.995  0.00  0.00    +0.000 A 
ATOM     19  C   UNL     1      46.463   0.701   7.843  0.00  0.00    +0.000 A 
ATOM     20  C   UNL     1      45.615   1.448   8.659  0.00  0.00    +0.000 A 
ATOM     21  C   UNL     1      45.749   2.832   8.553  0.00  0.00    +0.000 A 
ENDBRANCH  12  13
ENDBRANCH   4  12
TORSDOF 5
ENDMDL
MODEL 5
REMARK VINA RESULT:    -6.082      2.126      6.281
REMARK INTER + INTRA:          -8.256
REMARK INTER:                  -7.852
REMARK INTRA:                  -0.404
REMARK UNBOUND:                -0.574
REMARK  Name = 
REMARK  5 active torsions:
REMARK  status: ('A' for Active; 'I' for Inactive)
REMARK    1  A    between atoms: N_1  and  C_2
REMARK    2  A    between atoms: C_2  and  C_3
REMARK    3  A    between atoms: C_3  and  C_4
REMARK    4  A    between atoms: C_7  and  C_8
REMARK    5  A    between atoms: C_8  and  N_9
REMARK                            x       y       z     vdW  Elec       q    Type
REMARK                         _______ _______ _______ _____ _____    ______ ____
ROOT
ATOM      1  C   UNL     1      47.372   7.814  13.406  0.00  0.00    +0.000 A 
ATOM      2  C   UNL     1      46.405   8.674  12.871  0.00  0.00    +0.000 A 
ATOM      3  C   UNL     1      45.278   8.161  12.219  0.00  0.00    +0.000 A 
ATOM      4  C   UNL     1      45.090   6.777  12.095  0.00  0.00    +0.000 A 
ATOM      5  C   UNL     1      46.046   5.920  12.656  0.00  0.00    +0.000 A 
ATOM      6  C   UNL     1      47.172   6.432  13.308  0.00  0.00    +0.000 A 
ENDROOT
BRANCH   1   7
ATOM      7  C   UNL     1      48.618   8.363  14.064  0.00  0.00    +0.000 C 
BRANCH   7   8
ATOM      8  C   UNL     1      49.152   7.460  15.179  0.00  0.00    +0.000 C 
BRANCH   8   9
ATOM      9  N   UNL     1      50.517   7.020  14.890  0.00  0.00    +0.000 NA
ATOM     10  H   UNL     1      50.952   6.677  15.747  0.00  0.00    +0.000 HD
ATOM     11  H   UNL     1      51.079   7.814  14.585  0.00  0.00    +0.000 HD
ENDBRANCH   8   9
ENDBRANCH   7   8
ENDBRANCH   1   7
BRANCH   4  12
ATOM     12  C   UNL     1      43.881   6.221  11.389  0.00  0.00    +0.000 C 
BRANCH  12  13
ATOM     13  N   UNL     1      43.996   4.801  11.095  0.00  0.00    +0.000 N 
ATOM     14  C   UNL     1      43.266   3.810  11.702  0.00  0.00    +0.000 A 
ATOM     15  N   UNL     1      43.405   2.652  11.100  0.00  0.00    +0.000 NA
ATOM     16  C   UNL     1      44.252   2.903  10.055  0.00  0.00    +0.000 A 
ATOM     17  N   UNL     1      44.629   1.993   9.129  0.00  0.00    +0.000 NA
ATOM     18  C   UNL     1      45.449   2.478   8.174  0.00  0.00    +0.000 A 
ATOM     19  C   UNL     1      45.925   3.782   8.099  0.00  0.00    +0.000 A 
ATOM     20  C   UNL     1      45.535   4.713   9.061  0.00  0.00    +0.000 A 
ATOM     21  C   UNL     1      44.663   4.233  10.038  0.00  0.00    +0.000 A 
ENDBRANCH  12  13
ENDBRANCH   4  12
TORSDOF 5
ENDMDL
MODEL 6
REMARK VINA RESULT:    -5.838      1.893      6.228
REMARK INTER + INTRA:          -7.948
REMARK INTER:                  -7.399
REMARK INTRA:                  -0.549
REMARK UNBOUND:                -0.574
REMARK  Name = 
REMARK  5 active torsions:
REMARK  status: ('A' for Active; 'I' for Inactive)
REMARK    1  A    between atoms: N_1  and  C_2
REMARK    2  A    between atoms: C_2  and  C_3
REMARK    3  A    between atoms: C_3  and  C_4
REMARK    4  A    between atoms: C_7  and  C_8
REMARK    5  A    between atoms: C_8  and  N_9
REMARK                            x       y       z     vdW  Elec       q    Type
REMARK                         _______ _______ _______ _____ _____    ______ ____
ROOT
ATOM      1  C   UNL     1      46.599   6.343  12.709  0.00  0.00    +0.000 A 
ATOM      2  C   UNL     1      46.625   6.857  11.408  0.00  0.00    +0.000 A 
ATOM      3  C   UNL     1      45.926   6.221  10.375  0.00  0.00    +0.000 A 
ATOM      4  C   UNL     1      45.180   5.061  10.626  0.00  0.00    +0.000 A 
ATOM      5  C   UNL     1      45.133   4.565  11.936  0.00  0.00    +0.000 A 
ATOM      6  C   UNL     1      45.832   5.202  12.967  0.00  0.00    +0.000 A 
ENDROOT
BRANCH   1   7
ATOM      7  C   UNL     1      47.396   6.996  13.816  0.00  0.00    +0.000 C 
BRANCH   7   8
ATOM      8  C   UNL     1      48.775   7.479  13.354  0.00  0.00    +0.000 C 
BRANCH   8   9
ATOM      9  N   UNL     1      49.840   6.851  14.137  0.00  0.00    +0.000 NA
ATOM     10  H   UNL     1      49.593   5.880  14.328  0.00  0.00    +0.000 HD
ATOM     11  H   UNL     1      49.917   7.308  15.045  0.00  0.00    +0.000 HD
ENDBRANCH   8   9
ENDBRANCH   7   8
ENDBRANCH   1   7
BRANCH   4  12
ATOM     12  C   UNL     1      44.430   4.369   9.517  0.00  0.00    +0.000 C 
BRANCH  12  13
ATOM     13  N   UNL     1      45.059   3.129   9.091  0.00  0.00    +0.000 N 
ATOM     14  C   UNL     1      44.591   1.871   9.375  0.00  0.00    +0.000 A 
ATOM     15  N   UNL     1      45.217   0.942   8.689  0.00  0.00    +0.000 NA
ATOM     16  C   UNL     1      46.122   1.626   7.924  0.00  0.00    +0.000 A 
ATOM     17  N   UNL     1      46.949   1.062   7.016  0.00  0.00    +0.000 NA
ATOM     18  C   UNL     1      47.734   1.940   6.359  0.00  0.00    +0.000 A 
ATOM     19  C   UNL     1      47.762   3.315   6.562  0.00  0.00    +0.000 A 
ATOM     20  C   UNL     1      46.908   3.888   7.504  0.00  0.00    +0.000 A 
ATOM     21  C   UNL     1      46.068   2.995   8.170  0.00  0.00    +0.000 A 
ENDBRANCH  12  13
ENDBRANCH   4  12
TORSDOF 5
ENDMDL
MODEL 7
REMARK VINA RESULT:    -5.239      3.801      7.782
REMARK INTER + INTRA:          -7.192
REMARK INTER:                  -6.749
REMARK INTRA:                  -0.443
REMARK UNBOUND:                -0.574
REMARK  Name = 
REMARK  5 active torsions:
REMARK  status: ('A' for Active; 'I' for Inactive)
REMARK    1  A    between atoms: N_1  and  C_2
REMARK    2  A    between atoms: C_2  and  C_3
REMARK    3  A    between atoms: C_3  and  C_4
REMARK    4  A    between atoms: C_7  and  C_8
REMARK    5  A    between atoms: C_8  and  N_9
REMARK                            x       y       z     vdW  Elec       q    Type
REMARK                         _______ _______ _______ _____ _____    ______ ____
ROOT
ATOM      1  C   UNL     1      48.245   5.563  17.386  0.00  0.00    +0.000 A 
ATOM      2  C   UNL     1      47.508   4.571  16.729  0.00  0.00    +0.000 A 
ATOM      3  C   UNL     1      47.317   4.624  15.343  0.00  0.00    +0.000 A 
ATOM      4  C   UNL     1      47.866   5.668  14.586  0.00  0.00    +0.000 A 
ATOM      5  C   UNL     1      48.626   6.644  15.243  0.00  0.00    +0.000 A 
ATOM      6  C   UNL     1      48.817   6.590  16.628  0.00  0.00    +0.000 A 
ENDROOT
BRANCH   1   7
ATOM      7  C   UNL     1      48.407   5.538  18.889  0.00  0.00    +0.000 C 
BRANCH   7   8
ATOM      8  C   UNL     1      49.089   4.263  19.396  0.00  0.00    +0.000 C 
BRANCH   8   9
ATOM      9  N   UNL     1      48.337   3.670  20.503  0.00  0.00    +0.000 NA
ATOM     10  H   UNL     1      48.542   2.672  20.556  0.00  0.00    +0.000 HD
ATOM     11  H   UNL     1      47.337   3.745  20.320  0.00  0.00    +0.000 HD
ENDBRANCH   8   9
ENDBRANCH   7   8
ENDBRANCH   1   7
BRANCH   4  12
ATOM     12  C   UNL     1      47.659   5.734  13.094  0.00  0.00    +0.000 C 
BRANCH  12  13
ATOM     13  N   UNL     1      46.281   6.010  12.722  0.00  0.00    +0.000 N 
ATOM     14  C   UNL     1      45.789   7.246  12.387  0.00  0.00    +0.000 A 
ATOM     15  N   UNL     1      44.579   7.178  11.883  0.00  0.00    +0.000 NA
ATOM     16  C   UNL     1      44.276   5.844  11.882  0.00  0.00    +0.000 A 
ATOM     17  N   UNL     1      43.136   5.310  11.391  0.00  0.00    +0.000 NA
ATOM     18  C   UNL     1      43.073   3.965  11.472  0.00  0.00    +0.000 A 
ATOM     19  C   UNL     1      44.046   3.137  12.022  0.00  0.00    +0.000 A 
ATOM     20  C   UNL     1      45.217   3.698  12.530  0.00  0.00    +0.000 A 
ATOM     21  C   UNL     1      45.310   5.086  12.425  0.00  0.00    +0.000 A 
ENDBRANCH  12  13
ENDBRANCH   4  12
TORSDOF 5
ENDMDL
MODEL 8
REMARK VINA RESULT:    -4.968      3.631      6.575
REMARK INTER + INTRA:          -6.849
REMARK INTER:                  -6.401
REMARK INTRA:                  -0.448
REMARK UNBOUND:                -0.574
REMARK  Name = 
REMARK  5 active torsions:
REMARK  status: ('A' for Active; 'I' for Inactive)
REMARK    1  A    between atoms: N_1  and  C_2
REMARK    2  A    between atoms: C_2  and  C_3
REMARK    3  A    between atoms: C_3  and  C_4
REMARK    4  A    between atoms: C_7  and  C_8
REMARK    5  A    between atoms: C_8  and  N_9
REMARK                            x       y       z     vdW  Elec       q    Type
REMARK                         _______ _______ _______ _____ _____    ______ ____
ROOT
ATOM      1  C   UNL     1      50.433   8.598  12.309  0.00  0.00    +0.000 A 
ATOM      2  C   UNL     1      49.728   9.025  13.440  0.00  0.00    +0.000 A 
ATOM      3  C   UNL     1      48.391   8.655  13.630  0.00  0.00    +0.000 A 
ATOM      4  C   UNL     1      47.734   7.844  12.694  0.00  0.00    +0.000 A 
ATOM      5  C   UNL     1      48.451   7.395  11.577  0.00  0.00    +0.000 A 
ATOM      6  C   UNL     1      49.787   7.765  11.388  0.00  0.00    +0.000 A 
ENDROOT
BRANCH   1   7
ATOM      7  C   UNL     1      51.859   9.039  12.073  0.00  0.00    +0.000 C 
BRANCH   7   8
ATOM      8  C   UNL     1      52.694   9.076  13.357  0.00  0.00    +0.000 C 
BRANCH   8   9
ATOM      9  N   UNL     1      53.276   7.764  13.643  0.00  0.00    +0.000 NA
ATOM     10  H   UNL     1      54.070   7.603  13.023  0.00  0.00    +0.000 HD
ATOM     11  H   UNL     1      52.598   7.032  13.432  0.00  0.00    +0.000 HD
ENDBRANCH   8   9
ENDBRANCH   7   8
ENDBRANCH   1   7
BRANCH   4  12
ATOM     12  C   UNL     1      46.294   7.447  12.890  0.00  0.00    +0.000 C 
BRANCH  12  13
ATOM     13  N   UNL     1      46.103   6.006  12.954  0.00  0.00    +0.000 N 
ATOM     14  C   UNL     1      46.668   5.179  13.891  0.00  0.00    +0.000 A 
ATOM     15  N   UNL     1      46.160   3.969  13.855  0.00  0.00    +0.000 NA
ATOM     16  C   UNL     1      45.221   4.015  12.862  0.00  0.00    +0.000 A 
ATOM     17  N   UNL     1      44.408   2.992  12.517  0.00  0.00    +0.000 NA
ATOM     18  C   UNL     1      43.541   3.281  11.525  0.00  0.00    +0.000 A 
ATOM     19  C   UNL     1      43.450   4.495  10.854  0.00  0.00    +0.000 A 
ATOM     20  C   UNL     1      44.296   5.544  11.212  0.00  0.00    +0.000 A 
ATOM     21  C   UNL     1      45.177   5.269  12.258  0.00  0.00    +0.000 A 
ENDBRANCH  12  13
ENDBRANCH   4  12
TORSDOF 5
ENDMDL
