MODEL 1
REMARK VINA RESULT:    -8.448      0.000      0.000
REMARK INTER + INTRA:         -11.966
REMARK INTER:                 -10.918
REMARK INTRA:                  -1.048
REMARK UNBOUND:                -1.048
REMARK  Name = 
REMARK  5 active torsions:
REMARK  status: ('A' for Active; 'I' for Inactive)
REMARK    1  A    between atoms: C_2  and  C_3
REMARK    2  A    between atoms: C_6  and  N_7
REMARK    3  A    between atoms: N_7  and  C_8
REMARK    4  A    between atoms: C_8  and  C_9
REMARK    5  A    between atoms: C_14  and  C_15
REMARK                            x       y       z     vdW  Elec       q    Type
REMARK                         _______ _______ _______ _____ _____    ______ ____
ROOT
ATOM      1  C   UNL     1      43.974   4.812  11.533  0.00  0.00    +0.000 C 
ATOM      2  C   UNL     1      43.120   3.681  12.081  0.00  0.00    +0.000 C 
ATOM      3  C   UNL     1      42.688   5.084  12.314  0.00  0.00    +0.000 C 
ENDROOT
BRANCH   1   4
ATOM      4  C   UNL     1      45.188   5.354  12.280  0.00  0.00    +0.000 A 
ATOM      5  C   UNL     1      45.958   4.518  13.108  0.00  0.00    +0.000 A 
ATOM      6  C   UNL     1      47.209   4.922  13.570  0.00  0.00    +0.000 A 
ATOM      7  C   UNL     1      47.691   6.185  13.239  0.00  0.00    +0.000 A 
ATOM      8  F   UNL     1      48.930   6.499  13.647  0.00  0.00    +0.000 F 
ATOM      9  C   UNL     1      46.927   7.096  12.494  0.00  0.00    +0.000 A 
ATOM     10  C   UNL     1      45.668   6.652  12.044  0.00  0.00    +0.000 A 
BRANCH   9  11
ATOM     11  C   UNL     1      47.407   8.441  12.116  0.00  0.00    +0.000 A 
ATOM     12  C   UNL     1      48.722   8.659  11.674  0.00  0.00    +0.000 A 
ATOM     13  C   UNL     1      49.155   9.929  11.282  0.00  0.00    +0.000 A 
ATOM     14  C   UNL     1      48.274  11.006  11.307  0.00  0.00    +0.000 A 
ATOM     15  C   UNL     1      46.965  10.818  11.733  0.00  0.00    +0.000 A 
ATOM     16  C   UNL     1      46.540   9.552  12.142  0.00  0.00    +0.000 A 
ENDBRANCH   9  11
ENDBRANCH   1   4
BRANCH   1  17
ATOM     17  N   UNL     1      44.028   4.974  10.075  0.00  0.00    +0.000 N 
ATOM     18  H   UNL     1      43.247   5.423   9.610  0.00  0.00    +0.000 HD
BRANCH  17  22
ATOM     19  C   UNL     1      46.660   2.798   7.559  0.00  0.00    +0.000 A 
ATOM     20  C   UNL     1      45.756   2.106   8.370  0.00  0.00    +0.000 A 
ATOM     21  C   UNL     1      44.880   2.812   9.205  0.00  0.00    +0.000 A 
ATOM     22  C   UNL     1      44.852   4.216   9.223  0.00  0.00    +0.000 A 
ATOM     23  C   UNL     1      45.781   4.886   8.410  0.00  0.00    +0.000 A 
ATOM     24  C   UNL     1      46.673   4.189   7.591  0.00  0.00    +0.000 A 
BRANCH  19  26
ATOM     25  N   UNL     1      48.323   1.500   6.044  0.00  0.00    +0.000 NA
ATOM     26  C   UNL     1      47.577   2.080   6.721  0.00  0.00    +0.000 C 
ENDBRANCH  19  26
ENDBRANCH  17  22
ENDBRANCH   1  17
TORSDOF 5
ENDMDL
MODEL 2
REMARK VINA RESULT:    -8.428      1.779      3.913
REMARK INTER + INTRA:         -11.939
REMARK INTER:                 -11.280
REMARK INTRA:                  -0.659
REMARK UNBOUND:                -1.048
REMARK  Name = 
REMARK  5 active torsions:
REMARK  status: ('A' for Active; 'I' for Inactive)
REMARK    1  A    between atoms: C_2  and  C_3
REMARK    2  A    between atoms: C_6  and  N_7
REMARK    3  A    between atoms: N_7  and  C_8
REMARK    4  A    between atoms: C_8  and  C_9
REMARK    5  A    between atoms: C_14  and  C_15
REMARK                            x       y       z     vdW  Elec       q    Type
REMARK                         _______ _______ _______ _____ _____    ______ ____
ROOT
ATOM      1  C   UNL     1      44.178   4.515  11.766  0.00  0.00    +0.000 C 
ATOM      2  C   UNL     1      43.395   3.469  12.543  0.00  0.00    +0.000 C 
ATOM      3  C   UNL     1      43.041   4.903  12.713  0.00  0.00    +0.000 C 
ENDROOT
BRANCH   1   4
ATOM      4  C   UNL     1      45.509   5.071  12.259  0.00  0.00    +0.000 A 
ATOM      5  C   UNL     1      46.092   6.196  11.649  0.00  0.00    +0.000 A 
ATOM      6  C   UNL     1      47.150   6.872  12.252  0.00  0.00    +0.000 A 
ATOM      7  C   UNL     1      47.664   6.409  13.460  0.00  0.00    +0.000 A 
ATOM      8  F   UNL     1      48.633   7.136  14.038  0.00  0.00    +0.000 F 
ATOM      9  C   UNL     1      47.183   5.239  14.068  0.00  0.00    +0.000 A 
ATOM     10  C   UNL     1      46.113   4.583  13.428  0.00  0.00    +0.000 A 
BRANCH   9  11
ATOM     11  C   UNL     1      47.697   4.721  15.353  0.00  0.00    +0.000 A 
ATOM     12  C   UNL     1      48.312   5.562  16.295  0.00  0.00    +0.000 A 
ATOM     13  C   UNL     1      48.760   5.069  17.524  0.00  0.00    +0.000 A 
ATOM     14  C   UNL     1      48.585   3.726  17.844  0.00  0.00    +0.000 A 
ATOM     15  C   UNL     1      47.973   2.873  16.934  0.00  0.00    +0.000 A 
ATOM     16  C   UNL     1      47.544   3.364  15.699  0.00  0.00    +0.000 A 
ENDBRANCH   9  11
ENDBRANCH   1   4
BRANCH   1  17
ATOM     17  N   UNL     1      43.999   4.550  10.310  0.00  0.00    +0.000 N 
ATOM     18  H   UNL     1      43.092   4.809   9.939  0.00  0.00    +0.000 HD
BRANCH  17  22
ATOM     19  C   UNL     1      46.635   2.648   7.584  0.00  0.00    +0.000 A 
ATOM     20  C   UNL     1      45.906   1.873   8.490  0.00  0.00    +0.000 A 
ATOM     21  C   UNL     1      45.031   2.487   9.395  0.00  0.00    +0.000 A 
ATOM     22  C   UNL     1      44.828   3.877   9.393  0.00  0.00    +0.000 A 
ATOM     23  C   UNL     1      45.584   4.634   8.483  0.00  0.00    +0.000 A 
ATOM     24  C   UNL     1      46.475   4.031   7.592  0.00  0.00    +0.000 A 
BRANCH  19  26
ATOM     25  N   UNL     1      48.296   1.521   5.936  0.00  0.00    +0.000 NA
ATOM     26  C   UNL     1      47.551   2.026   6.672  0.00  0.00    +0.000 C 
ENDBRANCH  19  26
ENDBRANCH  17  22
ENDBRANCH   1  17
TORSDOF 5
ENDMDL
MODEL 3
REMARK VINA RESULT:    -8.200      1.583      2.386
REMARK INTER + INTRA:         -11.645
REMARK INTER:                 -10.553
REMARK INTRA:                  -1.092
REMARK UNBOUND:                -1.048
REMARK  Name = 
REMARK  5 active torsions:
REMARK  status: ('A' for Active; 'I' for Inactive)
REMARK    1  A    between atoms: C_2  and  C_3
REMARK    2  A    between atoms: C_6  and  N_7
REMARK    3  A    between atoms: N_7  and  C_8
REMARK    4  A    between atoms: C_8  and  C_9
REMARK    5  A    between atoms: C_14  and  C_15
REMARK                            x       y       z     vdW  Elec       q    Type
REMARK                         _______ _______ _______ _____ _____    ______ ____
ROOT
ATOM      1  C   UNL     1      44.277   4.477  11.561  0.00  0.00    +0.000 C 
ATOM      2  C   UNL     1      44.639   3.468  12.639  0.00  0.00    +0.000 C 
ATOM      3  C   UNL     1      43.406   4.284  12.802  0.00  0.00    +0.000 C 
ENDROOT
BRANCH   1   4
ATOM      4  C   UNL     1      44.869   5.882  11.526  0.00  0.00    +0.000 A 
ATOM      5  C   UNL     1      44.056   7.001  11.269  0.00  0.00    +0.000 A 
ATOM      6  C   UNL     1      44.520   8.293  11.503  0.00  0.00    +0.000 A 
ATOM      7  C   UNL     1      45.820   8.485  11.964  0.00  0.00    +0.000 A 
ATOM      8  F   UNL     1      46.196   9.743  12.244  0.00  0.00    +0.000 F 
ATOM      9  C   UNL     1      46.705   7.412  12.149  0.00  0.00    +0.000 A 
ATOM     10  C   UNL     1      46.199   6.121  11.902  0.00  0.00    +0.000 A 
BRANCH   9  11
ATOM     11  C   UNL     1      48.088   7.576  12.644  0.00  0.00    +0.000 A 
ATOM     12  C   UNL     1      49.118   8.049  11.813  0.00  0.00    +0.000 A 
ATOM     13  C   UNL     1      50.414   8.237  12.302  0.00  0.00    +0.000 A 
ATOM     14  C   UNL     1      50.703   7.973  13.637  0.00  0.00    +0.000 A 
ATOM     15  C   UNL     1      49.702   7.511  14.483  0.00  0.00    +0.000 A 
ATOM     16  C   UNL     1      48.412   7.306  13.988  0.00  0.00    +0.000 A 
ENDBRANCH   9  11
ENDBRANCH   1   4
BRANCH   1  17
ATOM     17  N   UNL     1      43.865   3.952  10.254  0.00  0.00    +0.000 N 
ATOM     18  H   UNL     1      42.898   3.676  10.126  0.00  0.00    +0.000 HD
BRANCH  17  22
ATOM     19  C   UNL     1      46.656   2.480   7.418  0.00  0.00    +0.000 A 
ATOM     20  C   UNL     1      46.035   1.588   8.297  0.00  0.00    +0.000 A 
ATOM     21  C   UNL     1      45.110   2.060   9.238  0.00  0.00    +0.000 A 
ATOM     22  C   UNL     1      44.750   3.417   9.299  0.00  0.00    +0.000 A 
ATOM     23  C   UNL     1      45.400   4.293   8.414  0.00  0.00    +0.000 A 
ATOM     24  C   UNL     1      46.340   3.833   7.488  0.00  0.00    +0.000 A 
BRANCH  19  26
ATOM     25  N   UNL     1      48.403   1.621   5.699  0.00  0.00    +0.000 NA
ATOM     26  C   UNL     1      47.623   2.005   6.470  0.00  0.00    +0.000 C 
ENDBRANCH  19  26
ENDBRANCH  17  22
ENDBRANCH   1  17
TORSDOF 5
ENDMDL
MODEL 4
REMARK VINA RESULT:    -6.452      3.852      7.680
REMARK INTER + INTRA:          -9.386
REMARK INTER:                  -8.334
REMARK INTRA:                  -1.052
REMARK UNBOUND:                -1.048
REMARK  Name = 
REMARK  5 active torsions:
REMARK  status: ('A' for Active; 'I' for Inactive)
REMARK    1  A    between atoms: C_2  and  C_3
REMARK    2  A    between atoms: C_6  and  N_7
REMARK    3  A    between atoms: N_7  and  C_8
REMARK    4  A    between atoms: C_8  and  C_9
REMARK    5  A    between atoms: C_14  and  C_15
REMARK                            x       y       z     vdW  Elec       q    Type
REMARK                         _______ _______ _______ _____ _____    ______ ____
ROOT
ATOM      1  C   UNL     1      48.697   8.017  12.654  0.00  0.00    +0.000 C 
ATOM      2  C   UNL     1      49.826   7.491  11.781  0.00  0.00    +0.000 C 
ATOM      3  C   UNL     1      49.257   8.833  11.488  0.00  0.00    +0.000 C 
ENDROOT
BRANCH   1   4
ATOM      4  C   UNL     1      47.238   7.651  12.409  0.00  0.00    +0.000 A 
ATOM      5  C   UNL     1      46.204   8.544  12.744  0.00  0.00    +0.000 A 
ATOM      6  C   UNL     1      44.906   8.344  12.280  0.00  0.00    +0.000 A 
ATOM      7  C   UNL     1      44.616   7.225  11.505  0.00  0.00    +0.000 A 
ATOM      8  F   UNL     1      43.368   7.115  11.023  0.00  0.00    +0.000 F 
ATOM      9  C   UNL     1      45.586   6.253  11.218  0.00  0.00    +0.000 A 
ATOM     10  C   UNL     1      46.887   6.490  11.704  0.00  0.00    +0.000 A 
BRANCH   9  11
ATOM     11  C   UNL     1      45.318   5.056  10.393  0.00  0.00    +0.000 A 
ATOM     12  C   UNL     1      44.632   3.943  10.907  0.00  0.00    +0.000 A 
ATOM     13  C   UNL     1      44.349   2.833  10.106  0.00  0.00    +0.000 A 
ATOM     14  C   UNL     1      44.732   2.820   8.769  0.00  0.00    +0.000 A 
ATOM     15  C   UNL     1      45.406   3.910   8.233  0.00  0.00    +0.000 A 
ATOM     16  C   UNL     1      45.704   5.010   9.039  0.00  0.00    +0.000 A 
ENDBRANCH   9  11
ENDBRANCH   1   4
BRANCH   1  17
ATOM     17  N   UNL     1      49.020   8.358  14.044  0.00  0.00    +0.000 N 
ATOM     18  H   UNL     1      49.195   9.330  14.276  0.00  0.00    +0.000 HD
BRANCH  17  22
ATOM     19  C   UNL     1      50.585   5.735  16.988  0.00  0.00    +0.000 A 
ATOM     20  C   UNL     1      49.225   5.680  16.671  0.00  0.00    +0.000 A 
ATOM     21  C   UNL     1      48.694   6.539  15.700  0.00  0.00    +0.000 A 
ATOM     22  C   UNL     1      49.507   7.440  14.994  0.00  0.00    +0.000 A 
ATOM     23  C   UNL     1      50.867   7.486  15.341  0.00  0.00    +0.000 A 
ATOM     24  C   UNL     1      51.399   6.648  16.324  0.00  0.00    +0.000 A 
BRANCH  19  26
ATOM     25  N   UNL     1      51.566   4.179  18.822  0.00  0.00    +0.000 NA
ATOM     26  C   UNL     1      51.128   4.875  18.000  0.00  0.00    +0.000 C 
ENDBRANCH  19  26
ENDBRANCH  17  22
ENDBRANCH   1  17
TORSDOF 5
ENDMDL
MODEL 5
REMARK VINA RESULT:    -6.174      3.819      8.123
REMARK INTER + INTRA:          -9.027
REMARK INTER:                  -8.223
REMARK INTRA:                  -0.804
REMARK UNBOUND:                -1.048
REMARK  Name = 
REMARK  5 active torsions:
REMARK  status: ('A' for Active; 'I' for Inactive)
REMARK    1  A    between atoms: C_2  and  C_3
REMARK    2  A    between atoms: C_6  and  N_7
REMARK    3  A    between atoms: N_7  and  C_8
REMARK    4  A    between atoms: C_8  and  C_9
REMARK    5  A    between atoms: C_14  and  C_15
REMARK                            x       y       z     vdW  Elec       q    Type
REMARK                         _______ _______ _______ _____ _____    ______ ____
ROOT
ATOM      1  C   UNL     1      49.106   7.795  12.570  0.00  0.00    +0.000 C 
ATOM      2  C   UNL     1      50.023   7.962  11.369  0.00  0.00    +0.000 C 
ATOM      3  C   UNL     1      49.468   9.177  12.024  0.00  0.00    +0.000 C 
ENDROOT
BRANCH   1   4
ATOM      4  C   UNL     1      47.612   7.529  12.425  0.00  0.00    +0.000 A 
ATOM      5  C   UNL     1      46.665   8.480  12.848  0.00  0.00    +0.000 A 
ATOM      6  C   UNL     1      45.327   8.373  12.476  0.00  0.00    +0.000 A 
ATOM      7  C   UNL     1      44.910   7.292  11.705  0.00  0.00    +0.000 A 
ATOM      8  F   UNL     1      43.627   7.273  11.312  0.00  0.00    +0.000 F 
ATOM      9  C   UNL     1      45.791   6.266  11.333  0.00  0.00    +0.000 A 
ATOM     10  C   UNL     1      47.136   6.408  11.728  0.00  0.00    +0.000 A 
BRANCH   9  11
ATOM     11  C   UNL     1      45.388   5.107  10.510  0.00  0.00    +0.000 A 
ATOM     12  C   UNL     1      44.662   4.033  11.052  0.00  0.00    +0.000 A 
ATOM     13  C   UNL     1      44.251   2.960  10.255  0.00  0.00    +0.000 A 
ATOM     14  C   UNL     1      44.543   2.948   8.895  0.00  0.00    +0.000 A 
ATOM     15  C   UNL     1      45.253   4.001   8.331  0.00  0.00    +0.000 A 
ATOM     16  C   UNL     1      45.679   5.062   9.132  0.00  0.00    +0.000 A 
ENDBRANCH   9  11
ENDBRANCH   1   4
BRANCH   1  17
ATOM     17  N   UNL     1      49.703   7.288  13.811  0.00  0.00    +0.000 N 
ATOM     18  H   UNL     1      50.318   6.484  13.759  0.00  0.00    +0.000 HD
BRANCH  17  22
ATOM     19  C   UNL     1      48.306   7.948  17.762  0.00  0.00    +0.000 A 
ATOM     20  C   UNL     1      48.467   9.036  16.899  0.00  0.00    +0.000 A 
ATOM     21  C   UNL     1      48.926   8.832  15.591  0.00  0.00    +0.000 A 
ATOM     22  C   UNL     1      49.194   7.545  15.098  0.00  0.00    +0.000 A 
ATOM     23  C   UNL     1      49.040   6.471  15.990  0.00  0.00    +0.000 A 
ATOM     24  C   UNL     1      48.604   6.668  17.303  0.00  0.00    +0.000 A 
BRANCH  19  26
ATOM     25  N   UNL     1      47.500   8.323  20.203  0.00  0.00    +0.000 NA
ATOM     26  C   UNL     1      47.861   8.153  19.111  0.00  0.00    +0.000 C 
ENDBRANCH  19  26
ENDBRANCH  17  22
ENDBRANCH   1  17
TORSDOF 5
ENDMDL
MODEL 6
REMARK VINA RESULT:    -6.125      3.057      6.209
REMARK INTER + INTRA:          -8.963
REMARK INTER:                  -8.045
REMARK INTRA:                  -0.919
REMARK UNBOUND:                -1.048
REMARK  Name = 
REMARK  5 active torsions:
REMARK  status: ('A' for Active; 'I' for Inactive)
REMARK    1  A    between atoms: C_2  and  C_3
REMARK    2  A    between atoms: C_6  and  N_7
REMARK    3  A    between atoms: N_7  and  C_8
REMARK    4  A    between atoms: C_8  and  C_9
REMARK    5  A    between atoms: C_14  and  C_15
REMARK                            x       y       z     vdW  Elec       q    Type
REMARK                         _______ _______ _______ _____ _____    ______ ____
ROOT
ATOM      1  C   UNL     1      48.228   8.218  12.477  0.00  0.00    +0.000 C 
ATOM      2  C   UNL     1      49.124   8.957  11.496  0.00  0.00    +0.000 C 
ATOM      3  C   UNL     1      49.290   7.488  11.655  0.00  0.00    +0.000 C 
ENDROOT
BRANCH   1   4
ATOM      4  C   UNL     1      48.542   8.135  13.966  0.00  0.00    +0.000 A 
ATOM      5  C   UNL     1      48.565   9.292  14.765  0.00  0.00    +0.000 A 
ATOM      6  C   UNL     1      48.576   9.204  16.155  0.00  0.00    +0.000 A 
ATOM      7  C   UNL     1      48.601   7.953  16.766  0.00  0.00    +0.000 A 
ATOM      8  F   UNL     1      48.537   7.920  18.107  0.00  0.00    +0.000 F 
ATOM      9  C   UNL     1      48.673   6.767  16.020  0.00  0.00    +0.000 A 
ATOM     10  C   UNL     1      48.659   6.897  14.617  0.00  0.00    +0.000 A 
BRANCH   9  11
ATOM     11  C   UNL     1      48.693   5.422  16.631  0.00  0.00    +0.000 A 
ATOM     12  C   UNL     1      47.608   4.539  16.508  0.00  0.00    +0.000 A 
ATOM     13  C   UNL     1      47.653   3.253  17.057  0.00  0.00    +0.000 A 
ATOM     14  C   UNL     1      48.793   2.819  17.726  0.00  0.00    +0.000 A 
ATOM     15  C   UNL     1      49.884   3.670  17.856  0.00  0.00    +0.000 A 
ATOM     16  C   UNL     1      49.830   4.959  17.323  0.00  0.00    +0.000 A 
ENDBRANCH   9  11
ENDBRANCH   1   4
BRANCH   1  17
ATOM     17  N   UNL     1      46.802   8.113  12.143  0.00  0.00    +0.000 N 
ATOM     18  H   UNL     1      46.207   8.917  12.308  0.00  0.00    +0.000 HD
BRANCH  17  22
ATOM     19  C   UNL     1      44.557   4.531  11.800  0.00  0.00    +0.000 A 
ATOM     20  C   UNL     1      45.314   4.975  10.711  0.00  0.00    +0.000 A 
ATOM     21  C   UNL     1      46.061   6.155  10.811  0.00  0.00    +0.000 A 
ATOM     22  C   UNL     1      46.108   6.897  12.003  0.00  0.00    +0.000 A 
ATOM     23  C   UNL     1      45.328   6.437  13.076  0.00  0.00    +0.000 A 
ATOM     24  C   UNL     1      44.562   5.273  12.977  0.00  0.00    +0.000 A 
BRANCH  19  26
ATOM     25  N   UNL     1      43.135   2.366  11.609  0.00  0.00    +0.000 NA
ATOM     26  C   UNL     1      43.770   3.336  11.695  0.00  0.00    +0.000 C 
ENDBRANCH  19  26
ENDBRANCH  17  22
ENDBRANCH   1  17
TORSDOF 5
ENDMDL
MODEL 7
REMARK VINA RESULT:    -6.017      4.632      7.465
REMARK INTER + INTRA:          -8.824
REMARK INTER:                  -7.596
REMARK INTRA:                  -1.228
REMARK UNBOUND:                -1.048
REMARK  Name = 
REMARK  5 active torsions:
REMARK  status: ('A' for Active; 'I' for Inactive)
REMARK    1  A    between atoms: C_2  and  C_3
REMARK    2  A    between atoms: C_6  and  N_7
REMARK    3  A    between atoms: N_7  and  C_8
REMARK    4  A    between atoms: C_8  and  C_9
REMARK    5  A    between atoms: C_14  and  C_15
REMARK                            x       y       z     vdW  Elec       q    Type
REMARK                         _______ _______ _______ _____ _____    ______ ____
ROOT
ATOM      1  C   UNL     1      49.013   7.765  15.358  0.00  0.00    +0.000 C 
ATOM      2  C   UNL     1      48.298   9.106  15.323  0.00  0.00    +0.000 C 
ATOM      3  C   UNL     1      49.776   9.085  15.484  0.00  0.00    +0.000 C 
ENDROOT
BRANCH   1   4
ATOM      4  C   UNL     1      49.140   6.941  16.634  0.00  0.00    +0.000 A 
ATOM      5  C   UNL     1      48.257   7.137  17.711  0.00  0.00    +0.000 A 
ATOM      6  C   UNL     1      48.185   6.219  18.756  0.00  0.00    +0.000 A 
ATOM      7  C   UNL     1      49.024   5.108  18.756  0.00  0.00    +0.000 A 
ATOM      8  F   UNL     1      48.866   4.215  19.745  0.00  0.00    +0.000 F 
ATOM      9  C   UNL     1      49.988   4.910  17.756  0.00  0.00    +0.000 A 
ATOM     10  C   UNL     1      50.031   5.859  16.716  0.00  0.00    +0.000 A 
BRANCH   9  11
ATOM     11  C   UNL     1      50.890   3.740  17.718  0.00  0.00    +0.000 A 
ATOM     12  C   UNL     1      52.236   3.832  18.113  0.00  0.00    +0.000 A 
ATOM     13  C   UNL     1      53.071   2.711  18.110  0.00  0.00    +0.000 A 
ATOM     14  C   UNL     1      52.572   1.469  17.729  0.00  0.00    +0.000 A 
ATOM     15  C   UNL     1      51.243   1.348  17.340  0.00  0.00    +0.000 A 
ATOM     16  C   UNL     1      50.416   2.473  17.325  0.00  0.00    +0.000 A 
ENDBRANCH   9  11
ENDBRANCH   1   4
BRANCH   1  17
ATOM     17  N   UNL     1      49.047   6.984  14.116  0.00  0.00    +0.000 N 
ATOM     18  H   UNL     1      49.877   7.032  13.536  0.00  0.00    +0.000 HD
BRANCH  17  22
ATOM     19  C   UNL     1      45.701   5.533  11.949  0.00  0.00    +0.000 A 
ATOM     20  C   UNL     1      46.046   4.933  13.163  0.00  0.00    +0.000 A 
ATOM     21  C   UNL     1      47.148   5.402  13.890  0.00  0.00    +0.000 A 
ATOM     22  C   UNL     1      47.904   6.502  13.451  0.00  0.00    +0.000 A 
ATOM     23  C   UNL     1      47.544   7.077  12.221  0.00  0.00    +0.000 A 
ATOM     24  C   UNL     1      46.461   6.601  11.480  0.00  0.00    +0.000 A 
BRANCH  19  26
ATOM     25  N   UNL     1      43.690   4.637  10.570  0.00  0.00    +0.000 NA
ATOM     26  C   UNL     1      44.589   5.040  11.188  0.00  0.00    +0.000 C 
ENDBRANCH  19  26
ENDBRANCH  17  22
ENDBRANCH   1  17
TORSDOF 5
ENDMDL
MODEL 8
REMARK VINA RESULT:    -5.941      4.474      7.593
REMARK INTER + INTRA:          -8.725
REMARK INTER:                  -7.391
REMARK INTRA:                  -1.334
REMARK UNBOUND:                -1.048
REMARK  Name = 
REMARK  5 active torsions:
REMARK  status: ('A' for Active; 'I' for Inactive)
REMARK    1  A    between atoms: C_2  and  C_3
REMARK    2  A    between atoms: C_6  and  N_7
REMARK    3  A    between atoms: N_7  and  C_8
REMARK    4  A    between atoms: C_8  and  C_9
REMARK    5  A    between atoms: C_14  and  C_15
REMARK                            x       y       z     vdW  Elec       q    Type
REMARK                         _______ _______ _______ _____ _____    ______ ____
ROOT
ATOM      1  C   UNL     1      48.664   8.327  16.970  0.00  0.00    +0.000 C 
ATOM      2  C   UNL     1      49.427   9.370  17.770  0.00  0.00    +0.000 C 
ATOM      3  C   UNL     1      48.063   9.699  17.279  0.00  0.00    +0.000 C 
ENDROOT
BRANCH   1   4
ATOM      4  C   UNL     1      48.859   8.145  15.470  0.00  0.00    +0.000 A 
ATOM      5  C   UNL     1      50.065   8.516  14.848  0.00  0.00    +0.000 A 
ATOM      6  C   UNL     1      50.358   8.107  13.549  0.00  0.00    +0.000 A 
ATOM      7  C   UNL     1      49.430   7.350  12.839  0.00  0.00    +0.000 A 
ATOM      8  F   UNL     1      49.788   6.919  11.620  0.00  0.00    +0.000 F 
ATOM      9  C   UNL     1      48.173   7.030  13.375  0.00  0.00    +0.000 A 
ATOM     10  C   UNL     1      47.913   7.461  14.690  0.00  0.00    +0.000 A 
BRANCH   9  11
ATOM     11  C   UNL     1      47.165   6.223  12.655  0.00  0.00    +0.000 A 
ATOM     12  C   UNL     1      46.619   5.055  13.213  0.00  0.00    +0.000 A 
ATOM     13  C   UNL     1      45.637   4.321  12.541  0.00  0.00    +0.000 A 
ATOM     14  C   UNL     1      45.168   4.750  11.304  0.00  0.00    +0.000 A 
ATOM     15  C   UNL     1      45.685   5.906  10.732  0.00  0.00    +0.000 A 
ATOM     16  C   UNL     1      46.679   6.628  11.396  0.00  0.00    +0.000 A 
ENDBRANCH   9  11
ENDBRANCH   1   4
BRANCH   1  17
ATOM     17  N   UNL     1      48.216   7.124  17.682  0.00  0.00    +0.000 N 
ATOM     18  H   UNL     1      47.669   7.238  18.527  0.00  0.00    +0.000 HD
BRANCH  17  22
ATOM     19  C   UNL     1      50.085   3.325  17.420  0.00  0.00    +0.000 A 
ATOM     20  C   UNL     1      48.715   3.435  17.169  0.00  0.00    +0.000 A 
ATOM     21  C   UNL     1      48.085   4.684  17.251  0.00  0.00    +0.000 A 
ATOM     22  C   UNL     1      48.806   5.854  17.541  0.00  0.00    +0.000 A 
ATOM     23  C   UNL     1      50.178   5.713  17.804  0.00  0.00    +0.000 A 
ATOM     24  C   UNL     1      50.810   4.468  17.746  0.00  0.00    +0.000 A 
BRANCH  19  26
ATOM     25  N   UNL     1      51.251   1.006  17.319  0.00  0.00    +0.000 NA
ATOM     26  C   UNL     1      50.731   2.045  17.364  0.00  0.00    +0.000 C 
ENDBRANCH  19  26
ENDBRANCH  17  22
ENDBRANCH   1  17
TORSDOF 5
ENDMDL
MODEL 9
REMARK VINA RESULT:    -5.563      5.385      8.214
REMARK INTER + INTRA:          -8.237
REMARK INTER:                  -7.694
REMARK INTRA:                  -0.543
REMARK UNBOUND:                -1.048
REMARK  Name = 
REMARK  5 active torsions:
REMARK  status: ('A' for Active; 'I' for Inactive)
REMARK    1  A    between atoms: C_2  and  C_3
REMARK    2  A    between atoms: C_6  and  N_7
REMARK    3  A    between atoms: N_7  and  C_8
REMARK    4  A    between atoms: C_8  and  C_9
REMARK    5  A    between atoms: C_14  and  C_15
REMARK                            x       y       z     vdW  Elec       q    Type
REMARK                         _______ _______ _______ _____ _____    ______ ____
ROOT
ATOM      1  C   UNL     1      48.548   5.004  17.513  0.00  0.00    +0.000 C 
ATOM      2  C   UNL     1      48.799   5.748  18.815  0.00  0.00    +0.000 C 
ATOM      3  C   UNL     1      47.400   5.425  18.431  0.00  0.00    +0.000 C 
ENDROOT
BRANCH   1   4
ATOM      4  C   UNL     1      48.459   5.717  16.169  0.00  0.00    +0.000 A 
ATOM      5  C   UNL     1      49.431   6.659  15.786  0.00  0.00    +0.000 A 
ATOM      6  C   UNL     1      49.516   7.107  14.470  0.00  0.00    +0.000 A 
ATOM      7  C   UNL     1      48.605   6.645  13.525  0.00  0.00    +0.000 A 
ATOM      8  F   UNL     1      48.773   7.049  12.256  0.00  0.00    +0.000 F 
ATOM      9  C   UNL     1      47.558   5.777  13.870  0.00  0.00    +0.000 A 
ATOM     10  C   UNL     1      47.505   5.346  15.210  0.00  0.00    +0.000 A 
BRANCH   9  11
ATOM     11  C   UNL     1      46.577   5.259  12.894  0.00  0.00    +0.000 A 
ATOM     12  C   UNL     1      46.191   6.006  11.767  0.00  0.00    +0.000 A 
ATOM     13  C   UNL     1      45.292   5.490  10.829  0.00  0.00    +0.000 A 
ATOM     14  C   UNL     1      44.772   4.210  10.989  0.00  0.00    +0.000 A 
ATOM     15  C   UNL     1      45.142   3.446  12.090  0.00  0.00    +0.000 A 
ATOM     16  C   UNL     1      46.026   3.970  13.036  0.00  0.00    +0.000 A 
ENDBRANCH   9  11
ENDBRANCH   1   4
BRANCH   1  17
ATOM     17  N   UNL     1      48.987   3.605  17.438  0.00  0.00    +0.000 N 
ATOM     18  H   UNL     1      48.298   2.874  17.571  0.00  0.00    +0.000 HD
BRANCH  17  22
ATOM     19  C   UNL     1      52.987   2.234  17.777  0.00  0.00    +0.000 A 
ATOM     20  C   UNL     1      52.697   3.577  18.031  0.00  0.00    +0.000 A 
ATOM     21  C   UNL     1      51.381   4.044  17.925  0.00  0.00    +0.000 A 
ATOM     22  C   UNL     1      50.319   3.182  17.606  0.00  0.00    +0.000 A 
ATOM     23  C   UNL     1      50.640   1.840  17.340  0.00  0.00    +0.000 A 
ATOM     24  C   UNL     1      51.953   1.372  17.423  0.00  0.00    +0.000 A 
BRANCH  19  26
ATOM     25  N   UNL     1      55.433   1.373  17.924  0.00  0.00    +0.000 NA
ATOM     26  C   UNL     1      54.338   1.757  17.859  0.00  0.00    +0.000 C 
ENDBRANCH  19  26
ENDBRANCH  17  22
ENDBRANCH   1  17
TORSDOF 5
ENDMDL
