MODEL 1
REMARK VINA RESULT:    -8.260      0.000      0.000
REMARK INTER + INTRA:          -9.151
REMARK INTER:                  -9.709
REMARK INTRA:                   0.558
REMARK UNBOUND:                 0.558
REMARK  Name = 
REMARK  3 active torsions:
REMARK  status: ('A' for Active; 'I' for Inactive)
REMARK    1  A    between atoms: C_2  and  C_4
REMARK    2  A    between atoms: N_8  and  C_9
REMARK    3  A    between atoms: C_9  and  C_10
REMARK                            x       y       z     vdW  Elec       q    Type
REMARK                         _______ _______ _______ _____ _____    ______ ____
ROOT
ATOM      1  C   UNL     1      46.366   2.104   7.867  0.00  0.00    +0.000 A 
ATOM      2  C   UNL     1      46.437   3.390   7.346  0.00  0.00    +0.000 A 
ATOM      3  C   UNL     1      45.753   4.415   7.995  0.00  0.00    +0.000 A 
ATOM      4  C   UNL     1      45.025   4.150   9.160  0.00  0.00    +0.000 A 
ATOM      5  N   UNL     1      44.468   5.263   9.809  0.00  0.00    +0.000 N 
ATOM      6  N   UNL     1      44.937   2.901   9.657  0.00  0.00    +0.000 NA
ATOM      7  C   UNL     1      45.585   1.905   8.997  0.00  0.00    +0.000 A 
ATOM      8  H   UNL     1      43.885   5.801   9.173  0.00  0.00    +0.000 HD
ENDROOT
BRANCH   1  10
ATOM      9  N   UNL     1      46.700  -0.294   7.669  0.00  0.00    +0.000 N 
ATOM     10  C   UNL     1      47.070   0.956   7.257  0.00  0.00    +0.000 C 
ATOM     11  O   UNL     1      47.924   1.118   6.401  0.00  0.00    +0.000 OA
ATOM     12  H   UNL     1      47.123  -1.071   7.178  0.00  0.00    +0.000 HD
ATOM     13  H   UNL     1      45.837  -0.470   8.164  0.00  0.00    +0.000 HD
ENDBRANCH   1  10
BRANCH   5  14
ATOM     14  C   UNL     1      43.985   5.296  11.215  0.00  0.00    +0.000 C 
ATOM     15  C   UNL     1      42.892   4.259  11.492  0.00  0.00    +0.000 C 
ATOM     16  C   UNL     1      42.601   5.707  11.682  0.00  0.00    +0.000 C 
BRANCH  14  17
ATOM     17  C   UNL     1      45.145   5.415  12.236  0.00  0.00    +0.000 A 
ATOM     18  N   UNL     1      45.763   6.603  12.416  0.00  0.00    +0.000 NA
ATOM     19  C   UNL     1      46.829   6.633  13.236  0.00  0.00    +0.000 A 
ATOM     20  C   UNL     1      47.311   5.530  13.893  0.00  0.00    +0.000 A 
ATOM     21  C   UNL     1      46.623   4.364  13.668  0.00  0.00    +0.000 A 
ATOM     22  N   UNL     1      45.559   4.277  12.850  0.00  0.00    +0.000 NA
ENDBRANCH  14  17
ENDBRANCH   5  14
TORSDOF 3
ENDMDL
MODEL 2
REMARK VINA RESULT:    -7.444      1.459      1.847
REMARK INTER + INTRA:          -8.191
REMARK INTER:                  -7.811
REMARK INTRA:                  -0.380
REMARK UNBOUND:                 0.558
REMARK  Name = 
REMARK  3 active torsions:
REMARK  status: ('A' for Active; 'I' for Inactive)
REMARK    1  A    between atoms: C_2  and  C_4
REMARK    2  A    between atoms: N_8  and  C_9
REMARK    3  A    between atoms: C_9  and  C_10
REMARK                            x       y       z     vdW  Elec       q    Type
REMARK                         _______ _______ _______ _____ _____    ______ ____
ROOT
ATOM      1  C   UNL     1      46.401   3.049   7.472  0.00  0.00    +0.000 A 
ATOM      2  C   UNL     1      45.797   2.031   8.199  0.00  0.00    +0.000 A 
ATOM      3  C   UNL     1      45.203   2.342   9.420  0.00  0.00    +0.000 A 
ATOM      4  C   UNL     1      45.202   3.659   9.889  0.00  0.00    +0.000 A 
ATOM      5  N   UNL     1      44.478   3.897  11.068  0.00  0.00    +0.000 N 
ATOM      6  N   UNL     1      45.804   4.646   9.197  0.00  0.00    +0.000 NA
ATOM      7  C   UNL     1      46.406   4.323   8.022  0.00  0.00    +0.000 A 
ATOM      8  H   UNL     1      44.789   3.282  11.817  0.00  0.00    +0.000 HD
ENDROOT
BRANCH   1  10
ATOM      9  N   UNL     1      48.376   2.514   6.163  0.00  0.00    +0.000 N 
ATOM     10  C   UNL     1      47.043   2.819   6.160  0.00  0.00    +0.000 C 
ATOM     11  O   UNL     1      46.403   2.870   5.123  0.00  0.00    +0.000 OA
ATOM     12  H   UNL     1      48.781   2.268   5.268  0.00  0.00    +0.000 HD
ATOM     13  H   UNL     1      48.862   2.209   6.994  0.00  0.00    +0.000 HD
ENDBRANCH   1  10
BRANCH   5  14
ATOM     14  C   UNL     1      44.023   5.226  11.555  0.00  0.00    +0.000 C 
ATOM     15  C   UNL     1      42.657   5.170  12.246  0.00  0.00    +0.000 C 
ATOM     16  C   UNL     1      42.837   6.018  11.036  0.00  0.00    +0.000 C 
BRANCH  14  17
ATOM     17  C   UNL     1      45.156   6.018  12.257  0.00  0.00    +0.000 A 
ATOM     18  N   UNL     1      45.228   7.360  12.110  0.00  0.00    +0.000 NA
ATOM     19  C   UNL     1      46.286   7.989  12.654  0.00  0.00    +0.000 A 
ATOM     20  C   UNL     1      47.279   7.343  13.344  0.00  0.00    +0.000 A 
ATOM     21  C   UNL     1      47.128   5.985  13.460  0.00  0.00    +0.000 A 
ATOM     22  N   UNL     1      46.097   5.305  12.926  0.00  0.00    +0.000 NA
ENDBRANCH  14  17
ENDBRANCH   5  14
TORSDOF 3
ENDMDL
MODEL 3
REMARK VINA RESULT:    -7.426      2.961      6.360
REMARK INTER + INTRA:          -8.170
REMARK INTER:                  -7.910
REMARK INTRA:                  -0.260
REMARK UNBOUND:                 0.558
REMARK  Name = 
REMARK  3 active torsions:
REMARK  status: ('A' for Active; 'I' for Inactive)
REMARK    1  A    between atoms: C_2  and  C_4
REMARK    2  A    between atoms: N_8  and  C_9
REMARK    3  A    between atoms: C_9  and  C_10
REMARK                            x       y       z     vdW  Elec       q    Type
REMARK                         _______ _______ _______ _____ _____    ______ ____
ROOT
ATOM      1  C   UNL     1      47.500   5.007  15.148  0.00  0.00    +0.000 A 
ATOM      2  C   UNL     1      47.547   6.222  14.476  0.00  0.00    +0.000 A 
ATOM      3  C   UNL     1      46.955   6.315  13.219  0.00  0.00    +0.000 A 
ATOM      4  C   UNL     1      46.312   5.208  12.658  0.00  0.00    +0.000 A 
ATOM      5  N   UNL     1      45.643   5.428  11.444  0.00  0.00    +0.000 N 
ATOM      6  N   UNL     1      46.281   4.022  13.297  0.00  0.00    +0.000 NA
ATOM      7  C   UNL     1      46.888   3.937  14.511  0.00  0.00    +0.000 A 
ATOM      8  H   UNL     1      46.271   5.829  10.750  0.00  0.00    +0.000 HD
ENDROOT
BRANCH   1  10
ATOM      9  N   UNL     1      47.287   5.097  17.566  0.00  0.00    +0.000 N 
ATOM     10  C   UNL     1      48.086   4.816  16.492  0.00  0.00    +0.000 C 
ATOM     11  O   UNL     1      49.223   4.398  16.635  0.00  0.00    +0.000 OA
ATOM     12  H   UNL     1      47.667   4.874  18.477  0.00  0.00    +0.000 HD
ATOM     13  H   UNL     1      46.284   5.186  17.489  0.00  0.00    +0.000 HD
ENDBRANCH   1  10
BRANCH   5  14
ATOM     14  C   UNL     1      44.605   4.544  10.850  0.00  0.00    +0.000 C 
ATOM     15  C   UNL     1      43.235   5.222  10.752  0.00  0.00    +0.000 C 
ATOM     16  C   UNL     1      43.388   3.981  11.561  0.00  0.00    +0.000 C 
BRANCH  14  17
ATOM     17  C   UNL     1      45.123   3.776   9.608  0.00  0.00    +0.000 A 
ATOM     18  N   UNL     1      45.130   2.425   9.608  0.00  0.00    +0.000 NA
ATOM     19  C   UNL     1      45.682   1.805   8.550  0.00  0.00    +0.000 A 
ATOM     20  C   UNL     1      46.228   2.470   7.481  0.00  0.00    +0.000 A 
ATOM     21  C   UNL     1      46.171   3.839   7.550  0.00  0.00    +0.000 A 
ATOM     22  N   UNL     1      45.641   4.509   8.589  0.00  0.00    +0.000 NA
ENDBRANCH  14  17
ENDBRANCH   5  14
TORSDOF 3
ENDMDL
MODEL 4
REMARK VINA RESULT:    -7.398      3.060      6.541
REMARK INTER + INTRA:          -8.137
REMARK INTER:                  -7.931
REMARK INTRA:                  -0.205
REMARK UNBOUND:                 0.558
REMARK  Name = 
REMARK  3 active torsions:
REMARK  status: ('A' for Active; 'I' for Inactive)
REMARK    1  A    between atoms: C_2  and  C_4
REMARK    2  A    between atoms: N_8  and  C_9
REMARK    3  A    between atoms: C_9  and  C_10
REMARK                            x       y       z     vdW  Elec       q    Type
REMARK                         _______ _______ _______ _____ _____    ______ ____
ROOT
ATOM      1  C   UNL     1      47.116   8.094  13.324  0.00  0.00    +0.000 A 
ATOM      2  C   UNL     1      46.052   8.692  12.659  0.00  0.00    +0.000 A 
ATOM      3  C   UNL     1      45.274   7.914  11.805  0.00  0.00    +0.000 A 
ATOM      4  C   UNL     1      45.553   6.553  11.640  0.00  0.00    +0.000 A 
ATOM      5  N   UNL     1      44.646   5.825  10.854  0.00  0.00    +0.000 N 
ATOM      6  N   UNL     1      46.595   5.975  12.268  0.00  0.00    +0.000 NA
ATOM      7  C   UNL     1      47.364   6.753  13.075  0.00  0.00    +0.000 A 
ATOM      8  H   UNL     1      44.535   6.251   9.937  0.00  0.00    +0.000 HD
ENDROOT
BRANCH   1  10
ATOM      9  N   UNL     1      47.510   9.040  15.527  0.00  0.00    +0.000 N 
ATOM     10  C   UNL     1      47.986   8.835  14.262  0.00  0.00    +0.000 C 
ATOM     11  O   UNL     1      49.095   9.221  13.928  0.00  0.00    +0.000 OA
ATOM     12  H   UNL     1      48.151   9.465  16.184  0.00  0.00    +0.000 HD
ATOM     13  H   UNL     1      46.732   8.518  15.906  0.00  0.00    +0.000 HD
ENDBRANCH   1  10
BRANCH   5  14
ATOM     14  C   UNL     1      44.509   4.345  10.832  0.00  0.00    +0.000 C 
ATOM     15  C   UNL     1      43.122   3.870  11.275  0.00  0.00    +0.000 C 
ATOM     16  C   UNL     1      44.328   3.438  12.035  0.00  0.00    +0.000 C 
BRANCH  14  17
ATOM     17  C   UNL     1      45.114   3.716   9.551  0.00  0.00    +0.000 A 
ATOM     18  N   UNL     1      45.251   2.374   9.461  0.00  0.00    +0.000 NA
ATOM     19  C   UNL     1      45.873   1.883   8.374  0.00  0.00    +0.000 A 
ATOM     20  C   UNL     1      46.365   2.668   7.363  0.00  0.00    +0.000 A 
ATOM     21  C   UNL     1      46.176   4.018   7.521  0.00  0.00    +0.000 A 
ATOM     22  N   UNL     1      45.571   4.562   8.593  0.00  0.00    +0.000 NA
ENDBRANCH  14  17
ENDBRANCH   5  14
TORSDOF 3
ENDMDL
MODEL 5
REMARK VINA RESULT:    -6.524      4.466      6.816
REMARK INTER + INTRA:          -7.110
REMARK INTER:                  -6.908
REMARK INTRA:                  -0.202
REMARK UNBOUND:                 0.558
REMARK  Name = 
REMARK  3 active torsions:
REMARK  status: ('A' for Active; 'I' for Inactive)
REMARK    1  A    between atoms: C_2  and  C_4
REMARK    2  A    between atoms: N_8  and  C_9
REMARK    3  A    between atoms: C_9  and  C_10
REMARK                            x       y       z     vdW  Elec       q    Type
REMARK                         _______ _______ _______ _____ _____    ______ ____
ROOT
ATOM      1  C   UNL     1      46.122   5.615  12.418  0.00  0.00    +0.000 A 
ATOM      2  C   UNL     1      45.905   4.247  12.304  0.00  0.00    +0.000 A 
ATOM      3  C   UNL     1      46.441   3.401  13.272  0.00  0.00    +0.000 A 
ATOM      4  C   UNL     1      47.165   3.928  14.346  0.00  0.00    +0.000 A 
ATOM      5  N   UNL     1      47.564   3.013  15.333  0.00  0.00    +0.000 N 
ATOM      6  N   UNL     1      47.395   5.251  14.450  0.00  0.00    +0.000 NA
ATOM      7  C   UNL     1      46.892   6.062  13.482  0.00  0.00    +0.000 A 
ATOM      8  H   UNL     1      48.092   2.245  14.925  0.00  0.00    +0.000 HD
ENDROOT
BRANCH   1  10
ATOM      9  N   UNL     1      45.079   6.095  10.277  0.00  0.00    +0.000 N 
ATOM     10  C   UNL     1      45.581   6.591  11.448  0.00  0.00    +0.000 C 
ATOM     11  O   UNL     1      45.557   7.785  11.696  0.00  0.00    +0.000 OA
ATOM     12  H   UNL     1      44.628   6.762   9.664  0.00  0.00    +0.000 HD
ATOM     13  H   UNL     1      44.845   5.120  10.156  0.00  0.00    +0.000 HD
ENDBRANCH   1  10
BRANCH   5  14
ATOM     14  C   UNL     1      48.003   3.358  16.711  0.00  0.00    +0.000 C 
ATOM     15  C   UNL     1      47.009   2.899  17.783  0.00  0.00    +0.000 C 
ATOM     16  C   UNL     1      47.334   4.346  17.649  0.00  0.00    +0.000 C 
BRANCH  14  17
ATOM     17  C   UNL     1      49.506   3.060  16.944  0.00  0.00    +0.000 A 
ATOM     18  N   UNL     1      49.974   1.802  16.782  0.00  0.00    +0.000 NA
ATOM     19  C   UNL     1      51.263   1.574  17.093  0.00  0.00    +0.000 A 
ATOM     20  C   UNL     1      52.115   2.544  17.557  0.00  0.00    +0.000 A 
ATOM     21  C   UNL     1      51.567   3.795  17.682  0.00  0.00    +0.000 A 
ATOM     22  N   UNL     1      50.283   4.076  17.396  0.00  0.00    +0.000 NA
ENDBRANCH  14  17
ENDBRANCH   5  14
TORSDOF 3
ENDMDL
MODEL 6
REMARK VINA RESULT:    -6.440      6.180      8.889
REMARK INTER + INTRA:          -7.012
REMARK INTER:                  -6.728
REMARK INTRA:                  -0.283
REMARK UNBOUND:                 0.558
REMARK  Name = 
REMARK  3 active torsions:
REMARK  status: ('A' for Active; 'I' for Inactive)
REMARK    1  A    between atoms: C_2  and  C_4
REMARK    2  A    between atoms: N_8  and  C_9
REMARK    3  A    between atoms: C_9  and  C_10
REMARK                            x       y       z     vdW  Elec       q    Type
REMARK                         _______ _______ _______ _____ _____    ______ ____
ROOT
ATOM      1  C   UNL     1      52.448   1.722  17.795  0.00  0.00    +0.000 A 
ATOM      2  C   UNL     1      52.668   3.039  18.181  0.00  0.00    +0.000 A 
ATOM      3  C   UNL     1      51.680   3.986  17.924  0.00  0.00    +0.000 A 
ATOM      4  C   UNL     1      50.484   3.608  17.307  0.00  0.00    +0.000 A 
ATOM      5  N   UNL     1      49.501   4.605  17.197  0.00  0.00    +0.000 N 
ATOM      6  N   UNL     1      50.274   2.337  16.913  0.00  0.00    +0.000 NA
ATOM      7  C   UNL     1      51.259   1.429  17.143  0.00  0.00    +0.000 A 
ATOM      8  H   UNL     1      49.869   5.428  16.725  0.00  0.00    +0.000 HD
ENDROOT
BRANCH   1  10
ATOM      9  N   UNL     1      52.946  -0.550  18.496  0.00  0.00    +0.000 N 
ATOM     10  C   UNL     1      53.430   0.645  18.038  0.00  0.00    +0.000 C 
ATOM     11  O   UNL     1      54.618   0.806  17.813  0.00  0.00    +0.000 OA
ATOM     12  H   UNL     1      53.615  -1.306  18.570  0.00  0.00    +0.000 HD
ATOM     13  H   UNL     1      51.968  -0.797  18.440  0.00  0.00    +0.000 HD
ENDBRANCH   1  10
BRANCH   5  14
ATOM     14  C   UNL     1      48.056   4.375  16.931  0.00  0.00    +0.000 C 
ATOM     15  C   UNL     1      47.165   4.768  18.113  0.00  0.00    +0.000 C 
ATOM     16  C   UNL     1      47.163   3.362  17.623  0.00  0.00    +0.000 C 
BRANCH  14  17
ATOM     17  C   UNL     1      47.633   4.849  15.517  0.00  0.00    +0.000 A 
ATOM     18  N   UNL     1      46.726   4.137  14.813  0.00  0.00    +0.000 NA
ATOM     19  C   UNL     1      46.467   4.531  13.553  0.00  0.00    +0.000 A 
ATOM     20  C   UNL     1      47.069   5.610  12.958  0.00  0.00    +0.000 A 
ATOM     21  C   UNL     1      47.968   6.288  13.741  0.00  0.00    +0.000 A 
ATOM     22  N   UNL     1      48.272   5.930  15.002  0.00  0.00    +0.000 NA
ENDBRANCH  14  17
ENDBRANCH   5  14
TORSDOF 3
ENDMDL
MODEL 7
REMARK VINA RESULT:    -6.330      3.531      5.322
REMARK INTER + INTRA:          -6.882
REMARK INTER:                  -6.525
REMARK INTRA:                  -0.356
REMARK UNBOUND:                 0.558
REMARK  Name = 
REMARK  3 active torsions:
REMARK  status: ('A' for Active; 'I' for Inactive)
REMARK    1  A    between atoms: C_2  and  C_4
REMARK    2  A    between atoms: N_8  and  C_9
REMARK    3  A    between atoms: C_9  and  C_10
REMARK                            x       y       z     vdW  Elec       q    Type
REMARK                         _______ _______ _______ _____ _____    ______ ____
ROOT
ATOM      1  C   UNL     1      44.653   4.577  11.744  0.00  0.00    +0.000 A 
ATOM      2  C   UNL     1      44.177   5.804  11.296  0.00  0.00    +0.000 A 
ATOM      3  C   UNL     1      44.950   6.942  11.515  0.00  0.00    +0.000 A 
ATOM      4  C   UNL     1      46.188   6.841  12.157  0.00  0.00    +0.000 A 
ATOM      5  N   UNL     1      46.947   8.020  12.227  0.00  0.00    +0.000 N 
ATOM      6  N   UNL     1      46.644   5.658  12.610  0.00  0.00    +0.000 NA
ATOM      7  C   UNL     1      45.866   4.560  12.416  0.00  0.00    +0.000 A 
ATOM      8  H   UNL     1      46.413   8.772  12.658  0.00  0.00    +0.000 HD
ENDROOT
BRANCH   1  10
ATOM      9  N   UNL     1      43.756   2.503  12.634  0.00  0.00    +0.000 N 
ATOM     10  C   UNL     1      43.912   3.314  11.544  0.00  0.00    +0.000 C 
ATOM     11  O   UNL     1      43.436   3.022  10.459  0.00  0.00    +0.000 OA
ATOM     12  H   UNL     1      43.169   1.688  12.506  0.00  0.00    +0.000 HD
ATOM     13  H   UNL     1      43.901   2.828  13.579  0.00  0.00    +0.000 HD
ENDBRANCH   1  10
BRANCH   5  14
ATOM     14  C   UNL     1      48.404   8.099  12.513  0.00  0.00    +0.000 C 
ATOM     15  C   UNL     1      49.108   9.195  11.706  0.00  0.00    +0.000 C 
ATOM     16  C   UNL     1      49.530   7.775  11.548  0.00  0.00    +0.000 C 
BRANCH  14  17
ATOM     17  C   UNL     1      48.715   8.004  14.028  0.00  0.00    +0.000 A 
ATOM     18  N   UNL     1      49.388   6.936  14.510  0.00  0.00    +0.000 NA
ATOM     19  C   UNL     1      49.545   6.849  15.844  0.00  0.00    +0.000 A 
ATOM     20  C   UNL     1      49.063   7.782  16.726  0.00  0.00    +0.000 A 
ATOM     21  C   UNL     1      48.402   8.841  16.158  0.00  0.00    +0.000 A 
ATOM     22  N   UNL     1      48.208   8.972  14.834  0.00  0.00    +0.000 NA
ENDBRANCH  14  17
ENDBRANCH   5  14
TORSDOF 3
ENDMDL
MODEL 8
REMARK VINA RESULT:    -5.863      2.637      3.989
REMARK INTER + INTRA:          -6.333
REMARK INTER:                  -5.929
REMARK INTRA:                  -0.404
REMARK UNBOUND:                 0.558
REMARK  Name = 
REMARK  3 active torsions:
REMARK  status: ('A' for Active; 'I' for Inactive)
REMARK    1  A    between atoms: C_2  and  C_4
REMARK    2  A    between atoms: N_8  and  C_9
REMARK    3  A    between atoms: C_9  and  C_10
REMARK                            x       y       z     vdW  Elec       q    Type
REMARK                         _______ _______ _______ _____ _____    ______ ____
ROOT
ATOM      1  C   UNL     1      44.658   4.206   9.832  0.00  0.00    +0.000 A 
ATOM      2  C   UNL     1      43.637   4.370  10.760  0.00  0.00    +0.000 A 
ATOM      3  C   UNL     1      43.633   5.512  11.556  0.00  0.00    +0.000 A 
ATOM      4  C   UNL     1      44.630   6.480  11.406  0.00  0.00    +0.000 A 
ATOM      5  N   UNL     1      44.478   7.651  12.166  0.00  0.00    +0.000 N 
ATOM      6  N   UNL     1      45.633   6.317  10.521  0.00  0.00    +0.000 NA
ATOM      7  C   UNL     1      45.641   5.183   9.771  0.00  0.00    +0.000 A 
ATOM      8  H   UNL     1      44.379   7.432  13.155  0.00  0.00    +0.000 HD
ENDROOT
BRANCH   1  10
ATOM      9  N   UNL     1      44.571   1.801   9.499  0.00  0.00    +0.000 N 
ATOM     10  C   UNL     1      44.738   3.035   8.933  0.00  0.00    +0.000 C 
ATOM     11  O   UNL     1      44.914   3.167   7.733  0.00  0.00    +0.000 OA
ATOM     12  H   UNL     1      44.535   1.017   8.861  0.00  0.00    +0.000 HD
ATOM     13  H   UNL     1      44.169   1.674  10.416  0.00  0.00    +0.000 HD
ENDBRANCH   1  10
BRANCH   5  14
ATOM     14  C   UNL     1      45.171   8.943  11.920  0.00  0.00    +0.000 C 
ATOM     15  C   UNL     1      44.269  10.156  12.165  0.00  0.00    +0.000 C 
ATOM     16  C   UNL     1      44.859   9.937  10.816  0.00  0.00    +0.000 C 
BRANCH  14  17
ATOM     17  C   UNL     1      46.599   8.971  12.521  0.00  0.00    +0.000 A 
ATOM     18  N   UNL     1      47.590   9.619  11.868  0.00  0.00    +0.000 NA
ATOM     19  C   UNL     1      48.833   9.530  12.376  0.00  0.00    +0.000 A 
ATOM     20  C   UNL     1      49.138   8.826  13.513  0.00  0.00    +0.000 A 
ATOM     21  C   UNL     1      48.077   8.207  14.124  0.00  0.00    +0.000 A 
ATOM     22  N   UNL     1      46.818   8.254  13.652  0.00  0.00    +0.000 NA
ENDBRANCH  14  17
ENDBRANCH   5  14
TORSDOF 3
ENDMDL
MODEL 9
REMARK VINA RESULT:    -5.822      3.502      5.651
REMARK INTER + INTRA:          -6.285
REMARK INTER:                  -6.230
REMARK INTRA:                  -0.054
REMARK UNBOUND:                 0.558
REMARK  Name = 
REMARK  3 active torsions:
REMARK  status: ('A' for Active; 'I' for Inactive)
REMARK    1  A    between atoms: C_2  and  C_4
REMARK    2  A    between atoms: N_8  and  C_9
REMARK    3  A    between atoms: C_9  and  C_10
REMARK                            x       y       z     vdW  Elec       q    Type
REMARK                         _______ _______ _______ _____ _____    ______ ____
ROOT
ATOM      1  C   UNL     1      44.948   4.620  11.445  0.00  0.00    +0.000 A 
ATOM      2  C   UNL     1      45.321   4.072  12.666  0.00  0.00    +0.000 A 
ATOM      3  C   UNL     1      46.335   4.689  13.395  0.00  0.00    +0.000 A 
ATOM      4  C   UNL     1      46.948   5.848  12.910  0.00  0.00    +0.000 A 
ATOM      5  N   UNL     1      47.874   6.465  13.766  0.00  0.00    +0.000 N 
ATOM      6  N   UNL     1      46.604   6.372  11.717  0.00  0.00    +0.000 NA
ATOM      7  C   UNL     1      45.633   5.742  11.002  0.00  0.00    +0.000 A 
ATOM      8  H   UNL     1      48.595   5.809  14.056  0.00  0.00    +0.000 HD
ENDROOT
BRANCH   1  10
ATOM      9  N   UNL     1      43.841   4.416   9.292  0.00  0.00    +0.000 N 
ATOM     10  C   UNL     1      43.873   4.046  10.608  0.00  0.00    +0.000 C 
ATOM     11  O   UNL     1      43.068   3.252  11.067  0.00  0.00    +0.000 OA
ATOM     12  H   UNL     1      43.160   3.946   8.711  0.00  0.00    +0.000 HD
ATOM     13  H   UNL     1      44.628   4.849   8.830  0.00  0.00    +0.000 HD
ENDBRANCH   1  10
BRANCH   5  14
ATOM     14  C   UNL     1      48.368   7.863  13.650  0.00  0.00    +0.000 C 
ATOM     15  C   UNL     1      48.144   8.680  14.925  0.00  0.00    +0.000 C 
ATOM     16  C   UNL     1      47.519   9.121  13.647  0.00  0.00    +0.000 C 
BRANCH  14  17
ATOM     17  C   UNL     1      49.761   7.942  12.975  0.00  0.00    +0.000 A 
ATOM     18  N   UNL     1      50.840   8.308  13.703  0.00  0.00    +0.000 NA
ATOM     19  C   UNL     1      52.007   8.460  13.052  0.00  0.00    +0.000 A 
ATOM     20  C   UNL     1      52.155   8.260  11.704  0.00  0.00    +0.000 A 
ATOM     21  C   UNL     1      51.018   7.879  11.038  0.00  0.00    +0.000 A 
ATOM     22  N   UNL     1      49.824   7.723  11.638  0.00  0.00    +0.000 NA
ENDBRANCH  14  17
ENDBRANCH   5  14
TORSDOF 3
ENDMDL
