MODEL 1
REMARK VINA RESULT:    -8.074      0.000      0.000
REMARK INTER + INTRA:         -12.054
REMARK INTER:                 -10.906
REMARK INTRA:                  -1.149
REMARK UNBOUND:                -1.149
REMARK  Name = 
REMARK  6 active torsions:
REMARK  status: ('A' for Active; 'I' for Inactive)
REMARK    1  A    between atoms: C_2  and  C_25
REMARK    2  A    between atoms: N_3  and  C_4
REMARK    3  A    between atoms: C_4  and  C_5
REMARK    4  A    between atoms: C_8  and  C_9
REMARK    5  A    between atoms: C_9  and  N_10
REMARK    6  A    between atoms: C_11  and  C_13
REMARK                            x       y       z     vdW  Elec       q    Type
REMARK                         _______ _______ _______ _____ _____    ______ ____
ROOT
ATOM      1  C   UNL     1      44.979   5.971  10.928  0.00  0.00    +0.000 A 
ATOM      2  C   UNL     1      44.366   6.653  11.989  0.00  0.00    +0.000 A 
ATOM      3  C   UNL     1      45.124   7.431  12.872  0.00  0.00    +0.000 A 
ATOM      4  C   UNL     1      46.509   7.560  12.700  0.00  0.00    +0.000 A 
ATOM      5  C   UNL     1      47.122   6.874  11.643  0.00  0.00    +0.000 A 
ATOM      6  C   UNL     1      46.364   6.098  10.760  0.00  0.00    +0.000 A 
ENDROOT
BRANCH   1   7
ATOM      7  C   UNL     1      44.175   5.084  10.016  0.00  0.00    +0.000 C 
BRANCH   7  10
ATOM      8  O   UNL     1      44.617   2.315  10.119  0.00  0.00    +0.000 OA
ATOM      9  C   UNL     1      45.119   2.982   9.226  0.00  0.00    +0.000 C 
ATOM     10  N   UNL     1      44.978   4.344   9.073  0.00  0.00    +0.000 N 
ATOM     11  H   UNL     1      45.428   4.796   8.287  0.00  0.00    +0.000 HD
BRANCH   9  12
ATOM     12  C   UNL     1      45.964   2.302   8.184  0.00  0.00    +0.000 C 
ATOM     13  C   UNL     1      46.519   3.027   7.031  0.00  0.00    +0.000 C 
ATOM     14  C   UNL     1      47.260   2.022   6.337  0.00  0.00    +0.000 C 
ATOM     15  C   UNL     1      47.100   0.901   7.057  0.00  0.00    +0.000 C 
ATOM     16  N   UNL     1      46.309   1.035   8.191  0.00  0.00    +0.000 NA
ENDBRANCH   9  12
ENDBRANCH   7  10
ENDBRANCH   1   7
BRANCH   4  17
ATOM     17  C   UNL     1      47.339   8.380  13.656  0.00  0.00    +0.000 C 
BRANCH  17  18
ATOM     18  N   UNL     1      47.690   7.621  14.830  0.00  0.00    +0.000 N 
ATOM     19  C   UNL     1      48.886   6.955  14.920  0.00  0.00    +0.000 C 
ATOM     20  O   UNL     1      49.733   7.015  14.033  0.00  0.00    +0.000 OA
ATOM     21  H   UNL     1      46.932   7.370  15.457  0.00  0.00    +0.000 HD
BRANCH  19  22
ATOM     22  C   UNL     1      49.131   6.210  16.162  0.00  0.00    +0.000 A 
ATOM     23  C   UNL     1      50.161   6.600  17.008  0.00  0.00    +0.000 A 
ATOM     24  S   UNL     1      50.273   5.664  18.430  0.00  0.00    +0.000 S 
ATOM     25  C   UNL     1      48.981   4.670  17.942  0.00  0.00    +0.000 A 
ATOM     26  N   UNL     1      48.569   3.630  18.716  0.00  0.00    +0.000 NA
ATOM     27  C   UNL     1      47.600   2.942  18.212  0.00  0.00    +0.000 A 
ATOM     28  N   UNL     1      47.002   3.202  17.006  0.00  0.00    +0.000 N 
ATOM     29  C   UNL     1      47.369   4.255  16.202  0.00  0.00    +0.000 A 
ATOM     30  O   UNL     1      46.792   4.478  15.143  0.00  0.00    +0.000 OA
ATOM     31  C   UNL     1      48.461   5.059  16.719  0.00  0.00    +0.000 A 
ATOM     32  H   UNL     1      46.242   2.627  16.671  0.00  0.00    +0.000 HD
ENDBRANCH  19  22
ENDBRANCH  17  18
ENDBRANCH   4  17
TORSDOF 6
ENDMDL
MODEL 2
REMARK VINA RESULT:    -7.308      2.067      2.384
REMARK INTER + INTRA:         -11.020
REMARK INTER:                 -10.144
REMARK INTRA:                  -0.877
REMARK UNBOUND:                -1.149
REMARK  Name = 
REMARK  6 active torsions:
REMARK  status: ('A' for Active; 'I' for Inactive)
REMARK    1  A    between atoms: C_2  and  C_25
REMARK    2  A    between atoms: N_3  and  C_4
REMARK    3  A    between atoms: C_4  and  C_5
REMARK    4  A    between atoms: C_8  and  C_9
REMARK    5  A    between atoms: C_9  and  N_10
REMARK    6  A    between atoms: C_11  and  C_13
REMARK                            x       y       z     vdW  Elec       q    Type
REMARK                         _______ _______ _______ _____ _____    ______ ____
ROOT
ATOM      1  C   UNL     1      45.473   4.676  12.263  0.00  0.00    +0.000 A 
ATOM      2  C   UNL     1      46.212   4.429  13.428  0.00  0.00    +0.000 A 
ATOM      3  C   UNL     1      47.044   5.416  13.970  0.00  0.00    +0.000 A 
ATOM      4  C   UNL     1      47.138   6.679  13.369  0.00  0.00    +0.000 A 
ATOM      5  C   UNL     1      46.402   6.923  12.202  0.00  0.00    +0.000 A 
ATOM      6  C   UNL     1      45.570   5.937  11.661  0.00  0.00    +0.000 A 
ENDROOT
BRANCH   1   7
ATOM      7  C   UNL     1      44.628   3.596  11.644  0.00  0.00    +0.000 C 
BRANCH   7  10
ATOM      8  O   UNL     1      44.396   3.985   8.874  0.00  0.00    +0.000 OA
ATOM      9  C   UNL     1      45.128   3.107   9.310  0.00  0.00    +0.000 C 
ATOM     10  N   UNL     1      45.320   2.820  10.644  0.00  0.00    +0.000 N 
ATOM     11  H   UNL     1      45.961   2.078  10.895  0.00  0.00    +0.000 HD
BRANCH   9  12
ATOM     12  C   UNL     1      45.904   2.251   8.348  0.00  0.00    +0.000 C 
ATOM     13  C   UNL     1      46.624   2.821   7.198  0.00  0.00    +0.000 C 
ATOM     14  C   UNL     1      47.229   1.679   6.592  0.00  0.00    +0.000 C 
ATOM     15  C   UNL     1      46.857   0.635   7.347  0.00  0.00    +0.000 C 
ATOM     16  N   UNL     1      46.043   0.948   8.429  0.00  0.00    +0.000 NA
ENDBRANCH   9  12
ENDBRANCH   7  10
ENDBRANCH   1   7
BRANCH   4  17
ATOM     17  C   UNL     1      48.044   7.744  13.933  0.00  0.00    +0.000 C 
BRANCH  17  18
ATOM     18  N   UNL     1      49.241   7.169  14.495  0.00  0.00    +0.000 N 
ATOM     19  C   UNL     1      49.478   7.188  15.846  0.00  0.00    +0.000 C 
ATOM     20  O   UNL     1      48.662   7.646  16.643  0.00  0.00    +0.000 OA
ATOM     21  H   UNL     1      50.013   7.004  13.858  0.00  0.00    +0.000 HD
BRANCH  19  22
ATOM     22  C   UNL     1      50.733   6.578  16.303  0.00  0.00    +0.000 A 
ATOM     23  C   UNL     1      51.942   7.212  16.046  0.00  0.00    +0.000 A 
ATOM     24  S   UNL     1      53.294   6.398  16.692  0.00  0.00    +0.000 S 
ATOM     25  C   UNL     1      52.319   5.141  17.294  0.00  0.00    +0.000 A 
ATOM     26  N   UNL     1      52.868   4.085  17.952  0.00  0.00    +0.000 NA
ATOM     27  C   UNL     1      52.016   3.191  18.329  0.00  0.00    +0.000 A 
ATOM     28  N   UNL     1      50.665   3.258  18.111  0.00  0.00    +0.000 N 
ATOM     29  C   UNL     1      50.064   4.317  17.472  0.00  0.00    +0.000 A 
ATOM     30  O   UNL     1      48.847   4.361  17.321  0.00  0.00    +0.000 OA
ATOM     31  C   UNL     1      50.978   5.350  17.021  0.00  0.00    +0.000 A 
ATOM     32  H   UNL     1      50.051   2.525  18.438  0.00  0.00    +0.000 HD
ENDBRANCH  19  22
ENDBRANCH  17  18
ENDBRANCH   4  17
TORSDOF 6
ENDMDL
MODEL 3
REMARK VINA RESULT:    -7.161      4.774      9.314
REMARK INTER + INTRA:         -10.821
REMARK INTER:                 -10.043
REMARK INTRA:                  -0.778
REMARK UNBOUND:                -1.149
REMARK  Name = 
REMARK  6 active torsions:
REMARK  status: ('A' for Active; 'I' for Inactive)
REMARK    1  A    between atoms: C_2  and  C_25
REMARK    2  A    between atoms: N_3  and  C_4
REMARK    3  A    between atoms: C_4  and  C_5
REMARK    4  A    between atoms: C_8  and  C_9
REMARK    5  A    between atoms: C_9  and  N_10
REMARK    6  A    between atoms: C_11  and  C_13
REMARK                            x       y       z     vdW  Elec       q    Type
REMARK                         _______ _______ _______ _____ _____    ______ ____
ROOT
ATOM      1  C   UNL     1      51.428   2.915  17.769  0.00  0.00    +0.000 A 
ATOM      2  C   UNL     1      50.665   1.933  17.120  0.00  0.00    +0.000 A 
ATOM      3  C   UNL     1      49.306   2.141  16.860  0.00  0.00    +0.000 A 
ATOM      4  C   UNL     1      48.684   3.343  17.225  0.00  0.00    +0.000 A 
ATOM      5  C   UNL     1      49.446   4.322  17.877  0.00  0.00    +0.000 A 
ATOM      6  C   UNL     1      50.805   4.115  18.136  0.00  0.00    +0.000 A 
ENDROOT
BRANCH   1   7
ATOM      7  C   UNL     1      52.874   2.668  18.107  0.00  0.00    +0.000 C 
BRANCH   7  10
ATOM      8  O   UNL     1      54.614   0.937  16.747  0.00  0.00    +0.000 OA
ATOM      9  C   UNL     1      54.031   0.555  17.752  0.00  0.00    +0.000 C 
ATOM     10  N   UNL     1      53.153   1.309  18.499  0.00  0.00    +0.000 N 
ATOM     11  H   UNL     1      52.735   0.895  19.323  0.00  0.00    +0.000 HD
BRANCH   9  12
ATOM     12  C   UNL     1      54.265  -0.845  18.250  0.00  0.00    +0.000 C 
ATOM     13  C   UNL     1      54.936  -1.866  17.430  0.00  0.00    +0.000 C 
ATOM     14  C   UNL     1      54.970  -3.006  18.289  0.00  0.00    +0.000 C 
ATOM     15  C   UNL     1      54.378  -2.612  19.427  0.00  0.00    +0.000 C 
ATOM     16  N   UNL     1      53.932  -1.297  19.437  0.00  0.00    +0.000 NA
ENDBRANCH   9  12
ENDBRANCH   7  10
ENDBRANCH   1   7
BRANCH   4  17
ATOM     17  C   UNL     1      47.216   3.571  16.965  0.00  0.00    +0.000 C 
BRANCH  17  18
ATOM     18  N   UNL     1      47.013   4.586  15.963  0.00  0.00    +0.000 N 
ATOM     19  C   UNL     1      47.065   4.290  14.624  0.00  0.00    +0.000 C 
ATOM     20  O   UNL     1      47.234   3.144  14.217  0.00  0.00    +0.000 OA
ATOM     21  H   UNL     1      47.104   5.551  16.263  0.00  0.00    +0.000 HD
BRANCH  19  22
ATOM     22  C   UNL     1      46.848   5.407  13.695  0.00  0.00    +0.000 A 
ATOM     23  C   UNL     1      47.887   6.285  13.417  0.00  0.00    +0.000 A 
ATOM     24  S   UNL     1      47.482   7.489  12.279  0.00  0.00    +0.000 S 
ATOM     25  C   UNL     1      45.887   6.911  12.153  0.00  0.00    +0.000 A 
ATOM     26  N   UNL     1      44.984   7.524  11.341  0.00  0.00    +0.000 NA
ATOM     27  C   UNL     1      43.804   6.999  11.365  0.00  0.00    +0.000 A 
ATOM     28  N   UNL     1      43.446   5.916  12.125  0.00  0.00    +0.000 N 
ATOM     29  C   UNL     1      44.331   5.251  12.941  0.00  0.00    +0.000 A 
ATOM     30  O   UNL     1      43.985   4.265  13.584  0.00  0.00    +0.000 OA
ATOM     31  C   UNL     1      45.672   5.804  12.957  0.00  0.00    +0.000 A 
ATOM     32  H   UNL     1      42.505   5.550  12.092  0.00  0.00    +0.000 HD
ENDBRANCH  19  22
ENDBRANCH  17  18
ENDBRANCH   4  17
TORSDOF 6
ENDMDL
MODEL 4
REMARK VINA RESULT:    -7.085      1.913      2.172
REMARK INTER + INTRA:         -10.719
REMARK INTER:                  -9.886
REMARK INTRA:                  -0.833
REMARK UNBOUND:                -1.149
REMARK  Name = 
REMARK  6 active torsions:
REMARK  status: ('A' for Active; 'I' for Inactive)
REMARK    1  A    between atoms: C_2  and  C_25
REMARK    2  A    between atoms: N_3  and  C_4
REMARK    3  A    between atoms: C_4  and  C_5
REMARK    4  A    between atoms: C_8  and  C_9
REMARK    5  A    between atoms: C_9  and  N_10
REMARK    6  A    between atoms: C_11  and  C_13
REMARK                            x       y       z     vdW  Elec       q    Type
REMARK                         _______ _______ _______ _____ _____    ______ ____
ROOT
ATOM      1  C   UNL     1      45.327   6.434  11.515  0.00  0.00    +0.000 A 
ATOM      2  C   UNL     1      44.967   7.751  11.833  0.00  0.00    +0.000 A 
ATOM      3  C   UNL     1      45.739   8.508  12.722  0.00  0.00    +0.000 A 
ATOM      4  C   UNL     1      46.899   7.971  13.296  0.00  0.00    +0.000 A 
ATOM      5  C   UNL     1      47.256   6.653  12.981  0.00  0.00    +0.000 A 
ATOM      6  C   UNL     1      46.485   5.897  12.092  0.00  0.00    +0.000 A 
ENDROOT
BRANCH   1   7
ATOM      7  C   UNL     1      44.465   5.597  10.609  0.00  0.00    +0.000 C 
BRANCH   7  10
ATOM      8  O   UNL     1      43.885   2.939   9.921  0.00  0.00    +0.000 OA
ATOM      9  C   UNL     1      44.830   3.514   9.401  0.00  0.00    +0.000 C 
ATOM     10  N   UNL     1      45.214   4.812   9.659  0.00  0.00    +0.000 N 
ATOM     11  H   UNL     1      46.007   5.194   9.160  0.00  0.00    +0.000 HD
BRANCH   9  12
ATOM     12  C   UNL     1      45.667   2.784   8.386  0.00  0.00    +0.000 C 
ATOM     13  C   UNL     1      46.177   3.443   7.173  0.00  0.00    +0.000 C 
ATOM     14  C   UNL     1      46.927   2.411   6.531  0.00  0.00    +0.000 C 
ATOM     15  C   UNL     1      46.811   1.338   7.327  0.00  0.00    +0.000 C 
ATOM     16  N   UNL     1      46.044   1.529   8.469  0.00  0.00    +0.000 NA
ENDBRANCH   9  12
ENDBRANCH   7  10
ENDBRANCH   1   7
BRANCH   4  17
ATOM     17  C   UNL     1      47.728   8.771  14.269  0.00  0.00    +0.000 C 
BRANCH  17  18
ATOM     18  N   UNL     1      48.020   8.010  15.458  0.00  0.00    +0.000 N 
ATOM     19  C   UNL     1      48.276   8.626  16.657  0.00  0.00    +0.000 C 
ATOM     20  O   UNL     1      48.219   9.846  16.787  0.00  0.00    +0.000 OA
ATOM     21  H   UNL     1      48.298   7.043  15.327  0.00  0.00    +0.000 HD
BRANCH  19  22
ATOM     22  C   UNL     1      48.566   7.749  17.798  0.00  0.00    +0.000 A 
ATOM     23  C   UNL     1      47.960   7.988  19.025  0.00  0.00    +0.000 A 
ATOM     24  S   UNL     1      48.363   6.845  20.225  0.00  0.00    +0.000 S 
ATOM     25  C   UNL     1      49.403   6.016  19.163  0.00  0.00    +0.000 A 
ATOM     26  N   UNL     1      50.099   4.924  19.579  0.00  0.00    +0.000 NA
ATOM     27  C   UNL     1      50.871   4.411  18.680  0.00  0.00    +0.000 A 
ATOM     28  N   UNL     1      51.009   4.890  17.403  0.00  0.00    +0.000 N 
ATOM     29  C   UNL     1      50.308   5.975  16.933  0.00  0.00    +0.000 A 
ATOM     30  O   UNL     1      50.432   6.358  15.774  0.00  0.00    +0.000 OA
ATOM     31  C   UNL     1      49.428   6.595  17.906  0.00  0.00    +0.000 A 
ATOM     32  H   UNL     1      51.628   4.437  16.745  0.00  0.00    +0.000 HD
ENDBRANCH  19  22
ENDBRANCH  17  18
ENDBRANCH   4  17
TORSDOF 6
ENDMDL
MODEL 5
REMARK VINA RESULT:    -6.869      4.760      9.320
REMARK INTER + INTRA:         -10.427
REMARK INTER:                  -9.342
REMARK INTRA:                  -1.085
REMARK UNBOUND:                -1.149
REMARK  Name = 
REMARK  6 active torsions:
REMARK  status: ('A' for Active; 'I' for Inactive)
REMARK    1  A    between atoms: C_2  and  C_25
REMARK    2  A    between atoms: N_3  and  C_4
REMARK    3  A    between atoms: C_4  and  C_5
REMARK    4  A    between atoms: C_8  and  C_9
REMARK    5  A    between atoms: C_9  and  N_10
REMARK    6  A    between atoms: C_11  and  C_13
REMARK                            x       y       z     vdW  Elec       q    Type
REMARK                         _______ _______ _______ _____ _____    ______ ____
ROOT
ATOM      1  C   UNL     1      51.404   2.872  17.785  0.00  0.00    +0.000 A 
ATOM      2  C   UNL     1      50.825   4.093  18.160  0.00  0.00    +0.000 A 
ATOM      3  C   UNL     1      49.478   4.359  17.887  0.00  0.00    +0.000 A 
ATOM      4  C   UNL     1      48.676   3.402  17.252  0.00  0.00    +0.000 A 
ATOM      5  C   UNL     1      49.255   2.183  16.874  0.00  0.00    +0.000 A 
ATOM      6  C   UNL     1      50.601   1.917  17.147  0.00  0.00    +0.000 A 
ENDROOT
BRANCH   1   7
ATOM      7  C   UNL     1      52.866   2.608  18.020  0.00  0.00    +0.000 C 
BRANCH   7  10
ATOM      8  O   UNL     1      54.451   0.712  16.690  0.00  0.00    +0.000 OA
ATOM      9  C   UNL     1      53.942   0.437  17.767  0.00  0.00    +0.000 C 
ATOM     10  N   UNL     1      53.144   1.280  18.509  0.00  0.00    +0.000 N 
ATOM     11  H   UNL     1      52.783   0.953  19.397  0.00  0.00    +0.000 HD
BRANCH   9  12
ATOM     12  C   UNL     1      54.182  -0.920  18.369  0.00  0.00    +0.000 C 
ATOM     13  C   UNL     1      55.285  -1.788  17.927  0.00  0.00    +0.000 C 
ATOM     14  C   UNL     1      55.157  -2.934  18.769  0.00  0.00    +0.000 C 
ATOM     15  C   UNL     1      54.100  -2.682  19.556  0.00  0.00    +0.000 C 
ATOM     16  N   UNL     1      53.478  -1.460  19.336  0.00  0.00    +0.000 NA
ENDBRANCH   9  12
ENDBRANCH   7  10
ENDBRANCH   1   7
BRANCH   4  17
ATOM     17  C   UNL     1      47.228   3.685  16.937  0.00  0.00    +0.000 C 
BRANCH  17  18
ATOM     18  N   UNL     1      47.102   4.667  15.890  0.00  0.00    +0.000 N 
ATOM     19  C   UNL     1      47.135   4.309  14.566  0.00  0.00    +0.000 C 
ATOM     20  O   UNL     1      47.220   3.136  14.210  0.00  0.00    +0.000 OA
ATOM     21  H   UNL     1      47.264   5.635  16.147  0.00  0.00    +0.000 HD
BRANCH  19  22
ATOM     22  C   UNL     1      47.003   5.396  13.587  0.00  0.00    +0.000 A 
ATOM     23  C   UNL     1      45.977   5.363  12.653  0.00  0.00    +0.000 A 
ATOM     24  S   UNL     1      45.935   6.727  11.629  0.00  0.00    +0.000 S 
ATOM     25  C   UNL     1      47.319   7.389  12.365  0.00  0.00    +0.000 A 
ATOM     26  N   UNL     1      47.840   8.570  11.936  0.00  0.00    +0.000 NA
ATOM     27  C   UNL     1      48.907   8.940  12.563  0.00  0.00    +0.000 A 
ATOM     28  N   UNL     1      49.497   8.238  13.581  0.00  0.00    +0.000 N 
ATOM     29  C   UNL     1      48.992   7.053  14.063  0.00  0.00    +0.000 A 
ATOM     30  O   UNL     1      49.529   6.467  14.997  0.00  0.00    +0.000 OA
ATOM     31  C   UNL     1      47.795   6.587  13.388  0.00  0.00    +0.000 A 
ATOM     32  H   UNL     1      50.330   8.588  14.035  0.00  0.00    +0.000 HD
ENDBRANCH  19  22
ENDBRANCH  17  18
ENDBRANCH   4  17
TORSDOF 6
ENDMDL
MODEL 6
REMARK VINA RESULT:    -6.715      3.961      8.348
REMARK INTER + INTRA:         -10.220
REMARK INTER:                  -9.127
REMARK INTRA:                  -1.093
REMARK UNBOUND:                -1.149
REMARK  Name = 
REMARK  6 active torsions:
REMARK  status: ('A' for Active; 'I' for Inactive)
REMARK    1  A    between atoms: C_2  and  C_25
REMARK    2  A    between atoms: N_3  and  C_4
REMARK    3  A    between atoms: C_4  and  C_5
REMARK    4  A    between atoms: C_8  and  C_9
REMARK    5  A    between atoms: C_9  and  N_10
REMARK    6  A    between atoms: C_11  and  C_13
REMARK                            x       y       z     vdW  Elec       q    Type
REMARK                         _______ _______ _______ _____ _____    ______ ____
ROOT
ATOM      1  C   UNL     1      49.745   4.446  17.564  0.00  0.00    +0.000 A 
ATOM      2  C   UNL     1      50.523   5.535  17.147  0.00  0.00    +0.000 A 
ATOM      3  C   UNL     1      50.047   6.424  16.176  0.00  0.00    +0.000 A 
ATOM      4  C   UNL     1      48.773   6.254  15.616  0.00  0.00    +0.000 A 
ATOM      5  C   UNL     1      47.998   5.163  16.030  0.00  0.00    +0.000 A 
ATOM      6  C   UNL     1      48.473   4.276  17.001  0.00  0.00    +0.000 A 
ENDROOT
BRANCH   1   7
ATOM      7  C   UNL     1      50.279   3.453  18.560  0.00  0.00    +0.000 C 
BRANCH   7  10
ATOM      8  O   UNL     1      51.018   1.080  17.257  0.00  0.00    +0.000 OA
ATOM      9  C   UNL     1      51.877   1.857  17.648  0.00  0.00    +0.000 C 
ATOM     10  N   UNL     1      51.639   3.047  18.301  0.00  0.00    +0.000 N 
ATOM     11  H   UNL     1      52.427   3.622  18.569  0.00  0.00    +0.000 HD
BRANCH   9  12
ATOM     12  C   UNL     1      53.326   1.530  17.414  0.00  0.00    +0.000 C 
ATOM     13  C   UNL     1      54.392   2.530  17.587  0.00  0.00    +0.000 C 
ATOM     14  C   UNL     1      55.581   1.795  17.296  0.00  0.00    +0.000 C 
ATOM     15  C   UNL     1      55.169   0.552  17.003  0.00  0.00    +0.000 C 
ATOM     16  N   UNL     1      53.796   0.356  17.062  0.00  0.00    +0.000 NA
ENDBRANCH   9  12
ENDBRANCH   7  10
ENDBRANCH   1   7
BRANCH   4  17
ATOM     17  C   UNL     1      48.257   7.195  14.556  0.00  0.00    +0.000 C 
BRANCH  17  18
ATOM     18  N   UNL     1      47.026   6.714  13.982  0.00  0.00    +0.000 N 
ATOM     19  C   UNL     1      46.811   6.736  12.628  0.00  0.00    +0.000 C 
ATOM     20  O   UNL     1      47.672   7.116  11.838  0.00  0.00    +0.000 OA
ATOM     21  H   UNL     1      46.234   6.619  14.610  0.00  0.00    +0.000 HD
BRANCH  19  22
ATOM     22  C   UNL     1      45.516   6.225  12.159  0.00  0.00    +0.000 A 
ATOM     23  C   UNL     1      44.591   7.097  11.600  0.00  0.00    +0.000 A 
ATOM     24  S   UNL     1      43.166   6.332  11.059  0.00  0.00    +0.000 S 
ATOM     25  C   UNL     1      43.712   4.813  11.598  0.00  0.00    +0.000 A 
ATOM     26  N   UNL     1      42.939   3.703  11.456  0.00  0.00    +0.000 NA
ATOM     27  C   UNL     1      43.463   2.624  11.935  0.00  0.00    +0.000 A 
ATOM     28  N   UNL     1      44.691   2.555  12.540  0.00  0.00    +0.000 N 
ATOM     29  C   UNL     1      45.516   3.646  12.684  0.00  0.00    +0.000 A 
ATOM     30  O   UNL     1      46.622   3.541  13.202  0.00  0.00    +0.000 OA
ATOM     31  C   UNL     1      44.971   4.887  12.168  0.00  0.00    +0.000 A 
ATOM     32  H   UNL     1      45.047   1.675  12.889  0.00  0.00    +0.000 HD
ENDBRANCH  19  22
ENDBRANCH  17  18
ENDBRANCH   4  17
TORSDOF 6
ENDMDL
MODEL 7
REMARK VINA RESULT:    -6.517      3.477      7.953
REMARK INTER + INTRA:          -9.952
REMARK INTER:                  -9.043
REMARK INTRA:                  -0.909
REMARK UNBOUND:                -1.149
REMARK  Name = 
REMARK  6 active torsions:
REMARK  status: ('A' for Active; 'I' for Inactive)
REMARK    1  A    between atoms: C_2  and  C_25
REMARK    2  A    between atoms: N_3  and  C_4
REMARK    3  A    between atoms: C_4  and  C_5
REMARK    4  A    between atoms: C_8  and  C_9
REMARK    5  A    between atoms: C_9  and  N_10
REMARK    6  A    between atoms: C_11  and  C_13
REMARK                            x       y       z     vdW  Elec       q    Type
REMARK                         _______ _______ _______ _____ _____    ______ ____
ROOT
ATOM      1  C   UNL     1      49.828   7.124  15.930  0.00  0.00    +0.000 A 
ATOM      2  C   UNL     1      50.727   7.512  14.926  0.00  0.00    +0.000 A 
ATOM      3  C   UNL     1      50.270   7.826  13.641  0.00  0.00    +0.000 A 
ATOM      4  C   UNL     1      48.902   7.779  13.338  0.00  0.00    +0.000 A 
ATOM      5  C   UNL     1      48.006   7.387  14.341  0.00  0.00    +0.000 A 
ATOM      6  C   UNL     1      48.462   7.075  15.625  0.00  0.00    +0.000 A 
ENDROOT
BRANCH   1   7
ATOM      7  C   UNL     1      50.323   6.725  17.294  0.00  0.00    +0.000 C 
BRANCH   7  10
ATOM      8  O   UNL     1      49.077   4.267  17.827  0.00  0.00    +0.000 OA
ATOM      9  C   UNL     1      50.276   4.307  17.588  0.00  0.00    +0.000 C 
ATOM     10  N   UNL     1      50.996   5.450  17.316  0.00  0.00    +0.000 N 
ATOM     11  H   UNL     1      51.986   5.366  17.118  0.00  0.00    +0.000 HD
BRANCH   9  12
ATOM     12  C   UNL     1      51.066   3.028  17.574  0.00  0.00    +0.000 C 
ATOM     13  C   UNL     1      52.446   2.955  18.079  0.00  0.00    +0.000 C 
ATOM     14  C   UNL     1      52.788   1.580  17.905  0.00  0.00    +0.000 C 
ATOM     15  C   UNL     1      51.700   1.009  17.365  0.00  0.00    +0.000 C 
ATOM     16  N   UNL     1      50.630   1.866  17.146  0.00  0.00    +0.000 NA
ENDBRANCH   9  12
ENDBRANCH   7  10
ENDBRANCH   1   7
BRANCH   4  17
ATOM     17  C   UNL     1      48.401   8.098  11.952  0.00  0.00    +0.000 C 
BRANCH  17  18
ATOM     18  N   UNL     1      47.673   6.988  11.390  0.00  0.00    +0.000 N 
ATOM     19  C   UNL     1      46.301   6.974  11.359  0.00  0.00    +0.000 C 
ATOM     20  O   UNL     1      45.632   7.923  11.758  0.00  0.00    +0.000 OA
ATOM     21  H   UNL     1      48.182   6.118  11.274  0.00  0.00    +0.000 HD
BRANCH  19  22
ATOM     22  C   UNL     1      45.669   5.788  10.767  0.00  0.00    +0.000 A 
ATOM     23  C   UNL     1      45.814   5.534   9.410  0.00  0.00    +0.000 A 
ATOM     24  S   UNL     1      45.064   4.089   8.898  0.00  0.00    +0.000 S 
ATOM     25  C   UNL     1      44.476   3.776  10.464  0.00  0.00    +0.000 A 
ATOM     26  N   UNL     1      43.716   2.677  10.717  0.00  0.00    +0.000 NA
ATOM     27  C   UNL     1      43.312   2.579  11.940  0.00  0.00    +0.000 A 
ATOM     28  N   UNL     1      43.602   3.478  12.933  0.00  0.00    +0.000 N 
ATOM     29  C   UNL     1      44.385   4.590  12.728  0.00  0.00    +0.000 A 
ATOM     30  O   UNL     1      44.650   5.358  13.647  0.00  0.00    +0.000 OA
ATOM     31  C   UNL     1      44.860   4.752  11.367  0.00  0.00    +0.000 A 
ATOM     32  H   UNL     1      43.259   3.339  13.873  0.00  0.00    +0.000 HD
ENDBRANCH  19  22
ENDBRANCH  17  18
ENDBRANCH   4  17
TORSDOF 6
ENDMDL
MODEL 8
REMARK VINA RESULT:    -6.402      3.201      8.413
REMARK INTER + INTRA:          -9.797
REMARK INTER:                  -8.859
REMARK INTRA:                  -0.938
REMARK UNBOUND:                -1.149
REMARK  Name = 
REMARK  6 active torsions:
REMARK  status: ('A' for Active; 'I' for Inactive)
REMARK    1  A    between atoms: C_2  and  C_25
REMARK    2  A    between atoms: N_3  and  C_4
REMARK    3  A    between atoms: C_4  and  C_5
REMARK    4  A    between atoms: C_8  and  C_9
REMARK    5  A    between atoms: C_9  and  N_10
REMARK    6  A    between atoms: C_11  and  C_13
REMARK                            x       y       z     vdW  Elec       q    Type
REMARK                         _______ _______ _______ _____ _____    ______ ____
ROOT
ATOM      1  C   UNL     1      50.083   7.468  15.542  0.00  0.00    +0.000 A 
ATOM      2  C   UNL     1      50.593   7.484  14.235  0.00  0.00    +0.000 A 
ATOM      3  C   UNL     1      49.735   7.615  13.136  0.00  0.00    +0.000 A 
ATOM      4  C   UNL     1      48.353   7.752  13.321  0.00  0.00    +0.000 A 
ATOM      5  C   UNL     1      47.845   7.731  14.626  0.00  0.00    +0.000 A 
ATOM      6  C   UNL     1      48.701   7.602  15.724  0.00  0.00    +0.000 A 
ENDROOT
BRANCH   1   7
ATOM      7  C   UNL     1      50.995   7.264  16.721  0.00  0.00    +0.000 C 
BRANCH   7  10
ATOM      8  O   UNL     1      49.842   5.272  18.327  0.00  0.00    +0.000 OA
ATOM      9  C   UNL     1      50.838   5.023  17.663  0.00  0.00    +0.000 C 
ATOM     10  N   UNL     1      51.492   5.916  16.842  0.00  0.00    +0.000 N 
ATOM     11  H   UNL     1      52.303   5.598  16.326  0.00  0.00    +0.000 HD
BRANCH   9  12
ATOM     12  C   UNL     1      51.427   3.640  17.711  0.00  0.00    +0.000 C 
ATOM     13  C   UNL     1      50.664   2.450  17.304  0.00  0.00    +0.000 C 
ATOM     14  C   UNL     1      51.599   1.385  17.478  0.00  0.00    +0.000 C 
ATOM     15  C   UNL     1      52.721   1.967  17.929  0.00  0.00    +0.000 C 
ATOM     16  N   UNL     1      52.650   3.345  18.086  0.00  0.00    +0.000 NA
ENDBRANCH   9  12
ENDBRANCH   7  10
ENDBRANCH   1   7
BRANCH   4  17
ATOM     17  C   UNL     1      47.419   7.875  12.143  0.00  0.00    +0.000 C 
BRANCH  17  18
ATOM     18  N   UNL     1      46.756   6.626  11.867  0.00  0.00    +0.000 N 
ATOM     19  C   UNL     1      45.394   6.556  11.718  0.00  0.00    +0.000 C 
ATOM     20  O   UNL     1      44.683   7.556  11.759  0.00  0.00    +0.000 OA
ATOM     21  H   UNL     1      47.279   5.777  12.058  0.00  0.00    +0.000 HD
BRANCH  19  22
ATOM     22  C   UNL     1      44.830   5.227  11.445  0.00  0.00    +0.000 A 
ATOM     23  C   UNL     1      44.085   4.580  12.422  0.00  0.00    +0.000 A 
ATOM     24  S   UNL     1      43.459   3.074  11.922  0.00  0.00    +0.000 S 
ATOM     25  C   UNL     1      44.203   3.209  10.398  0.00  0.00    +0.000 A 
ATOM     26  N   UNL     1      44.081   2.221   9.472  0.00  0.00    +0.000 NA
ATOM     27  C   UNL     1      44.720   2.440   8.372  0.00  0.00    +0.000 A 
ATOM     28  N   UNL     1      45.468   3.559   8.112  0.00  0.00    +0.000 N 
ATOM     29  C   UNL     1      45.600   4.593   9.009  0.00  0.00    +0.000 A 
ATOM     30  O   UNL     1      46.252   5.595   8.733  0.00  0.00    +0.000 OA
ATOM     31  C   UNL     1      44.905   4.395  10.267  0.00  0.00    +0.000 A 
ATOM     32  H   UNL     1      45.940   3.672   7.226  0.00  0.00    +0.000 HD
ENDBRANCH  19  22
ENDBRANCH  17  18
ENDBRANCH   4  17
TORSDOF 6
ENDMDL
MODEL 9
REMARK VINA RESULT:    -6.399      4.804      7.408
REMARK INTER + INTRA:          -9.792
REMARK INTER:                  -8.927
REMARK INTRA:                  -0.865
REMARK UNBOUND:                -1.149
REMARK  Name = 
REMARK  6 active torsions:
REMARK  status: ('A' for Active; 'I' for Inactive)
REMARK    1  A    between atoms: C_2  and  C_25
REMARK    2  A    between atoms: N_3  and  C_4
REMARK    3  A    between atoms: C_4  and  C_5
REMARK    4  A    between atoms: C_8  and  C_9
REMARK    5  A    between atoms: C_9  and  N_10
REMARK    6  A    between atoms: C_11  and  C_13
REMARK                            x       y       z     vdW  Elec       q    Type
REMARK                         _______ _______ _______ _____ _____    ______ ____
ROOT
ATOM      1  C   UNL     1      50.289   8.925  11.388  0.00  0.00    +0.000 A 
ATOM      2  C   UNL     1      49.866   7.626  11.705  0.00  0.00    +0.000 A 
ATOM      3  C   UNL     1      48.590   7.399  12.235  0.00  0.00    +0.000 A 
ATOM      4  C   UNL     1      47.703   8.465  12.441  0.00  0.00    +0.000 A 
ATOM      5  C   UNL     1      48.129   9.763  12.129  0.00  0.00    +0.000 A 
ATOM      6  C   UNL     1      49.403   9.989  11.598  0.00  0.00    +0.000 A 
ENDROOT
BRANCH   1   7
ATOM      7  C   UNL     1      51.682   9.178  10.878  0.00  0.00    +0.000 C 
BRANCH   7  10
ATOM      8  O   UNL     1      52.765   9.089   8.290  0.00  0.00    +0.000 OA
ATOM      9  C   UNL     1      52.801   8.097   9.004  0.00  0.00    +0.000 C 
ATOM     10  N   UNL     1      52.301   8.018  10.285  0.00  0.00    +0.000 N 
ATOM     11  H   UNL     1      52.397   7.147  10.792  0.00  0.00    +0.000 HD
BRANCH   9  12
ATOM     12  C   UNL     1      53.438   6.839   8.482  0.00  0.00    +0.000 C 
ATOM     13  C   UNL     1      52.955   6.162   7.268  0.00  0.00    +0.000 C 
ATOM     14  C   UNL     1      53.848   5.056   7.131  0.00  0.00    +0.000 C 
ATOM     15  C   UNL     1      54.696   5.154   8.165  0.00  0.00    +0.000 C 
ATOM     16  N   UNL     1      54.473   6.231   9.014  0.00  0.00    +0.000 NA
ENDBRANCH   9  12
ENDBRANCH   7  10
ENDBRANCH   1   7
BRANCH   4  17
ATOM     17  C   UNL     1      46.333   8.234  13.029  0.00  0.00    +0.000 C 
BRANCH  17  18
ATOM     18  N   UNL     1      45.859   6.904  12.744  0.00  0.00    +0.000 N 
ATOM     19  C   UNL     1      44.939   6.669  11.754  0.00  0.00    +0.000 C 
ATOM     20  O   UNL     1      44.516   7.568  11.031  0.00  0.00    +0.000 OA
ATOM     21  H   UNL     1      46.008   6.201  13.461  0.00  0.00    +0.000 HD
BRANCH  19  22
ATOM     22  C   UNL     1      44.525   5.273  11.559  0.00  0.00    +0.000 A 
ATOM     23  C   UNL     1      43.818   4.617  12.559  0.00  0.00    +0.000 A 
ATOM     24  S   UNL     1      43.368   3.023  12.148  0.00  0.00    +0.000 S 
ATOM     25  C   UNL     1      44.146   3.135  10.639  0.00  0.00    +0.000 A 
ATOM     26  N   UNL     1      44.158   2.080   9.780  0.00  0.00    +0.000 NA
ATOM     27  C   UNL     1      44.808   2.292   8.685  0.00  0.00    +0.000 A 
ATOM     28  N   UNL     1      45.444   3.464   8.369  0.00  0.00    +0.000 N 
ATOM     29  C   UNL     1      45.438   4.563   9.195  0.00  0.00    +0.000 A 
ATOM     30  O   UNL     1      45.992   5.608   8.867  0.00  0.00    +0.000 OA
ATOM     31  C   UNL     1      44.726   4.377  10.445  0.00  0.00    +0.000 A 
ATOM     32  H   UNL     1      45.932   3.567   7.490  0.00  0.00    +0.000 HD
ENDBRANCH  19  22
ENDBRANCH  17  18
ENDBRANCH   4  17
TORSDOF 6
ENDMDL
