MODEL 1
REMARK VINA RESULT:    -8.803      0.000      0.000
REMARK INTER + INTRA:         -12.441
REMARK INTER:                 -11.891
REMARK INTRA:                  -0.550
REMARK UNBOUND:                -0.550
REMARK  Name = 
REMARK  6 active torsions:
REMARK  status: ('A' for Active; 'I' for Inactive)
REMARK    1  A    between atoms: C_2  and  C_3
REMARK    2  A    between atoms: C_5  and  C_6
REMARK    3  A    between atoms: C_6  and  N_7
REMARK    4  A    between atoms: C_8  and  C_10
REMARK    5  A    between atoms: C_22  and  O_23
REMARK    6  A    between atoms: O_23  and  C_24
REMARK                            x       y       z     vdW  Elec       q    Type
REMARK                         _______ _______ _______ _____ _____    ______ ____
ROOT
ATOM      1  C   UNL     1      44.687   4.627  11.781  0.00  0.00    +0.000 A 
ATOM      2  C   UNL     1      45.259   5.640  12.568  0.00  0.00    +0.000 A 
ATOM      3  C   UNL     1      46.097   6.613  12.006  0.00  0.00    +0.000 A 
ATOM      4  C   UNL     1      46.319   6.590  10.625  0.00  0.00    +0.000 A 
ATOM      5  C   UNL     1      45.724   5.604   9.827  0.00  0.00    +0.000 A 
ATOM      6  C   UNL     1      44.894   4.628  10.394  0.00  0.00    +0.000 A 
ENDROOT
BRANCH   1   8
ATOM      7  N   UNL     1      43.413   2.726  13.003  0.00  0.00    +0.000 NA
ATOM      8  C   UNL     1      43.966   3.593  12.465  0.00  0.00    +0.000 C 
ENDBRANCH   1   8
BRANCH   3   9
ATOM      9  C   UNL     1      46.716   7.667  12.887  0.00  0.00    +0.000 C 
BRANCH   9  10
ATOM     10  N   UNL     1      47.167   7.099  14.129  0.00  0.00    +0.000 N 
ATOM     11  C   UNL     1      48.482   6.757  14.318  0.00  0.00    +0.000 C 
ATOM     12  O   UNL     1      49.335   6.956  13.457  0.00  0.00    +0.000 OA
ATOM     13  H   UNL     1      46.461   6.711  14.747  0.00  0.00    +0.000 HD
BRANCH  11  14
ATOM     14  C   UNL     1      48.830   6.198  15.630  0.00  0.00    +0.000 A 
ATOM     15  C   UNL     1      49.848   6.779  16.375  0.00  0.00    +0.000 A 
ATOM     16  S   UNL     1      50.086   6.047  17.897  0.00  0.00    +0.000 S 
ATOM     17  C   UNL     1      48.873   4.894  17.593  0.00  0.00    +0.000 A 
ATOM     18  N   UNL     1      48.579   3.932  18.508  0.00  0.00    +0.000 NA
ATOM     19  C   UNL     1      47.659   3.105  18.137  0.00  0.00    +0.000 A 
ATOM     20  N   UNL     1      47.002   3.157  16.934  0.00  0.00    +0.000 N 
ATOM     21  C   UNL     1      47.246   4.127  15.991  0.00  0.00    +0.000 A 
ATOM     22  O   UNL     1      46.612   4.172  14.942  0.00  0.00    +0.000 OA
ATOM     23  C   UNL     1      48.282   5.075  16.355  0.00  0.00    +0.000 A 
ATOM     24  H   UNL     1      46.285   2.484  16.707  0.00  0.00    +0.000 HD
ENDBRANCH  11  14
ENDBRANCH   9  10
ENDBRANCH   3   9
BRANCH   6  25
ATOM     25  O   UNL     1      44.451   3.657   9.519  0.00  0.00    +0.000 OA
BRANCH  25  26
ATOM     26  C   UNL     1      45.332   3.154   8.567  0.00  0.00    +0.000 A 
ATOM     27  C   UNL     1      45.614   1.802   8.651  0.00  0.00    +0.000 A 
ATOM     28  C   UNL     1      46.435   1.258   7.674  0.00  0.00    +0.000 A 
ATOM     29 CL   UNL     1      46.828  -0.417   7.717  0.00  0.00    +0.000 Cl
ATOM     30  C   UNL     1      46.938   2.052   6.651  0.00  0.00    +0.000 A 
ATOM     31  C   UNL     1      46.615   3.396   6.669  0.00  0.00    +0.000 A 
ATOM     32  N   UNL     1      45.846   3.972   7.620  0.00  0.00    +0.000 NA
ENDBRANCH  25  26
ENDBRANCH   6  25
TORSDOF 6
ENDMDL
MODEL 2
REMARK VINA RESULT:    -8.609      1.722      2.305
REMARK INTER + INTRA:         -12.179
REMARK INTER:                 -11.347
REMARK INTRA:                  -0.832
REMARK UNBOUND:                -0.550
REMARK  Name = 
REMARK  6 active torsions:
REMARK  status: ('A' for Active; 'I' for Inactive)
REMARK    1  A    between atoms: C_2  and  C_3
REMARK    2  A    between atoms: C_5  and  C_6
REMARK    3  A    between atoms: C_6  and  N_7
REMARK    4  A    between atoms: C_8  and  C_10
REMARK    5  A    between atoms: C_22  and  O_23
REMARK    6  A    between atoms: O_23  and  C_24
REMARK                            x       y       z     vdW  Elec       q    Type
REMARK                         _______ _______ _______ _____ _____    ______ ____
ROOT
ATOM      1  C   UNL     1      44.537   4.186  11.085  0.00  0.00    +0.000 A 
ATOM      2  C   UNL     1      45.091   4.980  12.102  0.00  0.00    +0.000 A 
ATOM      3  C   UNL     1      46.007   6.000  11.812  0.00  0.00    +0.000 A 
ATOM      4  C   UNL     1      46.328   6.253  10.473  0.00  0.00    +0.000 A 
ATOM      5  C   UNL     1      45.753   5.489   9.450  0.00  0.00    +0.000 A 
ATOM      6  C   UNL     1      44.844   4.464   9.745  0.00  0.00    +0.000 A 
ENDROOT
BRANCH   1   8
ATOM      7  N   UNL     1      43.035   2.193  11.792  0.00  0.00    +0.000 NA
ATOM      8  C   UNL     1      43.726   3.074  11.488  0.00  0.00    +0.000 C 
ENDBRANCH   1   8
BRANCH   3   9
ATOM      9  C   UNL     1      46.602   6.812  12.933  0.00  0.00    +0.000 C 
BRANCH   9  10
ATOM     10  N   UNL     1      46.731   6.022  14.128  0.00  0.00    +0.000 N 
ATOM     11  C   UNL     1      47.942   5.871  14.754  0.00  0.00    +0.000 C 
ATOM     12  O   UNL     1      48.957   6.433  14.349  0.00  0.00    +0.000 OA
ATOM     13  H   UNL     1      45.980   5.371  14.337  0.00  0.00    +0.000 HD
BRANCH  11  14
ATOM     14  C   UNL     1      47.951   5.054  15.973  0.00  0.00    +0.000 A 
ATOM     15  C   UNL     1      47.458   3.756  15.933  0.00  0.00    +0.000 A 
ATOM     16  S   UNL     1      47.595   2.926  17.416  0.00  0.00    +0.000 S 
ATOM     17  C   UNL     1      48.271   4.288  18.179  0.00  0.00    +0.000 A 
ATOM     18  N   UNL     1      48.609   4.255  19.496  0.00  0.00    +0.000 NA
ATOM     19  C   UNL     1      49.083   5.365  19.953  0.00  0.00    +0.000 A 
ATOM     20  N   UNL     1      49.256   6.505  19.211  0.00  0.00    +0.000 N 
ATOM     21  C   UNL     1      48.957   6.576  17.871  0.00  0.00    +0.000 A 
ATOM     22  O   UNL     1      49.162   7.597  17.223  0.00  0.00    +0.000 OA
ATOM     23  C   UNL     1      48.406   5.356  17.310  0.00  0.00    +0.000 A 
ATOM     24  H   UNL     1      49.642   7.340  19.627  0.00  0.00    +0.000 HD
ENDBRANCH  11  14
ENDBRANCH   9  10
ENDBRANCH   3   9
BRANCH   6  25
ATOM     25  O   UNL     1      44.426   3.722   8.659  0.00  0.00    +0.000 OA
BRANCH  25  26
ATOM     26  C   UNL     1      45.303   2.801   8.093  0.00  0.00    +0.000 A 
ATOM     27  C   UNL     1      45.966   3.211   6.951  0.00  0.00    +0.000 A 
ATOM     28  C   UNL     1      46.897   2.340   6.403  0.00  0.00    +0.000 A 
ATOM     29 CL   UNL     1      47.758   2.786   4.981  0.00  0.00    +0.000 Cl
ATOM     30  C   UNL     1      47.149   1.110   6.998  0.00  0.00    +0.000 A 
ATOM     31  C   UNL     1      46.417   0.784   8.125  0.00  0.00    +0.000 A 
ATOM     32  N   UNL     1      45.478   1.590   8.671  0.00  0.00    +0.000 NA
ENDBRANCH  25  26
ENDBRANCH   6  25
TORSDOF 6
ENDMDL
MODEL 3
REMARK VINA RESULT:    -7.836      3.590      8.172
REMARK INTER + INTRA:         -11.135
REMARK INTER:                  -9.808
REMARK INTRA:                  -1.327
REMARK UNBOUND:                -0.550
REMARK  Name = 
REMARK  6 active torsions:
REMARK  status: ('A' for Active; 'I' for Inactive)
REMARK    1  A    between atoms: C_2  and  C_3
REMARK    2  A    between atoms: C_5  and  C_6
REMARK    3  A    between atoms: C_6  and  N_7
REMARK    4  A    between atoms: C_8  and  C_10
REMARK    5  A    between atoms: C_22  and  O_23
REMARK    6  A    between atoms: O_23  and  C_24
REMARK                            x       y       z     vdW  Elec       q    Type
REMARK                         _______ _______ _______ _____ _____    ______ ____
ROOT
ATOM      1  C   UNL     1      48.236   5.083  16.343  0.00  0.00    +0.000 A 
ATOM      2  C   UNL     1      47.896   5.615  15.088  0.00  0.00    +0.000 A 
ATOM      3  C   UNL     1      48.609   6.688  14.535  0.00  0.00    +0.000 A 
ATOM      4  C   UNL     1      49.709   7.195  15.236  0.00  0.00    +0.000 A 
ATOM      5  C   UNL     1      50.075   6.648  16.472  0.00  0.00    +0.000 A 
ATOM      6  C   UNL     1      49.355   5.581  17.026  0.00  0.00    +0.000 A 
ENDROOT
BRANCH   1   8
ATOM      7  N   UNL     1      46.689   3.258  17.345  0.00  0.00    +0.000 NA
ATOM      8  C   UNL     1      47.361   4.089  16.893  0.00  0.00    +0.000 C 
ENDBRANCH   1   8
BRANCH   3   9
ATOM      9  C   UNL     1      48.198   7.250  13.199  0.00  0.00    +0.000 C 
BRANCH   9  10
ATOM     10  N   UNL     1      47.448   6.282  12.443  0.00  0.00    +0.000 N 
ATOM     11  C   UNL     1      46.367   6.654  11.685  0.00  0.00    +0.000 C 
ATOM     12  O   UNL     1      46.018   7.827  11.585  0.00  0.00    +0.000 OA
ATOM     13  H   UNL     1      47.564   5.305  12.695  0.00  0.00    +0.000 HD
BRANCH  11  14
ATOM     14  C   UNL     1      45.687   5.584  10.946  0.00  0.00    +0.000 A 
ATOM     15  C   UNL     1      45.752   5.560   9.559  0.00  0.00    +0.000 A 
ATOM     16  S   UNL     1      44.959   4.221   8.861  0.00  0.00    +0.000 S 
ATOM     17  C   UNL     1      44.457   3.654  10.384  0.00  0.00    +0.000 A 
ATOM     18  N   UNL     1      43.702   2.528  10.495  0.00  0.00    +0.000 NA
ATOM     19  C   UNL     1      43.366   2.229  11.705  0.00  0.00    +0.000 A 
ATOM     20  N   UNL     1      43.723   2.950  12.816  0.00  0.00    +0.000 N 
ATOM     21  C   UNL     1      44.508   4.076  12.754  0.00  0.00    +0.000 A 
ATOM     22  O   UNL     1      44.846   4.677  13.769  0.00  0.00    +0.000 OA
ATOM     23  C   UNL     1      44.902   4.465  11.413  0.00  0.00    +0.000 A 
ATOM     24  H   UNL     1      43.435   2.657  13.738  0.00  0.00    +0.000 HD
ENDBRANCH  11  14
ENDBRANCH   9  10
ENDBRANCH   3   9
BRANCH   6  25
ATOM     25  O   UNL     1      49.755   5.199  18.290  0.00  0.00    +0.000 OA
BRANCH  25  26
ATOM     26  C   UNL     1      50.946   4.495  18.438  0.00  0.00    +0.000 A 
ATOM     27  C   UNL     1      50.980   3.229  17.881  0.00  0.00    +0.000 A 
ATOM     28  C   UNL     1      52.176   2.530  17.952  0.00  0.00    +0.000 A 
ATOM     29 CL   UNL     1      52.289   0.950  17.280  0.00  0.00    +0.000 Cl
ATOM     30  C   UNL     1      53.292   3.099  18.554  0.00  0.00    +0.000 A 
ATOM     31  C   UNL     1      53.148   4.360  19.101  0.00  0.00    +0.000 A 
ATOM     32  N   UNL     1      51.993   5.061  19.082  0.00  0.00    +0.000 NA
ENDBRANCH  25  26
ENDBRANCH   6  25
TORSDOF 6
ENDMDL
MODEL 4
REMARK VINA RESULT:    -7.648      3.173      4.465
REMARK INTER + INTRA:         -10.880
REMARK INTER:                  -9.897
REMARK INTRA:                  -0.983
REMARK UNBOUND:                -0.550
REMARK  Name = 
REMARK  6 active torsions:
REMARK  status: ('A' for Active; 'I' for Inactive)
REMARK    1  A    between atoms: C_2  and  C_3
REMARK    2  A    between atoms: C_5  and  C_6
REMARK    3  A    between atoms: C_6  and  N_7
REMARK    4  A    between atoms: C_8  and  C_10
REMARK    5  A    between atoms: C_22  and  O_23
REMARK    6  A    between atoms: O_23  and  C_24
REMARK                            x       y       z     vdW  Elec       q    Type
REMARK                         _______ _______ _______ _____ _____    ______ ____
ROOT
ATOM      1  C   UNL     1      44.391   4.078  11.161  0.00  0.00    +0.000 A 
ATOM      2  C   UNL     1      44.903   4.823  12.236  0.00  0.00    +0.000 A 
ATOM      3  C   UNL     1      45.804   5.877  12.028  0.00  0.00    +0.000 A 
ATOM      4  C   UNL     1      46.152   6.213  10.715  0.00  0.00    +0.000 A 
ATOM      5  C   UNL     1      45.619   5.497   9.635  0.00  0.00    +0.000 A 
ATOM      6  C   UNL     1      44.725   4.439   9.848  0.00  0.00    +0.000 A 
ENDROOT
BRANCH   1   8
ATOM      7  N   UNL     1      42.959   1.983  11.695  0.00  0.00    +0.000 NA
ATOM      8  C   UNL     1      43.596   2.928  11.479  0.00  0.00    +0.000 C 
ENDBRANCH   1   8
BRANCH   3   9
ATOM      9  C   UNL     1      46.353   6.634  13.209  0.00  0.00    +0.000 C 
BRANCH   9  10
ATOM     10  N   UNL     1      47.459   7.467  12.816  0.00  0.00    +0.000 N 
ATOM     11  C   UNL     1      48.741   7.180  13.209  0.00  0.00    +0.000 C 
ATOM     12  O   UNL     1      49.007   6.183  13.875  0.00  0.00    +0.000 OA
ATOM     13  H   UNL     1      47.241   8.401  12.480  0.00  0.00    +0.000 HD
BRANCH  11  14
ATOM     14  C   UNL     1      49.790   8.092  12.737  0.00  0.00    +0.000 A 
ATOM     15  C   UNL     1      50.398   7.862  11.510  0.00  0.00    +0.000 A 
ATOM     16  S   UNL     1      51.551   9.045  11.086  0.00  0.00    +0.000 S 
ATOM     17  C   UNL     1      51.316   9.878  12.550  0.00  0.00    +0.000 A 
ATOM     18  N   UNL     1      52.029  11.000  12.837  0.00  0.00    +0.000 NA
ATOM     19  C   UNL     1      51.772  11.514  13.993  0.00  0.00    +0.000 A 
ATOM     20  N   UNL     1      50.862  11.011  14.887  0.00  0.00    +0.000 N 
ATOM     21  C   UNL     1      50.099   9.898  14.628  0.00  0.00    +0.000 A 
ATOM     22  O   UNL     1      49.262   9.496  15.430  0.00  0.00    +0.000 OA
ATOM     23  C   UNL     1      50.359   9.273  13.345  0.00  0.00    +0.000 A 
ATOM     24  H   UNL     1      50.701  11.466  15.774  0.00  0.00    +0.000 HD
ENDBRANCH  11  14
ENDBRANCH   9  10
ENDBRANCH   3   9
BRANCH   6  25
ATOM     25  O   UNL     1      44.351   3.753   8.710  0.00  0.00    +0.000 OA
BRANCH  25  26
ATOM     26  C   UNL     1      45.244   2.850   8.142  0.00  0.00    +0.000 A 
ATOM     27  C   UNL     1      45.907   3.280   7.006  0.00  0.00    +0.000 A 
ATOM     28  C   UNL     1      46.854   2.428   6.456  0.00  0.00    +0.000 A 
ATOM     29 CL   UNL     1      47.716   2.899   5.043  0.00  0.00    +0.000 Cl
ATOM     30  C   UNL     1      47.122   1.197   7.042  0.00  0.00    +0.000 A 
ATOM     31  C   UNL     1      46.388   0.850   8.162  0.00  0.00    +0.000 A 
ATOM     32  N   UNL     1      45.435   1.637   8.709  0.00  0.00    +0.000 NA
ENDBRANCH  25  26
ENDBRANCH   6  25
TORSDOF 6
ENDMDL
MODEL 5
REMARK VINA RESULT:    -7.554      2.646      3.574
REMARK INTER + INTRA:         -10.753
REMARK INTER:                  -9.771
REMARK INTRA:                  -0.982
REMARK UNBOUND:                -0.550
REMARK  Name = 
REMARK  6 active torsions:
REMARK  status: ('A' for Active; 'I' for Inactive)
REMARK    1  A    between atoms: C_2  and  C_3
REMARK    2  A    between atoms: C_5  and  C_6
REMARK    3  A    between atoms: C_6  and  N_7
REMARK    4  A    between atoms: C_8  and  C_10
REMARK    5  A    between atoms: C_22  and  O_23
REMARK    6  A    between atoms: O_23  and  C_24
REMARK                            x       y       z     vdW  Elec       q    Type
REMARK                         _______ _______ _______ _____ _____    ______ ____
ROOT
ATOM      1  C   UNL     1      45.215   7.687  11.764  0.00  0.00    +0.000 A 
ATOM      2  C   UNL     1      46.246   8.174  12.584  0.00  0.00    +0.000 A 
ATOM      3  C   UNL     1      47.098   7.304  13.277  0.00  0.00    +0.000 A 
ATOM      4  C   UNL     1      46.937   5.925  13.101  0.00  0.00    +0.000 A 
ATOM      5  C   UNL     1      45.933   5.431  12.258  0.00  0.00    +0.000 A 
ATOM      6  C   UNL     1      45.078   6.304  11.573  0.00  0.00    +0.000 A 
ENDROOT
BRANCH   1   8
ATOM      7  N   UNL     1      43.587   9.421  10.729  0.00  0.00    +0.000 NA
ATOM      8  C   UNL     1      44.304   8.648  11.214  0.00  0.00    +0.000 C 
ENDBRANCH   1   8
BRANCH   3   9
ATOM      9  C   UNL     1      48.175   7.865  14.169  0.00  0.00    +0.000 C 
BRANCH   9  10
ATOM     10  N   UNL     1      48.056   7.348  15.507  0.00  0.00    +0.000 N 
ATOM     11  C   UNL     1      49.088   6.669  16.102  0.00  0.00    +0.000 C 
ATOM     12  O   UNL     1      50.168   6.508  15.540  0.00  0.00    +0.000 OA
ATOM     13  H   UNL     1      47.119   7.258  15.888  0.00  0.00    +0.000 HD
BRANCH  11  14
ATOM     14  C   UNL     1      48.858   6.199  17.473  0.00  0.00    +0.000 A 
ATOM     15  C   UNL     1      49.144   4.882  17.804  0.00  0.00    +0.000 A 
ATOM     16  S   UNL     1      48.877   4.515  19.448  0.00  0.00    +0.000 S 
ATOM     17  C   UNL     1      48.320   6.092  19.765  0.00  0.00    +0.000 A 
ATOM     18  N   UNL     1      47.902   6.447  21.009  0.00  0.00    +0.000 NA
ATOM     19  C   UNL     1      47.478   7.663  21.103  0.00  0.00    +0.000 A 
ATOM     20  N   UNL     1      47.440   8.558  20.065  0.00  0.00    +0.000 N 
ATOM     21  C   UNL     1      47.879   8.253  18.799  0.00  0.00    +0.000 A 
ATOM     22  O   UNL     1      47.872   9.088  17.901  0.00  0.00    +0.000 OA
ATOM     23  C   UNL     1      48.354   6.891  18.637  0.00  0.00    +0.000 A 
ATOM     24  H   UNL     1      47.104   9.500  20.206  0.00  0.00    +0.000 HD
ENDBRANCH  11  14
ENDBRANCH   9  10
ENDBRANCH   3   9
BRANCH   6  25
ATOM     25  O   UNL     1      44.071   5.692  10.855  0.00  0.00    +0.000 OA
BRANCH  25  26
ATOM     26  C   UNL     1      44.366   4.548  10.119  0.00  0.00    +0.000 A 
ATOM     27  C   UNL     1      45.240   4.712   9.060  0.00  0.00    +0.000 A 
ATOM     28  C   UNL     1      45.606   3.578   8.350  0.00  0.00    +0.000 A 
ATOM     29 CL   UNL     1      46.690   3.709   7.020  0.00  0.00    +0.000 Cl
ATOM     30  C   UNL     1      45.112   2.330   8.709  0.00  0.00    +0.000 A 
ATOM     31  C   UNL     1      44.226   2.275   9.769  0.00  0.00    +0.000 A 
ATOM     32  N   UNL     1      43.819   3.360  10.465  0.00  0.00    +0.000 NA
ENDBRANCH  25  26
ENDBRANCH   6  25
TORSDOF 6
ENDMDL
MODEL 6
REMARK VINA RESULT:    -7.376      2.178      2.905
REMARK INTER + INTRA:         -10.513
REMARK INTER:                  -9.675
REMARK INTRA:                  -0.838
REMARK UNBOUND:                -0.550
REMARK  Name = 
REMARK  6 active torsions:
REMARK  status: ('A' for Active; 'I' for Inactive)
REMARK    1  A    between atoms: C_2  and  C_3
REMARK    2  A    between atoms: C_5  and  C_6
REMARK    3  A    between atoms: C_6  and  N_7
REMARK    4  A    between atoms: C_8  and  C_10
REMARK    5  A    between atoms: C_22  and  O_23
REMARK    6  A    between atoms: O_23  and  C_24
REMARK                            x       y       z     vdW  Elec       q    Type
REMARK                         _______ _______ _______ _____ _____    ______ ____
ROOT
ATOM      1  C   UNL     1      45.015   5.257  12.382  0.00  0.00    +0.000 A 
ATOM      2  C   UNL     1      45.909   5.865  13.278  0.00  0.00    +0.000 A 
ATOM      3  C   UNL     1      46.917   6.729  12.828  0.00  0.00    +0.000 A 
ATOM      4  C   UNL     1      46.990   7.019  11.461  0.00  0.00    +0.000 A 
ATOM      5  C   UNL     1      46.081   6.444  10.564  0.00  0.00    +0.000 A 
ATOM      6  C   UNL     1      45.079   5.574  11.017  0.00  0.00    +0.000 A 
ENDROOT
BRANCH   1   8
ATOM      7  N   UNL     1      43.422   3.461  13.365  0.00  0.00    +0.000 NA
ATOM      8  C   UNL     1      44.115   4.277  12.916  0.00  0.00    +0.000 C 
ENDBRANCH   1   8
BRANCH   3   9
ATOM      9  C   UNL     1      47.875   7.340  13.816  0.00  0.00    +0.000 C 
BRANCH   9  10
ATOM     10  N   UNL     1      48.407   6.340  14.703  0.00  0.00    +0.000 N 
ATOM     11  C   UNL     1      48.841   6.664  15.963  0.00  0.00    +0.000 C 
ATOM     12  O   UNL     1      48.757   7.808  16.404  0.00  0.00    +0.000 OA
ATOM     13  H   UNL     1      48.703   5.462  14.288  0.00  0.00    +0.000 HD
BRANCH  11  14
ATOM     14  C   UNL     1      49.352   5.560  16.783  0.00  0.00    +0.000 A 
ATOM     15  C   UNL     1      48.463   4.650  17.339  0.00  0.00    +0.000 A 
ATOM     16  S   UNL     1      49.222   3.398  18.213  0.00  0.00    +0.000 S 
ATOM     17  C   UNL     1      50.764   4.056  17.924  0.00  0.00    +0.000 A 
ATOM     18  N   UNL     1      51.881   3.466  18.427  0.00  0.00    +0.000 NA
ATOM     19  C   UNL     1      52.980   4.087  18.156  0.00  0.00    +0.000 A 
ATOM     20  N   UNL     1      53.064   5.242  17.422  0.00  0.00    +0.000 N 
ATOM     21  C   UNL     1      51.966   5.857  16.870  0.00  0.00    +0.000 A 
ATOM     22  O   UNL     1      52.078   6.867  16.182  0.00  0.00    +0.000 OA
ATOM     23  C   UNL     1      50.702   5.206  17.156  0.00  0.00    +0.000 A 
ATOM     24  H   UNL     1      53.958   5.674  17.237  0.00  0.00    +0.000 HD
ENDBRANCH  11  14
ENDBRANCH   9  10
ENDBRANCH   3   9
BRANCH   6  25
ATOM     25  O   UNL     1      44.312   4.998  10.025  0.00  0.00    +0.000 OA
BRANCH  25  26
ATOM     26  C   UNL     1      44.825   3.913   9.319  0.00  0.00    +0.000 A 
ATOM     27  C   UNL     1      45.485   4.210   8.140  0.00  0.00    +0.000 A 
ATOM     28  C   UNL     1      46.066   3.156   7.449  0.00  0.00    +0.000 A 
ATOM     29 CL   UNL     1      46.902   3.453   5.974  0.00  0.00    +0.000 Cl
ATOM     30  C   UNL     1      45.987   1.860   7.942  0.00  0.00    +0.000 A 
ATOM     31  C   UNL     1      45.285   1.665   9.117  0.00  0.00    +0.000 A 
ATOM     32  N   UNL     1      44.678   2.659   9.803  0.00  0.00    +0.000 NA
ENDBRANCH  25  26
ENDBRANCH   6  25
TORSDOF 6
ENDMDL
MODEL 7
REMARK VINA RESULT:    -7.234      2.038      2.940
REMARK INTER + INTRA:         -10.322
REMARK INTER:                  -9.254
REMARK INTRA:                  -1.068
REMARK UNBOUND:                -0.550
REMARK  Name = 
REMARK  6 active torsions:
REMARK  status: ('A' for Active; 'I' for Inactive)
REMARK    1  A    between atoms: C_2  and  C_3
REMARK    2  A    between atoms: C_5  and  C_6
REMARK    3  A    between atoms: C_6  and  N_7
REMARK    4  A    between atoms: C_8  and  C_10
REMARK    5  A    between atoms: C_22  and  O_23
REMARK    6  A    between atoms: O_23  and  C_24
REMARK                            x       y       z     vdW  Elec       q    Type
REMARK                         _______ _______ _______ _____ _____    ______ ____
ROOT
ATOM      1  C   UNL     1      45.695   7.636  11.754  0.00  0.00    +0.000 A 
ATOM      2  C   UNL     1      46.851   8.157  12.358  0.00  0.00    +0.000 A 
ATOM      3  C   UNL     1      47.803   7.319  12.954  0.00  0.00    +0.000 A 
ATOM      4  C   UNL     1      47.608   5.934  12.894  0.00  0.00    +0.000 A 
ATOM      5  C   UNL     1      46.475   5.404  12.264  0.00  0.00    +0.000 A 
ATOM      6  C   UNL     1      45.521   6.246  11.677  0.00  0.00    +0.000 A 
ENDROOT
BRANCH   1   8
ATOM      7  N   UNL     1      43.907   9.349  10.982  0.00  0.00    +0.000 NA
ATOM      8  C   UNL     1      44.709   8.574  11.304  0.00  0.00    +0.000 C 
ENDBRANCH   1   8
BRANCH   3   9
ATOM      9  C   UNL     1      49.016   7.917  13.616  0.00  0.00    +0.000 C 
BRANCH   9  10
ATOM     10  N   UNL     1      49.228   7.341  14.917  0.00  0.00    +0.000 N 
ATOM     11  C   UNL     1      48.749   7.947  16.050  0.00  0.00    +0.000 C 
ATOM     12  O   UNL     1      48.087   8.981  16.003  0.00  0.00    +0.000 OA
ATOM     13  H   UNL     1      49.958   6.640  15.001  0.00  0.00    +0.000 HD
BRANCH  11  14
ATOM     14  C   UNL     1      49.014   7.262  17.321  0.00  0.00    +0.000 A 
ATOM     15  C   UNL     1      49.566   7.970  18.380  0.00  0.00    +0.000 A 
ATOM     16  S   UNL     1      49.755   7.043  19.799  0.00  0.00    +0.000 S 
ATOM     17  C   UNL     1      49.153   5.648  19.033  0.00  0.00    +0.000 A 
ATOM     18  N   UNL     1      49.068   4.467  19.700  0.00  0.00    +0.000 NA
ATOM     19  C   UNL     1      48.623   3.484  18.991  0.00  0.00    +0.000 A 
ATOM     20  N   UNL     1      48.249   3.577  17.675  0.00  0.00    +0.000 N 
ATOM     21  C   UNL     1      48.291   4.755  16.969  0.00  0.00    +0.000 A 
ATOM     22  O   UNL     1      47.909   4.817  15.805  0.00  0.00    +0.000 OA
ATOM     23  C   UNL     1      48.797   5.891  17.718  0.00  0.00    +0.000 A 
ATOM     24  H   UNL     1      47.899   2.771  17.178  0.00  0.00    +0.000 HD
ENDBRANCH  11  14
ENDBRANCH   9  10
ENDBRANCH   3   9
BRANCH   6  25
ATOM     25  O   UNL     1      44.406   5.606  11.177  0.00  0.00    +0.000 OA
BRANCH  25  26
ATOM     26  C   UNL     1      44.575   4.534  10.306  0.00  0.00    +0.000 A 
ATOM     27  C   UNL     1      45.347   4.776   9.183  0.00  0.00    +0.000 A 
ATOM     28  C   UNL     1      45.591   3.708   8.332  0.00  0.00    +0.000 A 
ATOM     29 CL   UNL     1      46.542   3.938   6.916  0.00  0.00    +0.000 Cl
ATOM     30  C   UNL     1      45.081   2.447   8.616  0.00  0.00    +0.000 A 
ATOM     31  C   UNL     1      44.303   2.315   9.751  0.00  0.00    +0.000 A 
ATOM     32  N   UNL     1      44.015   3.336  10.589  0.00  0.00    +0.000 NA
ENDBRANCH  25  26
ENDBRANCH   6  25
TORSDOF 6
ENDMDL
MODEL 8
REMARK VINA RESULT:    -7.054      2.831      4.201
REMARK INTER + INTRA:         -10.078
REMARK INTER:                  -8.916
REMARK INTRA:                  -1.162
REMARK UNBOUND:                -0.550
REMARK  Name = 
REMARK  6 active torsions:
REMARK  status: ('A' for Active; 'I' for Inactive)
REMARK    1  A    between atoms: C_2  and  C_3
REMARK    2  A    between atoms: C_5  and  C_6
REMARK    3  A    between atoms: C_6  and  N_7
REMARK    4  A    between atoms: C_8  and  C_10
REMARK    5  A    between atoms: C_22  and  O_23
REMARK    6  A    between atoms: O_23  and  C_24
REMARK                            x       y       z     vdW  Elec       q    Type
REMARK                         _______ _______ _______ _____ _____    ______ ____
ROOT
ATOM      1  C   UNL     1      46.503   8.250  12.833  0.00  0.00    +0.000 A 
ATOM      2  C   UNL     1      47.292   8.525  13.962  0.00  0.00    +0.000 A 
ATOM      3  C   UNL     1      48.123   7.546  14.524  0.00  0.00    +0.000 A 
ATOM      4  C   UNL     1      48.194   6.292  13.909  0.00  0.00    +0.000 A 
ATOM      5  C   UNL     1      47.437   6.021  12.762  0.00  0.00    +0.000 A 
ATOM      6  C   UNL     1      46.600   6.999  12.208  0.00  0.00    +0.000 A 
ENDROOT
BRANCH   1   8
ATOM      7  N   UNL     1      44.842  10.109  12.116  0.00  0.00    +0.000 NA
ATOM      8  C   UNL     1      45.576   9.263  12.419  0.00  0.00    +0.000 C 
ENDBRANCH   1   8
BRANCH   3   9
ATOM      9  C   UNL     1      48.934   7.870  15.752  0.00  0.00    +0.000 C 
BRANCH   9  10
ATOM     10  N   UNL     1      49.832   6.793  16.074  0.00  0.00    +0.000 N 
ATOM     11  C   UNL     1      50.241   6.569  17.363  0.00  0.00    +0.000 C 
ATOM     12  O   UNL     1      49.831   7.247  18.302  0.00  0.00    +0.000 OA
ATOM     13  H   UNL     1      50.360   6.384  15.308  0.00  0.00    +0.000 HD
BRANCH  11  14
ATOM     14  C   UNL     1      51.147   5.434  17.575  0.00  0.00    +0.000 A 
ATOM     15  C   UNL     1      52.455   5.665  17.981  0.00  0.00    +0.000 A 
ATOM     16  S   UNL     1      53.354   4.240  18.238  0.00  0.00    +0.000 S 
ATOM     17  C   UNL     1      52.045   3.262  17.764  0.00  0.00    +0.000 A 
ATOM     18  N   UNL     1      52.159   1.908  17.736  0.00  0.00    +0.000 NA
ATOM     19  C   UNL     1      51.100   1.291  17.330  0.00  0.00    +0.000 A 
ATOM     20  N   UNL     1      49.934   1.907  16.954  0.00  0.00    +0.000 N 
ATOM     21  C   UNL     1      49.763   3.270  16.994  0.00  0.00    +0.000 A 
ATOM     22  O   UNL     1      48.694   3.790  16.692  0.00  0.00    +0.000 OA
ATOM     23  C   UNL     1      50.931   4.013  17.432  0.00  0.00    +0.000 A 
ATOM     24  H   UNL     1      49.136   1.366  16.653  0.00  0.00    +0.000 HD
ENDBRANCH  11  14
ENDBRANCH   9  10
ENDBRANCH   3   9
BRANCH   6  25
ATOM     25  O   UNL     1      45.834   6.576  11.141  0.00  0.00    +0.000 OA
BRANCH  25  26
ATOM     26  C   UNL     1      44.983   5.488  11.310  0.00  0.00    +0.000 A 
ATOM     27  C   UNL     1      45.072   4.490  10.355  0.00  0.00    +0.000 A 
ATOM     28  C   UNL     1      44.286   3.361  10.534  0.00  0.00    +0.000 A 
ATOM     29 CL   UNL     1      44.347   2.081   9.385  0.00  0.00    +0.000 Cl
ATOM     30  C   UNL     1      43.453   3.248  11.640  0.00  0.00    +0.000 A 
ATOM     31  C   UNL     1      43.420   4.310  12.524  0.00  0.00    +0.000 A 
ATOM     32  N   UNL     1      44.144   5.441  12.370  0.00  0.00    +0.000 NA
ENDBRANCH  25  26
ENDBRANCH   6  25
TORSDOF 6
ENDMDL
MODEL 9
REMARK VINA RESULT:    -6.871      3.107      4.461
REMARK INTER + INTRA:          -9.831
REMARK INTER:                  -9.183
REMARK INTRA:                  -0.648
REMARK UNBOUND:                -0.550
REMARK  Name = 
REMARK  6 active torsions:
REMARK  status: ('A' for Active; 'I' for Inactive)
REMARK    1  A    between atoms: C_2  and  C_3
REMARK    2  A    between atoms: C_5  and  C_6
REMARK    3  A    between atoms: C_6  and  N_7
REMARK    4  A    between atoms: C_8  and  C_10
REMARK    5  A    between atoms: C_22  and  O_23
REMARK    6  A    between atoms: O_23  and  C_24
REMARK                            x       y       z     vdW  Elec       q    Type
REMARK                         _______ _______ _______ _____ _____    ______ ____
ROOT
ATOM      1  C   UNL     1      46.468   6.563  12.915  0.00  0.00    +0.000 A 
ATOM      2  C   UNL     1      47.183   6.278  14.090  0.00  0.00    +0.000 A 
ATOM      3  C   UNL     1      47.241   4.977  14.609  0.00  0.00    +0.000 A 
ATOM      4  C   UNL     1      46.610   3.945  13.905  0.00  0.00    +0.000 A 
ATOM      5  C   UNL     1      45.924   4.215  12.714  0.00  0.00    +0.000 A 
ATOM      6  C   UNL     1      45.861   5.519  12.203  0.00  0.00    +0.000 A 
ENDROOT
BRANCH   1   8
ATOM      7  N   UNL     1      46.209   9.046  12.210  0.00  0.00    +0.000 NA
ATOM      8  C   UNL     1      46.342   7.942  12.542  0.00  0.00    +0.000 C 
ENDBRANCH   1   8
BRANCH   3   9
ATOM      9  C   UNL     1      47.994   4.715  15.887  0.00  0.00    +0.000 C 
BRANCH   9  10
ATOM     10  N   UNL     1      47.667   5.696  16.887  0.00  0.00    +0.000 N 
ATOM     11  C   UNL     1      48.646   6.328  17.611  0.00  0.00    +0.000 C 
ATOM     12  O   UNL     1      49.840   6.116  17.411  0.00  0.00    +0.000 OA
ATOM     13  H   UNL     1      46.711   5.710  17.230  0.00  0.00    +0.000 HD
BRANCH  11  14
ATOM     14  C   UNL     1      48.196   7.320  18.594  0.00  0.00    +0.000 A 
ATOM     15  C   UNL     1      47.978   6.932  19.909  0.00  0.00    +0.000 A 
ATOM     16  S   UNL     1      47.516   8.215  20.934  0.00  0.00    +0.000 S 
ATOM     17  C   UNL     1      47.541   9.326  19.645  0.00  0.00    +0.000 A 
ATOM     18  N   UNL     1      47.214  10.631  19.842  0.00  0.00    +0.000 NA
ATOM     19  C   UNL     1      47.246  11.356  18.774  0.00  0.00    +0.000 A 
ATOM     20  N   UNL     1      47.581  10.894  17.527  0.00  0.00    +0.000 N 
ATOM     21  C   UNL     1      47.945   9.591  17.286  0.00  0.00    +0.000 A 
ATOM     22  O   UNL     1      48.281   9.217  16.166  0.00  0.00    +0.000 OA
ATOM     23  C   UNL     1      47.913   8.729  18.453  0.00  0.00    +0.000 A 
ATOM     24  H   UNL     1      47.596  11.516  16.731  0.00  0.00    +0.000 HD
ENDBRANCH  11  14
ENDBRANCH   9  10
ENDBRANCH   3   9
BRANCH   6  25
ATOM     25  O   UNL     1      45.074   5.668  11.080  0.00  0.00    +0.000 OA
BRANCH  25  26
ATOM     26  C   UNL     1      44.984   4.616  10.172  0.00  0.00    +0.000 A 
ATOM     27  C   UNL     1      45.726   4.747   9.012  0.00  0.00    +0.000 A 
ATOM     28  C   UNL     1      45.711   3.685   8.119  0.00  0.00    +0.000 A 
ATOM     29 CL   UNL     1      46.610   3.780   6.655  0.00  0.00    +0.000 Cl
ATOM     30  C   UNL     1      44.982   2.536   8.401  0.00  0.00    +0.000 A 
ATOM     31  C   UNL     1      44.256   2.513   9.578  0.00  0.00    +0.000 A 
ATOM     32  N   UNL     1      44.218   3.539  10.457  0.00  0.00    +0.000 NA
ENDBRANCH  25  26
ENDBRANCH   6  25
TORSDOF 6
ENDMDL
