MODEL 1
REMARK VINA RESULT:    -8.385      0.000      0.000
REMARK INTER + INTRA:         -13.904
REMARK INTER:                 -12.306
REMARK INTRA:                  -1.598
REMARK UNBOUND:                -1.598
REMARK  Name = 
REMARK  9 active torsions:
REMARK  status: ('A' for Active; 'I' for Inactive)
REMARK    1  A    between atoms: C_1  and  O_2
REMARK    2  A    between atoms: O_2  and  C_3
REMARK    3  A    between atoms: C_10  and  C_11
REMARK    4  A    between atoms: N_13  and  C_14
REMARK    5  A    between atoms: C_14  and  C_15
REMARK    6  A    between atoms: C_18  and  C_19
REMARK    7  A    between atoms: C_19  and  N_20
REMARK    8  A    between atoms: N_20  and  C_21
REMARK    9  A    between atoms: C_21  and  C_22
REMARK                            x       y       z     vdW  Elec       q    Type
REMARK                         _______ _______ _______ _____ _____    ______ ____
ROOT
ATOM      1  C   UNL     1      47.125   8.040  13.260  0.00  0.00    +0.000 C 
ENDROOT
BRANCH   1   2
ATOM      2  C   UNL     1      46.224   7.141  12.448  0.00  0.00    +0.000 A 
ATOM      3  C   UNL     1      46.629   6.679  11.190  0.00  0.00    +0.000 A 
ATOM      4  C   UNL     1      45.782   5.877  10.419  0.00  0.00    +0.000 A 
ATOM      5  C   UNL     1      44.507   5.520  10.884  0.00  0.00    +0.000 A 
ATOM      6  C   UNL     1      44.097   5.995  12.137  0.00  0.00    +0.000 A 
ATOM      7  C   UNL     1      44.945   6.800  12.909  0.00  0.00    +0.000 A 
BRANCH   5   8
ATOM      8  C   UNL     1      43.593   4.662  10.038  0.00  0.00    +0.000 C 
BRANCH   8   9
ATOM      9  N   UNL     1      44.297   4.136   8.871  0.00  0.00    +0.000 NA
ATOM     10  H   UNL     1      45.176   4.640   8.762  0.00  0.00    +0.000 HD
BRANCH   9  11
ATOM     11  C   UNL     1      44.578   2.709   9.005  0.00  0.00    +0.000 C 
BRANCH  11  12
ATOM     12  C   UNL     1      45.784   2.321   8.185  0.00  0.00    +0.000 A 
ATOM     13  C   UNL     1      46.188   0.987   8.076  0.00  0.00    +0.000 A 
ATOM     14  C   UNL     1      47.310   0.691   7.315  0.00  0.00    +0.000 A 
ATOM     15  N   UNL     1      48.044   1.617   6.663  0.00  0.00    +0.000 NA
ATOM     16  C   UNL     1      47.638   2.899   6.778  0.00  0.00    +0.000 A 
ATOM     17  C   UNL     1      46.530   3.294   7.510  0.00  0.00    +0.000 A 
ENDBRANCH  11  12
ENDBRANCH   9  11
ENDBRANCH   8   9
ENDBRANCH   5   8
ENDBRANCH   1   2
BRANCH   1  20
ATOM     18  C   UNL     1      48.759   6.882  14.695  0.00  0.00    +0.000 C 
ATOM     19  O   UNL     1      49.629   6.961  13.829  0.00  0.00    +0.000 OA
ATOM     20  N   UNL     1      47.509   7.396  14.492  0.00  0.00    +0.000 N 
ATOM     21  H   UNL     1      46.804   7.315  15.212  0.00  0.00    +0.000 HD
BRANCH  18  29
ATOM     22  C   UNL     1      47.280   4.241  16.340  0.00  0.00    +0.000 A 
ATOM     23  N   UNL     1      46.943   3.217  17.149  0.00  0.00    +0.000 NA
ATOM     24  C   UNL     1      47.663   3.033  18.260  0.00  0.00    +0.000 A 
ATOM     25  N   UNL     1      48.687   3.769  18.681  0.00  0.00    +0.000 NA
ATOM     26  C   UNL     1      48.997   4.770  17.839  0.00  0.00    +0.000 A 
ATOM     27  S   UNL     1      50.273   5.821  18.222  0.00  0.00    +0.000 S 
ATOM     28  C   UNL     1      50.048   6.698  16.784  0.00  0.00    +0.000 A 
ATOM     29  C   UNL     1      49.018   6.216  15.984  0.00  0.00    +0.000 A 
ATOM     30  C   UNL     1      48.370   5.078  16.635  0.00  0.00    +0.000 A 
BRANCH  22  32
ATOM     31  C   UNL     1      47.049   3.673  14.082  0.00  0.00    +0.000 C 
ATOM     32  O   UNL     1      46.547   4.421  15.186  0.00  0.00    +0.000 OA
ENDBRANCH  22  32
ENDBRANCH  18  29
ENDBRANCH   1  20
TORSDOF 8
ENDMDL
MODEL 2
REMARK VINA RESULT:    -7.841      1.523      2.066
REMARK INTER + INTRA:         -13.106
REMARK INTER:                 -12.020
REMARK INTRA:                  -1.086
REMARK UNBOUND:                -1.598
REMARK  Name = 
REMARK  9 active torsions:
REMARK  status: ('A' for Active; 'I' for Inactive)
REMARK    1  A    between atoms: C_1  and  O_2
REMARK    2  A    between atoms: O_2  and  C_3
REMARK    3  A    between atoms: C_10  and  C_11
REMARK    4  A    between atoms: N_13  and  C_14
REMARK    5  A    between atoms: C_14  and  C_15
REMARK    6  A    between atoms: C_18  and  C_19
REMARK    7  A    between atoms: C_19  and  N_20
REMARK    8  A    between atoms: N_20  and  C_21
REMARK    9  A    between atoms: C_21  and  C_22
REMARK                            x       y       z     vdW  Elec       q    Type
REMARK                         _______ _______ _______ _____ _____    ______ ____
ROOT
ATOM      1  C   UNL     1      47.973   7.208  13.190  0.00  0.00    +0.000 C 
ENDROOT
BRANCH   1   2
ATOM      2  C   UNL     1      46.921   6.263  12.661  0.00  0.00    +0.000 A 
ATOM      3  C   UNL     1      46.523   5.150  13.414  0.00  0.00    +0.000 A 
ATOM      4  C   UNL     1      45.577   4.252  12.910  0.00  0.00    +0.000 A 
ATOM      5  C   UNL     1      45.007   4.442  11.642  0.00  0.00    +0.000 A 
ATOM      6  C   UNL     1      45.416   5.548  10.885  0.00  0.00    +0.000 A 
ATOM      7  C   UNL     1      46.366   6.446  11.388  0.00  0.00    +0.000 A 
BRANCH   5   8
ATOM      8  C   UNL     1      43.992   3.459  11.102  0.00  0.00    +0.000 C 
BRANCH   8   9
ATOM      9  N   UNL     1      44.627   2.477  10.226  0.00  0.00    +0.000 NA
ATOM     10  H   UNL     1      44.154   1.581  10.338  0.00  0.00    +0.000 HD
BRANCH   9  11
ATOM     11  C   UNL     1      44.561   2.879   8.823  0.00  0.00    +0.000 C 
BRANCH  11  12
ATOM     12  C   UNL     1      45.790   2.420   8.075  0.00  0.00    +0.000 A 
ATOM     13  C   UNL     1      46.579   3.322   7.356  0.00  0.00    +0.000 A 
ATOM     14  C   UNL     1      47.692   2.841   6.681  0.00  0.00    +0.000 A 
ATOM     15  N   UNL     1      48.069   1.545   6.676  0.00  0.00    +0.000 NA
ATOM     16  C   UNL     1      47.296   0.690   7.378  0.00  0.00    +0.000 A 
ATOM     17  C   UNL     1      46.169   1.073   8.087  0.00  0.00    +0.000 A 
ENDBRANCH  11  12
ENDBRANCH   9  11
ENDBRANCH   8   9
ENDBRANCH   5   8
ENDBRANCH   1   2
BRANCH   1  20
ATOM     18  C   UNL     1      49.022   7.094  15.417  0.00  0.00    +0.000 C 
ATOM     19  O   UNL     1      50.127   6.878  14.925  0.00  0.00    +0.000 OA
ATOM     20  N   UNL     1      47.919   7.276  14.630  0.00  0.00    +0.000 N 
ATOM     21  H   UNL     1      47.016   7.444  15.051  0.00  0.00    +0.000 HD
BRANCH  18  29
ATOM     22  C   UNL     1      48.849   4.695  17.884  0.00  0.00    +0.000 A 
ATOM     23  N   UNL     1      48.816   3.985  19.029  0.00  0.00    +0.000 NA
ATOM     24  C   UNL     1      48.692   4.656  20.178  0.00  0.00    +0.000 A 
ATOM     25  N   UNL     1      48.579   5.972  20.329  0.00  0.00    +0.000 NA
ATOM     26  C   UNL     1      48.629   6.641  19.164  0.00  0.00    +0.000 A 
ATOM     27  S   UNL     1      48.486   8.332  19.163  0.00  0.00    +0.000 S 
ATOM     28  C   UNL     1      48.655   8.396  17.474  0.00  0.00    +0.000 A 
ATOM     29  C   UNL     1      48.829   7.152  16.877  0.00  0.00    +0.000 A 
ATOM     30  C   UNL     1      48.783   6.099  17.891  0.00  0.00    +0.000 A 
BRANCH  22  32
ATOM     31  C   UNL     1      47.817   3.293  16.320  0.00  0.00    +0.000 C 
ATOM     32  O   UNL     1      48.992   4.005  16.699  0.00  0.00    +0.000 OA
ENDBRANCH  22  32
ENDBRANCH  18  29
ENDBRANCH   1  20
TORSDOF 8
ENDMDL
MODEL 3
REMARK VINA RESULT:    -7.425      2.140      2.791
REMARK INTER + INTRA:         -12.496
REMARK INTER:                 -11.679
REMARK INTRA:                  -0.817
REMARK UNBOUND:                -1.598
REMARK  Name = 
REMARK  9 active torsions:
REMARK  status: ('A' for Active; 'I' for Inactive)
REMARK    1  A    between atoms: C_1  and  O_2
REMARK    2  A    between atoms: O_2  and  C_3
REMARK    3  A    between atoms: C_10  and  C_11
REMARK    4  A    between atoms: N_13  and  C_14
REMARK    5  A    between atoms: C_14  and  C_15
REMARK    6  A    between atoms: C_18  and  C_19
REMARK    7  A    between atoms: C_19  and  N_20
REMARK    8  A    between atoms: N_20  and  C_21
REMARK    9  A    between atoms: C_21  and  C_22
REMARK                            x       y       z     vdW  Elec       q    Type
REMARK                         _______ _______ _______ _____ _____    ______ ____
ROOT
ATOM      1  C   UNL     1      48.160   6.673  13.628  0.00  0.00    +0.000 C 
ENDROOT
BRANCH   1   2
ATOM      2  C   UNL     1      47.055   6.031  12.825  0.00  0.00    +0.000 A 
ATOM      3  C   UNL     1      46.564   6.652  11.669  0.00  0.00    +0.000 A 
ATOM      4  C   UNL     1      45.515   6.079  10.944  0.00  0.00    +0.000 A 
ATOM      5  C   UNL     1      44.928   4.874  11.358  0.00  0.00    +0.000 A 
ATOM      6  C   UNL     1      45.410   4.260  12.522  0.00  0.00    +0.000 A 
ATOM      7  C   UNL     1      46.459   4.835  13.249  0.00  0.00    +0.000 A 
BRANCH   5   8
ATOM      8  C   UNL     1      43.785   4.267  10.573  0.00  0.00    +0.000 C 
BRANCH   8   9
ATOM      9  N   UNL     1      44.276   3.310   9.584  0.00  0.00    +0.000 NA
ATOM     10  H   UNL     1      43.481   2.816   9.181  0.00  0.00    +0.000 HD
BRANCH   9  11
ATOM     11  C   UNL     1      45.022   3.970   8.515  0.00  0.00    +0.000 C 
BRANCH  11  12
ATOM     12  C   UNL     1      45.931   2.990   7.813  0.00  0.00    +0.000 A 
ATOM     13  C   UNL     1      46.075   1.678   8.272  0.00  0.00    +0.000 A 
ATOM     14  C   UNL     1      46.932   0.824   7.591  0.00  0.00    +0.000 A 
ATOM     15  N   UNL     1      47.642   1.182   6.500  0.00  0.00    +0.000 NA
ATOM     16  C   UNL     1      47.488   2.452   6.071  0.00  0.00    +0.000 A 
ATOM     17  C   UNL     1      46.655   3.376   6.679  0.00  0.00    +0.000 A 
ENDBRANCH  11  12
ENDBRANCH   9  11
ENDBRANCH   8   9
ENDBRANCH   5   8
ENDBRANCH   1   2
BRANCH   1  20
ATOM     18  C   UNL     1      49.093   6.351  15.885  0.00  0.00    +0.000 C 
ATOM     19  O   UNL     1      50.221   6.657  15.502  0.00  0.00    +0.000 OA
ATOM     20  N   UNL     1      48.030   6.344  15.026  0.00  0.00    +0.000 N 
ATOM     21  H   UNL     1      47.112   6.082  15.356  0.00  0.00    +0.000 HD
BRANCH  18  29
ATOM     22  C   UNL     1      47.998   8.068  18.664  0.00  0.00    +0.000 A 
ATOM     23  N   UNL     1      47.529   8.471  19.861  0.00  0.00    +0.000 NA
ATOM     24  C   UNL     1      47.433   7.562  20.835  0.00  0.00    +0.000 A 
ATOM     25  N   UNL     1      47.767   6.277  20.766  0.00  0.00    +0.000 NA
ATOM     26  C   UNL     1      48.217   5.914  19.552  0.00  0.00    +0.000 A 
ATOM     27  S   UNL     1      48.702   4.311  19.283  0.00  0.00    +0.000 S 
ATOM     28  C   UNL     1      49.076   4.643  17.659  0.00  0.00    +0.000 A 
ATOM     29  C   UNL     1      48.837   5.961  17.284  0.00  0.00    +0.000 A 
ATOM     30  C   UNL     1      48.350   6.728  18.430  0.00  0.00    +0.000 A 
BRANCH  22  32
ATOM     31  C   UNL     1      49.335   9.685  17.627  0.00  0.00    +0.000 C 
ATOM     32  O   UNL     1      48.083   9.004  17.654  0.00  0.00    +0.000 OA
ENDBRANCH  22  32
ENDBRANCH  18  29
ENDBRANCH   1  20
TORSDOF 8
ENDMDL
MODEL 4
REMARK VINA RESULT:    -7.376      2.095      3.932
REMARK INTER + INTRA:         -12.423
REMARK INTER:                 -11.048
REMARK INTRA:                  -1.376
REMARK UNBOUND:                -1.598
REMARK  Name = 
REMARK  9 active torsions:
REMARK  status: ('A' for Active; 'I' for Inactive)
REMARK    1  A    between atoms: C_1  and  O_2
REMARK    2  A    between atoms: O_2  and  C_3
REMARK    3  A    between atoms: C_10  and  C_11
REMARK    4  A    between atoms: N_13  and  C_14
REMARK    5  A    between atoms: C_14  and  C_15
REMARK    6  A    between atoms: C_18  and  C_19
REMARK    7  A    between atoms: C_19  and  N_20
REMARK    8  A    between atoms: N_20  and  C_21
REMARK    9  A    between atoms: C_21  and  C_22
REMARK                            x       y       z     vdW  Elec       q    Type
REMARK                         _______ _______ _______ _____ _____    ______ ____
ROOT
ATOM      1  C   UNL     1      47.143   4.560  14.879  0.00  0.00    +0.000 C 
ENDROOT
BRANCH   1   2
ATOM      2  C   UNL     1      46.283   4.517  13.639  0.00  0.00    +0.000 A 
ATOM      3  C   UNL     1      45.693   5.687  13.144  0.00  0.00    +0.000 A 
ATOM      4  C   UNL     1      44.864   5.645  12.018  0.00  0.00    +0.000 A 
ATOM      5  C   UNL     1      44.602   4.432  11.362  0.00  0.00    +0.000 A 
ATOM      6  C   UNL     1      45.182   3.261  11.867  0.00  0.00    +0.000 A 
ATOM      7  C   UNL     1      46.010   3.303  12.996  0.00  0.00    +0.000 A 
BRANCH   5   8
ATOM      8  C   UNL     1      43.696   4.395  10.151  0.00  0.00    +0.000 C 
BRANCH   8   9
ATOM      9  N   UNL     1      44.132   3.376   9.200  0.00  0.00    +0.000 NA
ATOM     10  H   UNL     1      43.312   2.886   8.842  0.00  0.00    +0.000 HD
BRANCH   9  11
ATOM     11  C   UNL     1      44.866   3.959   8.080  0.00  0.00    +0.000 C 
BRANCH  11  12
ATOM     12  C   UNL     1      45.909   2.997   7.563  0.00  0.00    +0.000 A 
ATOM     13  C   UNL     1      46.739   3.335   6.491  0.00  0.00    +0.000 A 
ATOM     14  C   UNL     1      47.673   2.407   6.053  0.00  0.00    +0.000 A 
ATOM     15  N   UNL     1      47.836   1.185   6.603  0.00  0.00    +0.000 NA
ATOM     16  C   UNL     1      47.027   0.877   7.639  0.00  0.00    +0.000 A 
ATOM     17  C   UNL     1      46.069   1.737   8.150  0.00  0.00    +0.000 A 
ENDBRANCH  11  12
ENDBRANCH   9  11
ENDBRANCH   8   9
ENDBRANCH   5   8
ENDBRANCH   1   2
BRANCH   1  20
ATOM     18  C   UNL     1      48.713   6.150  15.919  0.00  0.00    +0.000 C 
ATOM     19  O   UNL     1      49.310   5.241  16.492  0.00  0.00    +0.000 OA
ATOM     20  N   UNL     1      47.646   5.893  15.103  0.00  0.00    +0.000 N 
ATOM     21  H   UNL     1      47.162   6.653  14.646  0.00  0.00    +0.000 HD
BRANCH  18  29
ATOM     22  C   UNL     1      49.647   8.642  13.731  0.00  0.00    +0.000 A 
ATOM     23  N   UNL     1      49.967   9.792  13.106  0.00  0.00    +0.000 NA
ATOM     24  C   UNL     1      50.148  10.883  13.856  0.00  0.00    +0.000 A 
ATOM     25  N   UNL     1      50.063  10.968  15.180  0.00  0.00    +0.000 NA
ATOM     26  C   UNL     1      49.730   9.803  15.762  0.00  0.00    +0.000 A 
ATOM     27  S   UNL     1      49.587   9.720  17.450  0.00  0.00    +0.000 S 
ATOM     28  C   UNL     1      49.161   8.077  17.384  0.00  0.00    +0.000 A 
ATOM     29  C   UNL     1      49.108   7.559  16.095  0.00  0.00    +0.000 A 
ATOM     30  C   UNL     1      49.480   8.590  15.126  0.00  0.00    +0.000 A 
BRANCH  22  32
ATOM     31  C   UNL     1      48.574   7.750  11.853  0.00  0.00    +0.000 C 
ATOM     32  O   UNL     1      49.445   7.519  12.957  0.00  0.00    +0.000 OA
ENDBRANCH  22  32
ENDBRANCH  18  29
ENDBRANCH   1  20
TORSDOF 8
ENDMDL
MODEL 5
REMARK VINA RESULT:    -7.347      2.213      3.554
REMARK INTER + INTRA:         -12.381
REMARK INTER:                 -11.248
REMARK INTRA:                  -1.133
REMARK UNBOUND:                -1.598
REMARK  Name = 
REMARK  9 active torsions:
REMARK  status: ('A' for Active; 'I' for Inactive)
REMARK    1  A    between atoms: C_1  and  O_2
REMARK    2  A    between atoms: O_2  and  C_3
REMARK    3  A    between atoms: C_10  and  C_11
REMARK    4  A    between atoms: N_13  and  C_14
REMARK    5  A    between atoms: C_14  and  C_15
REMARK    6  A    between atoms: C_18  and  C_19
REMARK    7  A    between atoms: C_19  and  N_20
REMARK    8  A    between atoms: N_20  and  C_21
REMARK    9  A    between atoms: C_21  and  C_22
REMARK                            x       y       z     vdW  Elec       q    Type
REMARK                         _______ _______ _______ _____ _____    ______ ____
ROOT
ATOM      1  C   UNL     1      47.411   3.768  15.162  0.00  0.00    +0.000 C 
ENDROOT
BRANCH   1   2
ATOM      2  C   UNL     1      46.785   4.234  13.869  0.00  0.00    +0.000 A 
ATOM      3  C   UNL     1      46.977   5.547  13.420  0.00  0.00    +0.000 A 
ATOM      4  C   UNL     1      46.368   5.992  12.242  0.00  0.00    +0.000 A 
ATOM      5  C   UNL     1      45.549   5.138  11.488  0.00  0.00    +0.000 A 
ATOM      6  C   UNL     1      45.346   3.830  11.946  0.00  0.00    +0.000 A 
ATOM      7  C   UNL     1      45.954   3.384  13.126  0.00  0.00    +0.000 A 
BRANCH   5   8
ATOM      8  C   UNL     1      44.885   5.633  10.222  0.00  0.00    +0.000 C 
BRANCH   8   9
ATOM      9  N   UNL     1      45.586   5.147   9.036  0.00  0.00    +0.000 NA
ATOM     10  H   UNL     1      46.533   4.876   9.302  0.00  0.00    +0.000 HD
BRANCH   9  11
ATOM     11  C   UNL     1      44.909   4.000   8.438  0.00  0.00    +0.000 C 
BRANCH  11  12
ATOM     12  C   UNL     1      45.911   3.030   7.858  0.00  0.00    +0.000 A 
ATOM     13  C   UNL     1      46.829   3.432   6.883  0.00  0.00    +0.000 A 
ATOM     14  C   UNL     1      47.720   2.494   6.381  0.00  0.00    +0.000 A 
ATOM     15  N   UNL     1      47.760   1.205   6.777  0.00  0.00    +0.000 NA
ATOM     16  C   UNL     1      46.868   0.835   7.720  0.00  0.00    +0.000 A 
ATOM     17  C   UNL     1      45.943   1.698   8.286  0.00  0.00    +0.000 A 
ENDBRANCH  11  12
ENDBRANCH   9  11
ENDBRANCH   8   9
ENDBRANCH   5   8
ENDBRANCH   1   2
BRANCH   1  20
ATOM     18  C   UNL     1      48.494   5.186  16.862  0.00  0.00    +0.000 C 
ATOM     19  O   UNL     1      49.578   4.635  16.683  0.00  0.00    +0.000 OA
ATOM     20  N   UNL     1      47.387   4.822  16.147  0.00  0.00    +0.000 N 
ATOM     21  H   UNL     1      46.502   5.279  16.313  0.00  0.00    +0.000 HD
BRANCH  18  29
ATOM     22  C   UNL     1      48.505   8.627  16.688  0.00  0.00    +0.000 A 
ATOM     23  N   UNL     1      48.395   9.955  16.890  0.00  0.00    +0.000 NA
ATOM     24  C   UNL     1      48.133  10.380  18.129  0.00  0.00    +0.000 A 
ATOM     25  N   UNL     1      47.980   9.632  19.217  0.00  0.00    +0.000 NA
ATOM     26  C   UNL     1      48.085   8.315  18.970  0.00  0.00    +0.000 A 
ATOM     27  S   UNL     1      47.929   7.208  20.245  0.00  0.00    +0.000 S 
ATOM     28  C   UNL     1      48.146   5.890  19.195  0.00  0.00    +0.000 A 
ATOM     29  C   UNL     1      48.332   6.253  17.865  0.00  0.00    +0.000 A 
ATOM     30  C   UNL     1      48.324   7.710  17.739  0.00  0.00    +0.000 A 
BRANCH  22  32
ATOM     31  C   UNL     1      50.151   8.049  15.129  0.00  0.00    +0.000 C 
ATOM     32  O   UNL     1      48.760   8.186  15.407  0.00  0.00    +0.000 OA
ENDBRANCH  22  32
ENDBRANCH  18  29
ENDBRANCH   1  20
TORSDOF 8
ENDMDL
MODEL 6
REMARK VINA RESULT:    -7.299      2.503      3.413
REMARK INTER + INTRA:         -12.311
REMARK INTER:                 -11.147
REMARK INTRA:                  -1.164
REMARK UNBOUND:                -1.598
REMARK  Name = 
REMARK  9 active torsions:
REMARK  status: ('A' for Active; 'I' for Inactive)
REMARK    1  A    between atoms: C_1  and  O_2
REMARK    2  A    between atoms: O_2  and  C_3
REMARK    3  A    between atoms: C_10  and  C_11
REMARK    4  A    between atoms: N_13  and  C_14
REMARK    5  A    between atoms: C_14  and  C_15
REMARK    6  A    between atoms: C_18  and  C_19
REMARK    7  A    between atoms: C_19  and  N_20
REMARK    8  A    between atoms: N_20  and  C_21
REMARK    9  A    between atoms: C_21  and  C_22
REMARK                            x       y       z     vdW  Elec       q    Type
REMARK                         _______ _______ _______ _____ _____    ______ ____
ROOT
ATOM      1  C   UNL     1      47.337   4.228  14.844  0.00  0.00    +0.000 C 
ENDROOT
BRANCH   1   2
ATOM      2  C   UNL     1      46.433   4.337  13.639  0.00  0.00    +0.000 A 
ATOM      3  C   UNL     1      45.958   5.586  13.219  0.00  0.00    +0.000 A 
ATOM      4  C   UNL     1      45.091   5.688  12.126  0.00  0.00    +0.000 A 
ATOM      5  C   UNL     1      44.674   4.544  11.430  0.00  0.00    +0.000 A 
ATOM      6  C   UNL     1      45.138   3.293  11.859  0.00  0.00    +0.000 A 
ATOM      7  C   UNL     1      46.005   3.192  12.955  0.00  0.00    +0.000 A 
BRANCH   5   8
ATOM      8  C   UNL     1      43.727   4.662  10.256  0.00  0.00    +0.000 C 
BRANCH   8   9
ATOM      9  N   UNL     1      44.106   3.750   9.180  0.00  0.00    +0.000 NA
ATOM     10  H   UNL     1      43.305   3.614   8.565  0.00  0.00    +0.000 HD
BRANCH   9  11
ATOM     11  C   UNL     1      45.225   4.271   8.398  0.00  0.00    +0.000 C 
BRANCH  11  12
ATOM     12  C   UNL     1      46.076   3.144   7.864  0.00  0.00    +0.000 A 
ATOM     13  C   UNL     1      47.059   3.373   6.898  0.00  0.00    +0.000 A 
ATOM     14  C   UNL     1      47.805   2.297   6.438  0.00  0.00    +0.000 A 
ATOM     15  N   UNL     1      47.643   1.028   6.870  0.00  0.00    +0.000 NA
ATOM     16  C   UNL     1      46.691   0.826   7.804  0.00  0.00    +0.000 A 
ATOM     17  C   UNL     1      45.899   1.835   8.328  0.00  0.00    +0.000 A 
ENDBRANCH  11  12
ENDBRANCH   9  11
ENDBRANCH   8   9
ENDBRANCH   5   8
ENDBRANCH   1   2
BRANCH   1  20
ATOM     18  C   UNL     1      48.550   5.778  16.324  0.00  0.00    +0.000 C 
ATOM     19  O   UNL     1      49.376   4.914  16.613  0.00  0.00    +0.000 OA
ATOM     20  N   UNL     1      47.526   5.519  15.456  0.00  0.00    +0.000 N 
ATOM     21  H   UNL     1      46.852   6.239  15.237  0.00  0.00    +0.000 HD
BRANCH  18  29
ATOM     22  C   UNL     1      47.931   7.027  19.475  0.00  0.00    +0.000 A 
ATOM     23  N   UNL     1      47.829   7.753  20.606  0.00  0.00    +0.000 NA
ATOM     24  C   UNL     1      48.123   9.055  20.543  0.00  0.00    +0.000 A 
ATOM     25  N   UNL     1      48.500   9.740  19.468  0.00  0.00    +0.000 NA
ATOM     26  C   UNL     1      48.601   8.977  18.366  0.00  0.00    +0.000 A 
ATOM     27  S   UNL     1      49.059   9.686  16.895  0.00  0.00    +0.000 S 
ATOM     28  C   UNL     1      48.979   8.191  16.091  0.00  0.00    +0.000 A 
ATOM     29  C   UNL     1      48.615   7.129  16.912  0.00  0.00    +0.000 A 
ATOM     30  C   UNL     1      48.360   7.609  18.269  0.00  0.00    +0.000 A 
BRANCH  22  32
ATOM     31  C   UNL     1      48.655   4.923  20.200  0.00  0.00    +0.000 C 
ATOM     32  O   UNL     1      47.642   5.681  19.542  0.00  0.00    +0.000 OA
ENDBRANCH  22  32
ENDBRANCH  18  29
ENDBRANCH   1  20
TORSDOF 8
ENDMDL
