MODEL 1
REMARK VINA RESULT:    -8.757      0.000      0.000
REMARK INTER + INTRA:         -12.000
REMARK INTER:                 -11.317
REMARK INTRA:                  -0.684
REMARK UNBOUND:                -0.684
REMARK  Name = 
REMARK  5 active torsions:
REMARK  status: ('A' for Active; 'I' for Inactive)
REMARK    1  A    between atoms: C_2  and  C_4
REMARK    2  A    between atoms: C_7  and  N_8
REMARK    3  A    between atoms: N_8  and  C_9
REMARK    4  A    between atoms: C_9  and  C_10
REMARK    5  A    between atoms: C_15  and  C_16
REMARK                            x       y       z     vdW  Elec       q    Type
REMARK                         _______ _______ _______ _____ _____    ______ ____
ROOT
ATOM      1  C   UNL     1      43.620   4.539  11.208  0.00  0.00    +0.000 C 
ENDROOT
BRANCH   1   2
ATOM      2  C   UNL     1      44.907   4.866  11.933  0.00  0.00    +0.000 A 
ATOM      3  C   UNL     1      45.480   3.969  12.835  0.00  0.00    +0.000 A 
ATOM      4  C   UNL     1      46.658   4.313  13.488  0.00  0.00    +0.000 A 
ATOM      5  F   UNL     1      47.203   3.446  14.352  0.00  0.00    +0.000 F 
ATOM      6  C   UNL     1      47.282   5.537  13.267  0.00  0.00    +0.000 A 
ATOM      7  C   UNL     1      46.728   6.465  12.379  0.00  0.00    +0.000 A 
ATOM      8  C   UNL     1      45.539   6.109  11.718  0.00  0.00    +0.000 A 
BRANCH   7   9
ATOM      9  C   UNL     1      47.391   7.767  12.130  0.00  0.00    +0.000 C 
ATOM     10  C   UNL     1      48.700   7.863  11.825  0.00  0.00    +0.000 C 
ATOM     11  C   UNL     1      49.383   9.165  11.525  0.00  0.00    +0.000 C 
ATOM     12  O   UNL     1      48.458  10.223  11.272  0.00  0.00    +0.000 OA
ATOM     13  C   UNL     1      47.438  10.278  12.268  0.00  0.00    +0.000 C 
ATOM     14  C   UNL     1      46.560   9.028  12.194  0.00  0.00    +0.000 C 
ENDBRANCH   7   9
ENDBRANCH   1   2
BRANCH   1  15
ATOM     15  N   UNL     1      43.793   4.853   9.797  0.00  0.00    +0.000 N 
ATOM     16  H   UNL     1      44.043   5.826   9.647  0.00  0.00    +0.000 HD
BRANCH  15  20
ATOM     17  C   UNL     1      46.296   2.222   7.885  0.00  0.00    +0.000 A 
ATOM     18  C   UNL     1      46.347   3.579   7.602  0.00  0.00    +0.000 A 
ATOM     19  N   UNL     1      45.507   4.478   8.179  0.00  0.00    +0.000 NA
ATOM     20  C   UNL     1      44.608   3.992   9.059  0.00  0.00    +0.000 A 
ATOM     21  C   UNL     1      44.564   2.612   9.318  0.00  0.00    +0.000 A 
ATOM     22  N   UNL     1      45.385   1.693   8.744  0.00  0.00    +0.000 NA
BRANCH  17  24
ATOM     23  N   UNL     1      48.331   1.893   6.608  0.00  0.00    +0.000 N 
ATOM     24  C   UNL     1      47.279   1.301   7.254  0.00  0.00    +0.000 C 
ATOM     25  O   UNL     1      47.163   0.086   7.311  0.00  0.00    +0.000 OA
ATOM     26  H   UNL     1      49.048   1.307   6.206  0.00  0.00    +0.000 HD
ATOM     27  H   UNL     1      48.455   2.898   6.645  0.00  0.00    +0.000 HD
ENDBRANCH  17  24
ENDBRANCH  15  20
ENDBRANCH   1  15
TORSDOF 5
ENDMDL
MODEL 2
REMARK VINA RESULT:    -8.550      2.471      3.571
REMARK INTER + INTRA:         -11.733
REMARK INTER:                 -11.020
REMARK INTRA:                  -0.713
REMARK UNBOUND:                -0.684
REMARK  Name = 
REMARK  5 active torsions:
REMARK  status: ('A' for Active; 'I' for Inactive)
REMARK    1  A    between atoms: C_2  and  C_4
REMARK    2  A    between atoms: C_7  and  N_8
REMARK    3  A    between atoms: N_8  and  C_9
REMARK    4  A    between atoms: C_9  and  C_10
REMARK    5  A    between atoms: C_15  and  C_16
REMARK                            x       y       z     vdW  Elec       q    Type
REMARK                         _______ _______ _______ _____ _____    ______ ____
ROOT
ATOM      1  C   UNL     1      43.742   4.574  11.279  0.00  0.00    +0.000 C 
ENDROOT
BRANCH   1   2
ATOM      2  C   UNL     1      44.807   5.429  11.929  0.00  0.00    +0.000 A 
ATOM      3  C   UNL     1      45.089   6.715  11.466  0.00  0.00    +0.000 A 
ATOM      4  C   UNL     1      46.083   7.464  12.085  0.00  0.00    +0.000 A 
ATOM      5  F   UNL     1      46.346   8.699  11.635  0.00  0.00    +0.000 F 
ATOM      6  C   UNL     1      46.812   6.960  13.157  0.00  0.00    +0.000 A 
ATOM      7  C   UNL     1      46.566   5.670  13.639  0.00  0.00    +0.000 A 
ATOM      8  C   UNL     1      45.555   4.919  13.012  0.00  0.00    +0.000 A 
BRANCH   7   9
ATOM      9  C   UNL     1      47.331   5.130  14.787  0.00  0.00    +0.000 C 
ATOM     10  C   UNL     1      47.154   3.875  15.245  0.00  0.00    +0.000 C 
ATOM     11  C   UNL     1      47.948   3.291  16.376  0.00  0.00    +0.000 C 
ATOM     12  O   UNL     1      49.109   4.063  16.685  0.00  0.00    +0.000 OA
ATOM     13  C   UNL     1      48.802   5.451  16.802  0.00  0.00    +0.000 C 
ATOM     14  C   UNL     1      48.367   6.011  15.447  0.00  0.00    +0.000 C 
ENDBRANCH   7   9
ENDBRANCH   1   2
BRANCH   1  15
ATOM     15  N   UNL     1      43.764   4.823   9.845  0.00  0.00    +0.000 N 
ATOM     16  H   UNL     1      43.917   5.802   9.626  0.00  0.00    +0.000 HD
BRANCH  15  20
ATOM     17  C   UNL     1      46.287   2.281   7.841  0.00  0.00    +0.000 A 
ATOM     18  C   UNL     1      46.259   3.634   7.537  0.00  0.00    +0.000 A 
ATOM     19  N   UNL     1      45.408   4.502   8.145  0.00  0.00    +0.000 NA
ATOM     20  C   UNL     1      44.579   3.989   9.077  0.00  0.00    +0.000 A 
ATOM     21  C   UNL     1      44.615   2.612   9.357  0.00  0.00    +0.000 A 
ATOM     22  N   UNL     1      45.448   1.724   8.754  0.00  0.00    +0.000 NA
BRANCH  17  24
ATOM     23  N   UNL     1      48.359   2.021   6.608  0.00  0.00    +0.000 N 
ATOM     24  C   UNL     1      47.280   1.396   7.173  0.00  0.00    +0.000 C 
ATOM     25  O   UNL     1      47.147   0.182   7.132  0.00  0.00    +0.000 OA
ATOM     26  H   UNL     1      49.081   1.457   6.184  0.00  0.00    +0.000 HD
ATOM     27  H   UNL     1      48.493   3.018   6.725  0.00  0.00    +0.000 HD
ENDBRANCH  17  24
ENDBRANCH  15  20
ENDBRANCH   1  15
TORSDOF 5
ENDMDL
MODEL 3
REMARK VINA RESULT:    -7.876      2.080      2.660
REMARK INTER + INTRA:         -10.862
REMARK INTER:                 -10.197
REMARK INTRA:                  -0.665
REMARK UNBOUND:                -0.684
REMARK  Name = 
REMARK  5 active torsions:
REMARK  status: ('A' for Active; 'I' for Inactive)
REMARK    1  A    between atoms: C_2  and  C_4
REMARK    2  A    between atoms: C_7  and  N_8
REMARK    3  A    between atoms: N_8  and  C_9
REMARK    4  A    between atoms: C_9  and  C_10
REMARK    5  A    between atoms: C_15  and  C_16
REMARK                            x       y       z     vdW  Elec       q    Type
REMARK                         _______ _______ _______ _____ _____    ______ ____
ROOT
ATOM      1  C   UNL     1      44.175   4.922  11.266  0.00  0.00    +0.000 C 
ENDROOT
BRANCH   1   2
ATOM      2  C   UNL     1      44.787   6.283  11.516  0.00  0.00    +0.000 A 
ATOM      3  C   UNL     1      44.062   7.456  11.300  0.00  0.00    +0.000 A 
ATOM      4  C   UNL     1      44.666   8.686  11.531  0.00  0.00    +0.000 A 
ATOM      5  F   UNL     1      43.963   9.808  11.324  0.00  0.00    +0.000 F 
ATOM      6  C   UNL     1      45.983   8.780  11.970  0.00  0.00    +0.000 A 
ATOM      7  C   UNL     1      46.743   7.625  12.184  0.00  0.00    +0.000 A 
ATOM      8  C   UNL     1      46.125   6.382  11.953  0.00  0.00    +0.000 A 
BRANCH   7   9
ATOM      9  C   UNL     1      48.143   7.715  12.661  0.00  0.00    +0.000 C 
ATOM     10  C   UNL     1      49.178   7.920  11.823  0.00  0.00    +0.000 C 
ATOM     11  C   UNL     1      50.598   8.059  12.286  0.00  0.00    +0.000 C 
ATOM     12  O   UNL     1      50.696   8.285  13.693  0.00  0.00    +0.000 OA
ATOM     13  C   UNL     1      49.896   7.360  14.430  0.00  0.00    +0.000 C 
ATOM     14  C   UNL     1      48.413   7.601  14.144  0.00  0.00    +0.000 C 
ENDBRANCH   7   9
ENDBRANCH   1   2
BRANCH   1  15
ATOM     15  N   UNL     1      43.835   4.821   9.854  0.00  0.00    +0.000 N 
ATOM     16  H   UNL     1      43.687   5.731   9.428  0.00  0.00    +0.000 HD
BRANCH  15  20
ATOM     17  C   UNL     1      46.376   2.339   7.797  0.00  0.00    +0.000 A 
ATOM     18  C   UNL     1      46.373   3.705   7.555  0.00  0.00    +0.000 A 
ATOM     19  N   UNL     1      45.518   4.557   8.181  0.00  0.00    +0.000 NA
ATOM     20  C   UNL     1      44.659   4.012   9.068  0.00  0.00    +0.000 A 
ATOM     21  C   UNL     1      44.671   2.624   9.285  0.00  0.00    +0.000 A 
ATOM     22  N   UNL     1      45.507   1.753   8.662  0.00  0.00    +0.000 NA
BRANCH  17  24
ATOM     23  N   UNL     1      48.408   2.120   6.491  0.00  0.00    +0.000 N 
ATOM     24  C   UNL     1      47.373   1.473   7.113  0.00  0.00    +0.000 C 
ATOM     25  O   UNL     1      47.283   0.255   7.106  0.00  0.00    +0.000 OA
ATOM     26  H   UNL     1      49.133   1.571   6.054  0.00  0.00    +0.000 HD
ATOM     27  H   UNL     1      48.511   3.124   6.579  0.00  0.00    +0.000 HD
ENDBRANCH  17  24
ENDBRANCH  15  20
ENDBRANCH   1  15
TORSDOF 5
ENDMDL
MODEL 4
REMARK VINA RESULT:    -7.517      4.071      7.150
REMARK INTER + INTRA:         -10.398
REMARK INTER:                 -10.145
REMARK INTRA:                  -0.253
REMARK UNBOUND:                -0.684
REMARK  Name = 
REMARK  5 active torsions:
REMARK  status: ('A' for Active; 'I' for Inactive)
REMARK    1  A    between atoms: C_2  and  C_4
REMARK    2  A    between atoms: C_7  and  N_8
REMARK    3  A    between atoms: N_8  and  C_9
REMARK    4  A    between atoms: C_9  and  C_10
REMARK    5  A    between atoms: C_15  and  C_16
REMARK                            x       y       z     vdW  Elec       q    Type
REMARK                         _______ _______ _______ _____ _____    ______ ____
ROOT
ATOM      1  C   UNL     1      46.444   7.434  12.427  0.00  0.00    +0.000 C 
ENDROOT
BRANCH   1   2
ATOM      2  C   UNL     1      45.423   6.554  11.743  0.00  0.00    +0.000 A 
ATOM      3  C   UNL     1      44.064   6.649  12.044  0.00  0.00    +0.000 A 
ATOM      4  C   UNL     1      43.160   5.814  11.399  0.00  0.00    +0.000 A 
ATOM      5  F   UNL     1      41.855   5.912  11.693  0.00  0.00    +0.000 F 
ATOM      6  C   UNL     1      43.576   4.876  10.460  0.00  0.00    +0.000 A 
ATOM      7  C   UNL     1      44.933   4.744  10.143  0.00  0.00    +0.000 A 
ATOM      8  C   UNL     1      45.843   5.596  10.795  0.00  0.00    +0.000 A 
BRANCH   7   9
ATOM      9  C   UNL     1      45.385   3.755   9.137  0.00  0.00    +0.000 C 
ATOM     10  C   UNL     1      45.911   4.120   7.952  0.00  0.00    +0.000 C 
ATOM     11  C   UNL     1      46.417   3.139   6.936  0.00  0.00    +0.000 C 
ATOM     12  O   UNL     1      46.589   1.829   7.479  0.00  0.00    +0.000 OA
ATOM     13  C   UNL     1      45.443   1.413   8.221  0.00  0.00    +0.000 C 
ATOM     14  C   UNL     1      45.276   2.283   9.467  0.00  0.00    +0.000 C 
ENDBRANCH   7   9
ENDBRANCH   1   2
BRANCH   1  15
ATOM     15  N   UNL     1      47.639   6.642  12.684  0.00  0.00    +0.000 N 
ATOM     16  H   UNL     1      48.491   7.182  12.572  0.00  0.00    +0.000 HD
BRANCH  15  20
ATOM     17  C   UNL     1      47.390   4.501  16.178  0.00  0.00    +0.000 A 
ATOM     18  C   UNL     1      48.266   5.570  16.064  0.00  0.00    +0.000 A 
ATOM     19  N   UNL     1      48.412   6.278  14.913  0.00  0.00    +0.000 NA
ATOM     20  C   UNL     1      47.653   5.896  13.865  0.00  0.00    +0.000 A 
ATOM     21  C   UNL     1      46.784   4.800  13.998  0.00  0.00    +0.000 A 
ATOM     22  N   UNL     1      46.631   4.071  15.135  0.00  0.00    +0.000 NA
BRANCH  17  24
ATOM     23  N   UNL     1      47.674   4.492  18.586  0.00  0.00    +0.000 N 
ATOM     24  C   UNL     1      47.244   3.803  17.483  0.00  0.00    +0.000 C 
ATOM     25  O   UNL     1      46.765   2.683  17.574  0.00  0.00    +0.000 OA
ATOM     26  H   UNL     1      47.553   4.077  19.498  0.00  0.00    +0.000 HD
ATOM     27  H   UNL     1      47.990   5.451  18.500  0.00  0.00    +0.000 HD
ENDBRANCH  17  24
ENDBRANCH  15  20
ENDBRANCH   1  15
TORSDOF 5
ENDMDL
MODEL 5
REMARK VINA RESULT:    -7.005      5.685      7.896
REMARK INTER + INTRA:          -9.736
REMARK INTER:                  -9.110
REMARK INTRA:                  -0.626
REMARK UNBOUND:                -0.684
REMARK  Name = 
REMARK  5 active torsions:
REMARK  status: ('A' for Active; 'I' for Inactive)
REMARK    1  A    between atoms: C_2  and  C_4
REMARK    2  A    between atoms: C_7  and  N_8
REMARK    3  A    between atoms: N_8  and  C_9
REMARK    4  A    between atoms: C_9  and  C_10
REMARK    5  A    between atoms: C_15  and  C_16
REMARK                            x       y       z     vdW  Elec       q    Type
REMARK                         _______ _______ _______ _____ _____    ______ ____
ROOT
ATOM      1  C   UNL     1      48.617   6.485  15.708  0.00  0.00    +0.000 C 
ENDROOT
BRANCH   1   2
ATOM      2  C   UNL     1      48.093   6.516  14.289  0.00  0.00    +0.000 A 
ATOM      3  C   UNL     1      48.752   7.227  13.287  0.00  0.00    +0.000 A 
ATOM      4  C   UNL     1      48.231   7.238  11.999  0.00  0.00    +0.000 A 
ATOM      5  F   UNL     1      48.871   7.923  11.040  0.00  0.00    +0.000 F 
ATOM      6  C   UNL     1      47.060   6.558  11.681  0.00  0.00    +0.000 A 
ATOM      7  C   UNL     1      46.366   5.845  12.664  0.00  0.00    +0.000 A 
ATOM      8  C   UNL     1      46.901   5.834  13.966  0.00  0.00    +0.000 A 
BRANCH   7   9
ATOM      9  C   UNL     1      45.123   5.109  12.333  0.00  0.00    +0.000 C 
ATOM     10  C   UNL     1      43.963   5.739  12.059  0.00  0.00    +0.000 C 
ATOM     11  C   UNL     1      42.704   5.018  11.677  0.00  0.00    +0.000 C 
ATOM     12  O   UNL     1      42.941   3.657  11.315  0.00  0.00    +0.000 OA
ATOM     13  C   UNL     1      43.763   2.993  12.275  0.00  0.00    +0.000 C 
ATOM     14  C   UNL     1      45.167   3.599  12.274  0.00  0.00    +0.000 C 
ENDBRANCH   7   9
ENDBRANCH   1   2
BRANCH   1  15
ATOM     15  N   UNL     1      48.066   5.315  16.378  0.00  0.00    +0.000 N 
ATOM     16  H   UNL     1      47.291   4.907  15.864  0.00  0.00    +0.000 HD
BRANCH  15  20
ATOM     17  C   UNL     1      50.950   2.585  17.416  0.00  0.00    +0.000 A 
ATOM     18  C   UNL     1      49.738   2.167  16.888  0.00  0.00    +0.000 A 
ATOM     19  N   UNL     1      48.739   3.033  16.572  0.00  0.00    +0.000 NA
ATOM     20  C   UNL     1      48.979   4.342  16.791  0.00  0.00    +0.000 A 
ATOM     21  C   UNL     1      50.209   4.742  17.342  0.00  0.00    +0.000 A 
ATOM     22  N   UNL     1      51.216   3.893  17.676  0.00  0.00    +0.000 NA
BRANCH  17  24
ATOM     23  N   UNL     1      51.593   0.334  18.049  0.00  0.00    +0.000 N 
ATOM     24  C   UNL     1      52.017   1.587  17.692  0.00  0.00    +0.000 C 
ATOM     25  O   UNL     1      53.205   1.860  17.602  0.00  0.00    +0.000 OA
ATOM     26  H   UNL     1      52.282  -0.388  18.200  0.00  0.00    +0.000 HD
ATOM     27  H   UNL     1      50.607   0.105  18.036  0.00  0.00    +0.000 HD
ENDBRANCH  17  24
ENDBRANCH  15  20
ENDBRANCH   1  15
TORSDOF 5
ENDMDL
MODEL 6
REMARK VINA RESULT:    -6.851      4.870      7.906
REMARK INTER + INTRA:          -9.537
REMARK INTER:                  -9.057
REMARK INTRA:                  -0.480
REMARK UNBOUND:                -0.684
REMARK  Name = 
REMARK  5 active torsions:
REMARK  status: ('A' for Active; 'I' for Inactive)
REMARK    1  A    between atoms: C_2  and  C_4
REMARK    2  A    between atoms: C_7  and  N_8
REMARK    3  A    between atoms: N_8  and  C_9
REMARK    4  A    between atoms: C_9  and  C_10
REMARK    5  A    between atoms: C_15  and  C_16
REMARK                            x       y       z     vdW  Elec       q    Type
REMARK                         _______ _______ _______ _____ _____    ______ ____
ROOT
ATOM      1  C   UNL     1      46.075   5.520  13.953  0.00  0.00    +0.000 C 
ENDROOT
BRANCH   1   2
ATOM      2  C   UNL     1      45.159   5.218  12.788  0.00  0.00    +0.000 A 
ATOM      3  C   UNL     1      43.803   5.542  12.828  0.00  0.00    +0.000 A 
ATOM      4  C   UNL     1      42.994   5.239  11.740  0.00  0.00    +0.000 A 
ATOM      5  F   UNL     1      41.691   5.554  11.786  0.00  0.00    +0.000 F 
ATOM      6  C   UNL     1      43.502   4.612  10.607  0.00  0.00    +0.000 A 
ATOM      7  C   UNL     1      44.855   4.262  10.537  0.00  0.00    +0.000 A 
ATOM      8  C   UNL     1      45.670   4.576  11.640  0.00  0.00    +0.000 A 
BRANCH   7   9
ATOM      9  C   UNL     1      45.408   3.604   9.330  0.00  0.00    +0.000 C 
ATOM     10  C   UNL     1      45.470   2.264   9.204  0.00  0.00    +0.000 C 
ATOM     11  C   UNL     1      45.984   1.575   7.974  0.00  0.00    +0.000 C 
ATOM     12  O   UNL     1      46.080   2.455   6.854  0.00  0.00    +0.000 OA
ATOM     13  C   UNL     1      46.739   3.673   7.197  0.00  0.00    +0.000 C 
ATOM     14  C   UNL     1      45.892   4.470   8.189  0.00  0.00    +0.000 C 
ENDBRANCH   7   9
ENDBRANCH   1   2
BRANCH   1  15
ATOM     15  N   UNL     1      46.402   4.267  14.619  0.00  0.00    +0.000 N 
ATOM     16  H   UNL     1      46.646   3.533  13.961  0.00  0.00    +0.000 HD
BRANCH  15  20
ATOM     17  C   UNL     1      48.853   4.518  17.902  0.00  0.00    +0.000 A 
ATOM     18  C   UNL     1      49.040   5.358  16.814  0.00  0.00    +0.000 A 
ATOM     19  N   UNL     1      48.280   5.279  15.690  0.00  0.00    +0.000 NA
ATOM     20  C   UNL     1      47.314   4.337  15.674  0.00  0.00    +0.000 A 
ATOM     21  C   UNL     1      47.153   3.487  16.782  0.00  0.00    +0.000 A 
ATOM     22  N   UNL     1      47.909   3.540  17.910  0.00  0.00    +0.000 NA
BRANCH  17  24
ATOM     23  N   UNL     1      50.889   4.036  19.127  0.00  0.00    +0.000 N 
ATOM     24  C   UNL     1      49.688   4.694  19.120  0.00  0.00    +0.000 C 
ATOM     25  O   UNL     1      49.331   5.387  20.061  0.00  0.00    +0.000 OA
ATOM     26  H   UNL     1      51.510   4.163  19.913  0.00  0.00    +0.000 HD
ATOM     27  H   UNL     1      51.204   3.535  18.305  0.00  0.00    +0.000 HD
ENDBRANCH  17  24
ENDBRANCH  15  20
ENDBRANCH   1  15
TORSDOF 5
ENDMDL
MODEL 7
REMARK VINA RESULT:    -6.609      5.799      7.480
REMARK INTER + INTRA:          -9.224
REMARK INTER:                  -8.706
REMARK INTRA:                  -0.518
REMARK UNBOUND:                -0.684
REMARK  Name = 
REMARK  5 active torsions:
REMARK  status: ('A' for Active; 'I' for Inactive)
REMARK    1  A    between atoms: C_2  and  C_4
REMARK    2  A    between atoms: C_7  and  N_8
REMARK    3  A    between atoms: N_8  and  C_9
REMARK    4  A    between atoms: C_9  and  C_10
REMARK    5  A    between atoms: C_15  and  C_16
REMARK                            x       y       z     vdW  Elec       q    Type
REMARK                         _______ _______ _______ _____ _____    ______ ____
ROOT
ATOM      1  C   UNL     1      47.151   4.174  16.218  0.00  0.00    +0.000 C 
ENDROOT
BRANCH   1   2
ATOM      2  C   UNL     1      48.320   4.476  17.129  0.00  0.00    +0.000 A 
ATOM      3  C   UNL     1      48.362   5.642  17.894  0.00  0.00    +0.000 A 
ATOM      4  C   UNL     1      49.459   5.886  18.711  0.00  0.00    +0.000 A 
ATOM      5  F   UNL     1      49.492   7.008  19.444  0.00  0.00    +0.000 F 
ATOM      6  C   UNL     1      50.525   4.996  18.783  0.00  0.00    +0.000 A 
ATOM      7  C   UNL     1      50.523   3.823  18.020  0.00  0.00    +0.000 A 
ATOM      8  C   UNL     1      49.407   3.579  17.199  0.00  0.00    +0.000 A 
BRANCH   7   9
ATOM      9  C   UNL     1      51.650   2.864  18.098  0.00  0.00    +0.000 C 
ATOM     10  C   UNL     1      52.827   3.179  18.672  0.00  0.00    +0.000 C 
ATOM     11  C   UNL     1      53.966   2.212  18.803  0.00  0.00    +0.000 C 
ATOM     12  O   UNL     1      53.566   0.861  18.567  0.00  0.00    +0.000 OA
ATOM     13  C   UNL     1      52.792   0.742  17.374  0.00  0.00    +0.000 C 
ATOM     14  C   UNL     1      51.458   1.473  17.537  0.00  0.00    +0.000 C 
ENDBRANCH   7   9
ENDBRANCH   1   2
BRANCH   1  15
ATOM     15  N   UNL     1      47.143   5.152  15.139  0.00  0.00    +0.000 N 
ATOM     16  H   UNL     1      48.069   5.522  14.948  0.00  0.00    +0.000 HD
BRANCH  15  20
ATOM     17  C   UNL     1      44.959   4.194  11.798  0.00  0.00    +0.000 A 
ATOM     18  C   UNL     1      45.617   3.209  12.520  0.00  0.00    +0.000 A 
ATOM     19  N   UNL     1      46.386   3.487  13.605  0.00  0.00    +0.000 NA
ATOM     20  C   UNL     1      46.484   4.784  13.964  0.00  0.00    +0.000 A 
ATOM     21  C   UNL     1      45.821   5.766  13.209  0.00  0.00    +0.000 A 
ATOM     22  N   UNL     1      45.058   5.512  12.114  0.00  0.00    +0.000 NA
BRANCH  17  24
ATOM     23  N   UNL     1      43.773   4.817   9.777  0.00  0.00    +0.000 N 
ATOM     24  C   UNL     1      44.093   3.813  10.651  0.00  0.00    +0.000 C 
ATOM     25  O   UNL     1      43.691   2.670  10.489  0.00  0.00    +0.000 OA
ATOM     26  H   UNL     1      43.225   4.595   8.959  0.00  0.00    +0.000 HD
ATOM     27  H   UNL     1      44.184   5.737   9.882  0.00  0.00    +0.000 HD
ENDBRANCH  17  24
ENDBRANCH  15  20
ENDBRANCH   1  15
TORSDOF 5
ENDMDL
MODEL 8
REMARK VINA RESULT:    -6.360      5.394      7.918
REMARK INTER + INTRA:          -8.902
REMARK INTER:                  -8.394
REMARK INTRA:                  -0.509
REMARK UNBOUND:                -0.684
REMARK  Name = 
REMARK  5 active torsions:
REMARK  status: ('A' for Active; 'I' for Inactive)
REMARK    1  A    between atoms: C_2  and  C_4
REMARK    2  A    between atoms: C_7  and  N_8
REMARK    3  A    between atoms: N_8  and  C_9
REMARK    4  A    between atoms: C_9  and  C_10
REMARK    5  A    between atoms: C_15  and  C_16
REMARK                            x       y       z     vdW  Elec       q    Type
REMARK                         _______ _______ _______ _____ _____    ______ ____
ROOT
ATOM      1  C   UNL     1      48.552   7.324  13.905  0.00  0.00    +0.000 C 
ENDROOT
BRANCH   1   2
ATOM      2  C   UNL     1      47.299   7.395  13.060  0.00  0.00    +0.000 A 
ATOM      3  C   UNL     1      46.478   8.523  13.071  0.00  0.00    +0.000 A 
ATOM      4  C   UNL     1      45.330   8.543  12.288  0.00  0.00    +0.000 A 
ATOM      5  F   UNL     1      44.548   9.631  12.302  0.00  0.00    +0.000 F 
ATOM      6  C   UNL     1      44.973   7.459  11.493  0.00  0.00    +0.000 A 
ATOM      7  C   UNL     1      45.765   6.306  11.468  0.00  0.00    +0.000 A 
ATOM      8  C   UNL     1      46.929   6.294  12.259  0.00  0.00    +0.000 A 
BRANCH   7   9
ATOM      9  C   UNL     1      45.397   5.150  10.616  0.00  0.00    +0.000 C 
ATOM     10  C   UNL     1      45.606   5.139   9.285  0.00  0.00    +0.000 C 
ATOM     11  C   UNL     1      45.284   3.965   8.410  0.00  0.00    +0.000 C 
ATOM     12  O   UNL     1      45.055   2.770   9.158  0.00  0.00    +0.000 OA
ATOM     13  C   UNL     1      44.155   2.995  10.243  0.00  0.00    +0.000 C 
ATOM     14  C   UNL     1      44.792   3.930  11.272  0.00  0.00    +0.000 C 
ENDBRANCH   7   9
ENDBRANCH   1   2
BRANCH   1  15
ATOM     15  N   UNL     1      48.160   7.222  15.303  0.00  0.00    +0.000 N 
ATOM     16  H   UNL     1      47.161   7.073  15.413  0.00  0.00    +0.000 HD
BRANCH  15  20
ATOM     17  C   UNL     1      50.505   4.586  17.401  0.00  0.00    +0.000 A 
ATOM     18  C   UNL     1      49.129   4.419  17.346  0.00  0.00    +0.000 A 
ATOM     19  N   UNL     1      48.312   5.292  16.701  0.00  0.00    +0.000 NA
ATOM     20  C   UNL     1      48.901   6.346  16.099  0.00  0.00    +0.000 A 
ATOM     21  C   UNL     1      50.295   6.503  16.181  0.00  0.00    +0.000 A 
ATOM     22  N   UNL     1      51.130   5.650  16.831  0.00  0.00    +0.000 NA
BRANCH  17  24
ATOM     23  N   UNL     1      51.773   3.881  19.344  0.00  0.00    +0.000 N 
ATOM     24  C   UNL     1      51.344   3.565  18.083  0.00  0.00    +0.000 C 
ATOM     25  O   UNL     1      51.633   2.501  17.555  0.00  0.00    +0.000 OA
ATOM     26  H   UNL     1      52.307   3.199  19.863  0.00  0.00    +0.000 HD
ATOM     27  H   UNL     1      51.454   4.730  19.796  0.00  0.00    +0.000 HD
ENDBRANCH  17  24
ENDBRANCH  15  20
ENDBRANCH   1  15
TORSDOF 5
ENDMDL
MODEL 9
REMARK VINA RESULT:    -5.874      4.498      6.163
REMARK INTER + INTRA:          -8.275
REMARK INTER:                  -7.699
REMARK INTRA:                  -0.576
REMARK UNBOUND:                -0.684
REMARK  Name = 
REMARK  5 active torsions:
REMARK  status: ('A' for Active; 'I' for Inactive)
REMARK    1  A    between atoms: C_2  and  C_4
REMARK    2  A    between atoms: C_7  and  N_8
REMARK    3  A    between atoms: N_8  and  C_9
REMARK    4  A    between atoms: C_9  and  C_10
REMARK    5  A    between atoms: C_15  and  C_16
REMARK                            x       y       z     vdW  Elec       q    Type
REMARK                         _______ _______ _______ _____ _____    ______ ____
ROOT
ATOM      1  C   UNL     1      47.528   7.735  13.160  0.00  0.00    +0.000 C 
ENDROOT
BRANCH   1   2
ATOM      2  C   UNL     1      48.110   7.780  14.555  0.00  0.00    +0.000 A 
ATOM      3  C   UNL     1      48.122   8.961  15.299  0.00  0.00    +0.000 A 
ATOM      4  C   UNL     1      48.677   8.962  16.573  0.00  0.00    +0.000 A 
ATOM      5  F   UNL     1      48.684  10.100  17.282  0.00  0.00    +0.000 F 
ATOM      6  C   UNL     1      49.227   7.812  17.129  0.00  0.00    +0.000 A 
ATOM      7  C   UNL     1      49.243   6.613  16.407  0.00  0.00    +0.000 A 
ATOM      8  C   UNL     1      48.676   6.617  15.119  0.00  0.00    +0.000 A 
BRANCH   7   9
ATOM      9  C   UNL     1      49.817   5.380  16.994  0.00  0.00    +0.000 C 
ATOM     10  C   UNL     1      49.068   4.295  17.271  0.00  0.00    +0.000 C 
ATOM     11  C   UNL     1      49.635   3.021  17.824  0.00  0.00    +0.000 C 
ATOM     12  O   UNL     1      51.057   2.961  17.712  0.00  0.00    +0.000 OA
ATOM     13  C   UNL     1      51.672   4.161  18.179  0.00  0.00    +0.000 C 
ATOM     14  C   UNL     1      51.304   5.331  17.265  0.00  0.00    +0.000 C 
ENDBRANCH   7   9
ENDBRANCH   1   2
BRANCH   1  15
ATOM     15  N   UNL     1      46.076   7.696  13.267  0.00  0.00    +0.000 N 
ATOM     16  H   UNL     1      45.641   8.543  12.913  0.00  0.00    +0.000 HD
BRANCH  15  20
ATOM     17  C   UNL     1      44.482   4.222  11.771  0.00  0.00    +0.000 A 
ATOM     18  C   UNL     1      44.072   5.455  11.286  0.00  0.00    +0.000 A 
ATOM     19  N   UNL     1      44.541   6.630  11.783  0.00  0.00    +0.000 NA
ATOM     20  C   UNL     1      45.442   6.550  12.783  0.00  0.00    +0.000 A 
ATOM     21  C   UNL     1      45.832   5.290  13.270  0.00  0.00    +0.000 A 
ATOM     22  N   UNL     1      45.367   4.104  12.796  0.00  0.00    +0.000 NA
BRANCH  17  24
ATOM     23  N   UNL     1      44.706   2.469  10.111  0.00  0.00    +0.000 N 
ATOM     24  C   UNL     1      43.966   2.975  11.146  0.00  0.00    +0.000 C 
ATOM     25  O   UNL     1      42.944   2.427  11.532  0.00  0.00    +0.000 OA
ATOM     26  H   UNL     1      44.419   1.599   9.687  0.00  0.00    +0.000 HD
ATOM     27  H   UNL     1      45.593   2.890   9.862  0.00  0.00    +0.000 HD
ENDBRANCH  17  24
ENDBRANCH  15  20
ENDBRANCH   1  15
TORSDOF 5
ENDMDL
