MODEL 1
REMARK VINA RESULT:    -7.700      0.000      0.000
REMARK INTER + INTRA:         -10.299
REMARK INTER:                  -9.725
REMARK INTRA:                  -0.574
REMARK UNBOUND:                -0.574
REMARK  Name = 
REMARK  5 active torsions:
REMARK  status: ('A' for Active; 'I' for Inactive)
REMARK    1  A    between atoms: N_1  and  C_2
REMARK    2  A    between atoms: C_2  and  C_3
REMARK    3  A    between atoms: C_3  and  C_4
REMARK    4  A    between atoms: C_7  and  C_8
REMARK    5  A    between atoms: C_8  and  N_9
REMARK                            x       y       z     vdW  Elec       q    Type
REMARK                         _______ _______ _______ _____ _____    ______ ____
ROOT
ATOM      1  C   UNL     1      46.149   2.206   7.769  0.00  0.00    +0.000 A 
ATOM      2  C   UNL     1      45.351   1.633   8.766  0.00  0.00    +0.000 A 
ATOM      3  C   UNL     1      44.576   2.438   9.608  0.00  0.00    +0.000 A 
ATOM      4  C   UNL     1      44.577   3.832   9.465  0.00  0.00    +0.000 A 
ATOM      5  C   UNL     1      45.359   4.401   8.449  0.00  0.00    +0.000 A 
ATOM      6  C   UNL     1      46.131   3.596   7.607  0.00  0.00    +0.000 A 
ENDROOT
BRANCH   1   7
ATOM      7  C   UNL     1      47.032   1.341   6.898  0.00  0.00    +0.000 C 
BRANCH   7   8
ATOM      8  C   UNL     1      48.310   2.051   6.448  0.00  0.00    +0.000 C 
BRANCH   8   9
ATOM      9  N   UNL     1      48.315   2.241   4.997  0.00  0.00    +0.000 NA
ATOM     10  H   UNL     1      47.371   2.111   4.634  0.00  0.00    +0.000 HD
ATOM     11  H   UNL     1      48.889   1.519   4.558  0.00  0.00    +0.000 HD
ENDBRANCH   8   9
ENDBRANCH   7   8
ENDBRANCH   1   7
BRANCH   4  12
ATOM     12  C   UNL     1      43.761   4.703  10.383  0.00  0.00    +0.000 C 
BRANCH  12  13
ATOM     13  N   UNL     1      44.339   4.808  11.713  0.00  0.00    +0.000 N 
ATOM     14  C   UNL     1      43.910   4.109  12.812  0.00  0.00    +0.000 A 
ATOM     15  N   UNL     1      44.711   4.272  13.840  0.00  0.00    +0.000 NA
ATOM     16  C   UNL     1      45.697   5.103  13.392  0.00  0.00    +0.000 A 
ATOM     17  N   UNL     1      46.760   5.510  14.119  0.00  0.00    +0.000 NA
ATOM     18  C   UNL     1      47.619   6.311  13.453  0.00  0.00    +0.000 A 
ATOM     19  C   UNL     1      47.478   6.734  12.137  0.00  0.00    +0.000 A 
ATOM     20  C   UNL     1      46.377   6.311  11.394  0.00  0.00    +0.000 A 
ATOM     21  C   UNL     1      45.489   5.469  12.064  0.00  0.00    +0.000 A 
ENDBRANCH  12  13
ENDBRANCH   4  12
TORSDOF 5
ENDMDL
MODEL 2
REMARK VINA RESULT:    -7.176      1.306      1.731
REMARK INTER + INTRA:          -9.638
REMARK INTER:                  -9.124
REMARK INTRA:                  -0.513
REMARK UNBOUND:                -0.574
REMARK  Name = 
REMARK  5 active torsions:
REMARK  status: ('A' for Active; 'I' for Inactive)
REMARK    1  A    between atoms: N_1  and  C_2
REMARK    2  A    between atoms: C_2  and  C_3
REMARK    3  A    between atoms: C_3  and  C_4
REMARK    4  A    between atoms: C_7  and  C_8
REMARK    5  A    between atoms: C_8  and  N_9
REMARK                            x       y       z     vdW  Elec       q    Type
REMARK                         _______ _______ _______ _____ _____    ______ ____
ROOT
ATOM      1  C   UNL     1      45.937   2.520   8.091  0.00  0.00    +0.000 A 
ATOM      2  C   UNL     1      45.079   1.960   9.046  0.00  0.00    +0.000 A 
ATOM      3  C   UNL     1      44.377   2.776   9.938  0.00  0.00    +0.000 A 
ATOM      4  C   UNL     1      44.511   4.170   9.889  0.00  0.00    +0.000 A 
ATOM      5  C   UNL     1      45.351   4.730   8.915  0.00  0.00    +0.000 A 
ATOM      6  C   UNL     1      46.051   3.913   8.023  0.00  0.00    +0.000 A 
ENDROOT
BRANCH   1   7
ATOM      7  C   UNL     1      46.741   1.636   7.167  0.00  0.00    +0.000 C 
BRANCH   7   8
ATOM      8  C   UNL     1      48.084   2.252   6.766  0.00  0.00    +0.000 C 
BRANCH   8   9
ATOM      9  N   UNL     1      48.444   1.868   5.400  0.00  0.00    +0.000 NA
ATOM     10  H   UNL     1      49.134   2.523   5.034  0.00  0.00    +0.000 HD
ATOM     11  H   UNL     1      47.627   1.949   4.793  0.00  0.00    +0.000 HD
ENDBRANCH   8   9
ENDBRANCH   7   8
ENDBRANCH   1   7
BRANCH   4  12
ATOM     12  C   UNL     1      43.772   5.052  10.862  0.00  0.00    +0.000 C 
BRANCH  12  13
ATOM     13  N   UNL     1      44.609   6.110  11.403  0.00  0.00    +0.000 N 
ATOM     14  C   UNL     1      44.363   7.452  11.270  0.00  0.00    +0.000 A 
ATOM     15  N   UNL     1      45.187   8.176  11.992  0.00  0.00    +0.000 NA
ATOM     16  C   UNL     1      45.994   7.273  12.621  0.00  0.00    +0.000 A 
ATOM     17  N   UNL     1      46.974   7.584  13.497  0.00  0.00    +0.000 NA
ATOM     18  C   UNL     1      47.624   6.518  14.010  0.00  0.00    +0.000 A 
ATOM     19  C   UNL     1      47.371   5.187  13.699  0.00  0.00    +0.000 A 
ATOM     20  C   UNL     1      46.360   4.874  12.791  0.00  0.00    +0.000 A 
ATOM     21  C   UNL     1      45.669   5.965  12.265  0.00  0.00    +0.000 A 
ENDBRANCH  12  13
ENDBRANCH   4  12
TORSDOF 5
ENDMDL
MODEL 3
REMARK VINA RESULT:    -6.636      1.335      2.195
REMARK INTER + INTRA:          -8.956
REMARK INTER:                  -8.527
REMARK INTRA:                  -0.429
REMARK UNBOUND:                -0.574
REMARK  Name = 
REMARK  5 active torsions:
REMARK  status: ('A' for Active; 'I' for Inactive)
REMARK    1  A    between atoms: N_1  and  C_2
REMARK    2  A    between atoms: C_2  and  C_3
REMARK    3  A    between atoms: C_3  and  C_4
REMARK    4  A    between atoms: C_7  and  C_8
REMARK    5  A    between atoms: C_8  and  N_9
REMARK                            x       y       z     vdW  Elec       q    Type
REMARK                         _______ _______ _______ _____ _____    ______ ____
ROOT
ATOM      1  C   UNL     1      45.589   3.408   8.291  0.00  0.00    +0.000 A 
ATOM      2  C   UNL     1      45.964   4.742   8.496  0.00  0.00    +0.000 A 
ATOM      3  C   UNL     1      45.681   5.381   9.708  0.00  0.00    +0.000 A 
ATOM      4  C   UNL     1      45.026   4.700  10.741  0.00  0.00    +0.000 A 
ATOM      5  C   UNL     1      44.675   3.357  10.542  0.00  0.00    +0.000 A 
ATOM      6  C   UNL     1      44.959   2.717   9.332  0.00  0.00    +0.000 A 
ENDROOT
BRANCH   1   7
ATOM      7  C   UNL     1      45.840   2.735   6.961  0.00  0.00    +0.000 C 
BRANCH   7   8
ATOM      8  C   UNL     1      47.320   2.710   6.572  0.00  0.00    +0.000 C 
BRANCH   8   9
ATOM      9  N   UNL     1      47.931   1.430   6.932  0.00  0.00    +0.000 NA
ATOM     10  H   UNL     1      47.629   1.162   7.869  0.00  0.00    +0.000 HD
ATOM     11  H   UNL     1      48.945   1.535   6.980  0.00  0.00    +0.000 HD
ENDBRANCH   8   9
ENDBRANCH   7   8
ENDBRANCH   1   7
BRANCH   4  12
ATOM     12  C   UNL     1      44.702   5.392  12.040  0.00  0.00    +0.000 C 
BRANCH  12  13
ATOM     13  N   UNL     1      45.852   5.486  12.924  0.00  0.00    +0.000 N 
ATOM     14  C   UNL     1      46.161   4.583  13.908  0.00  0.00    +0.000 A 
ATOM     15  N   UNL     1      47.336   4.824  14.443  0.00  0.00    +0.000 NA
ATOM     16  C   UNL     1      47.810   5.918  13.779  0.00  0.00    +0.000 A 
ATOM     17  N   UNL     1      49.015   6.492  13.987  0.00  0.00    +0.000 NA
ATOM     18  C   UNL     1      49.275   7.551  13.191  0.00  0.00    +0.000 A 
ATOM     19  C   UNL     1      48.417   8.071  12.228  0.00  0.00    +0.000 A 
ATOM     20  C   UNL     1      47.175   7.475  12.021  0.00  0.00    +0.000 A 
ATOM     21  C   UNL     1      46.899   6.369  12.826  0.00  0.00    +0.000 A 
ENDBRANCH  12  13
ENDBRANCH   4  12
TORSDOF 5
ENDMDL
MODEL 4
REMARK VINA RESULT:    -6.050      2.108      6.380
REMARK INTER + INTRA:          -8.215
REMARK INTER:                  -7.825
REMARK INTRA:                  -0.390
REMARK UNBOUND:                -0.574
REMARK  Name = 
REMARK  5 active torsions:
REMARK  status: ('A' for Active; 'I' for Inactive)
REMARK    1  A    between atoms: N_1  and  C_2
REMARK    2  A    between atoms: C_2  and  C_3
REMARK    3  A    between atoms: C_3  and  C_4
REMARK    4  A    between atoms: C_7  and  C_8
REMARK    5  A    between atoms: C_8  and  N_9
REMARK                            x       y       z     vdW  Elec       q    Type
REMARK                         _______ _______ _______ _____ _____    ______ ____
ROOT
ATOM      1  C   UNL     1      47.866   7.307  13.662  0.00  0.00    +0.000 A 
ATOM      2  C   UNL     1      47.569   5.973  13.358  0.00  0.00    +0.000 A 
ATOM      3  C   UNL     1      46.374   5.640  12.712  0.00  0.00    +0.000 A 
ATOM      4  C   UNL     1      45.455   6.633  12.349  0.00  0.00    +0.000 A 
ATOM      5  C   UNL     1      45.768   7.971  12.632  0.00  0.00    +0.000 A 
ATOM      6  C   UNL     1      46.963   8.304  13.276  0.00  0.00    +0.000 A 
ENDROOT
BRANCH   1   7
ATOM      7  C   UNL     1      49.129   7.662  14.413  0.00  0.00    +0.000 C 
BRANCH   7   8
ATOM      8  C   UNL     1      49.263   6.921  15.745  0.00  0.00    +0.000 C 
BRANCH   8   9
ATOM      9  N   UNL     1      48.265   7.395  16.705  0.00  0.00    +0.000 NA
ATOM     10  H   UNL     1      47.492   7.832  16.204  0.00  0.00    +0.000 HD
ATOM     11  H   UNL     1      48.672   8.125  17.292  0.00  0.00    +0.000 HD
ENDBRANCH   8   9
ENDBRANCH   7   8
ENDBRANCH   1   7
BRANCH   4  12
ATOM     12  C   UNL     1      44.158   6.275  11.672  0.00  0.00    +0.000 C 
BRANCH  12  13
ATOM     13  N   UNL     1      44.113   4.884  11.252  0.00  0.00    +0.000 N 
ATOM     14  C   UNL     1      43.342   3.913  11.836  0.00  0.00    +0.000 A 
ATOM     15  N   UNL     1      43.371   2.789  11.157  0.00  0.00    +0.000 NA
ATOM     16  C   UNL     1      44.187   3.040  10.091  0.00  0.00    +0.000 A 
ATOM     17  N   UNL     1      44.472   2.161   9.107  0.00  0.00    +0.000 NA
ATOM     18  C   UNL     1      45.285   2.646   8.143  0.00  0.00    +0.000 A 
ATOM     19  C   UNL     1      45.830   3.924   8.109  0.00  0.00    +0.000 A 
ATOM     20  C   UNL     1      45.533   4.825   9.131  0.00  0.00    +0.000 A 
ATOM     21  C   UNL     1      44.681   4.343  10.125  0.00  0.00    +0.000 A 
ENDBRANCH  12  13
ENDBRANCH   4  12
TORSDOF 5
ENDMDL
MODEL 5
REMARK VINA RESULT:    -5.981      1.998      6.307
REMARK INTER + INTRA:          -8.129
REMARK INTER:                  -7.643
REMARK INTRA:                  -0.486
REMARK UNBOUND:                -0.574
REMARK  Name = 
REMARK  5 active torsions:
REMARK  status: ('A' for Active; 'I' for Inactive)
REMARK    1  A    between atoms: N_1  and  C_2
REMARK    2  A    between atoms: C_2  and  C_3
REMARK    3  A    between atoms: C_3  and  C_4
REMARK    4  A    between atoms: C_7  and  C_8
REMARK    5  A    between atoms: C_8  and  N_9
REMARK                            x       y       z     vdW  Elec       q    Type
REMARK                         _______ _______ _______ _____ _____    ______ ____
ROOT
ATOM      1  C   UNL     1      46.406   6.406  12.633  0.00  0.00    +0.000 A 
ATOM      2  C   UNL     1      45.420   5.457  12.934  0.00  0.00    +0.000 A 
ATOM      3  C   UNL     1      44.754   4.774  11.912  0.00  0.00    +0.000 A 
ATOM      4  C   UNL     1      45.064   5.017  10.568  0.00  0.00    +0.000 A 
ATOM      5  C   UNL     1      46.069   5.949  10.270  0.00  0.00    +0.000 A 
ATOM      6  C   UNL     1      46.736   6.630  11.291  0.00  0.00    +0.000 A 
ENDROOT
BRANCH   1   7
ATOM      7  C   UNL     1      47.084   7.187  13.734  0.00  0.00    +0.000 C 
BRANCH   7   8
ATOM      8  C   UNL     1      47.192   8.683  13.428  0.00  0.00    +0.000 C 
BRANCH   8   9
ATOM      9  N   UNL     1      45.864   9.282  13.287  0.00  0.00    +0.000 NA
ATOM     10  H   UNL     1      45.248   8.919  14.015  0.00  0.00    +0.000 HD
ATOM     11  H   UNL     1      45.451   8.996  12.398  0.00  0.00    +0.000 HD
ENDBRANCH   8   9
ENDBRANCH   7   8
ENDBRANCH   1   7
BRANCH   4  12
ATOM     12  C   UNL     1      44.334   4.298   9.464  0.00  0.00    +0.000 C 
BRANCH  12  13
ATOM     13  N   UNL     1      45.025   3.095   9.030  0.00  0.00    +0.000 N 
ATOM     14  C   UNL     1      44.698   1.820   9.413  0.00  0.00    +0.000 A 
ATOM     15  N   UNL     1      45.380   0.917   8.746  0.00  0.00    +0.000 NA
ATOM     16  C   UNL     1      46.174   1.629   7.896  0.00  0.00    +0.000 A 
ATOM     17  N   UNL     1      47.023   1.093   6.992  0.00  0.00    +0.000 NA
ATOM     18  C   UNL     1      47.687   1.999   6.243  0.00  0.00    +0.000 A 
ATOM     19  C   UNL     1      47.569   3.380   6.347  0.00  0.00    +0.000 A 
ATOM     20  C   UNL     1      46.693   3.926   7.284  0.00  0.00    +0.000 A 
ATOM     21  C   UNL     1      45.988   3.001   8.055  0.00  0.00    +0.000 A 
ENDBRANCH  12  13
ENDBRANCH   4  12
TORSDOF 5
ENDMDL
MODEL 6
REMARK VINA RESULT:    -5.813      1.995      3.112
REMARK INTER + INTRA:          -7.917
REMARK INTER:                  -7.425
REMARK INTRA:                  -0.492
REMARK UNBOUND:                -0.574
REMARK  Name = 
REMARK  5 active torsions:
REMARK  status: ('A' for Active; 'I' for Inactive)
REMARK    1  A    between atoms: N_1  and  C_2
REMARK    2  A    between atoms: C_2  and  C_3
REMARK    3  A    between atoms: C_3  and  C_4
REMARK    4  A    between atoms: C_7  and  C_8
REMARK    5  A    between atoms: C_8  and  N_9
REMARK                            x       y       z     vdW  Elec       q    Type
REMARK                         _______ _______ _______ _____ _____    ______ ____
ROOT
ATOM      1  C   UNL     1      44.784   3.085   9.772  0.00  0.00    +0.000 A 
ATOM      2  C   UNL     1      44.263   2.868  11.054  0.00  0.00    +0.000 A 
ATOM      3  C   UNL     1      44.291   3.883  12.015  0.00  0.00    +0.000 A 
ATOM      4  C   UNL     1      44.833   5.140  11.713  0.00  0.00    +0.000 A 
ATOM      5  C   UNL     1      45.331   5.362  10.421  0.00  0.00    +0.000 A 
ATOM      6  C   UNL     1      45.301   4.347   9.460  0.00  0.00    +0.000 A 
ENDROOT
BRANCH   1   7
ATOM      7  C   UNL     1      44.808   1.970   8.753  0.00  0.00    +0.000 C 
BRANCH   7   8
ATOM      8  C   UNL     1      46.173   1.802   8.080  0.00  0.00    +0.000 C 
BRANCH   8   9
ATOM      9  N   UNL     1      46.528   0.386   7.972  0.00  0.00    +0.000 NA
ATOM     10  H   UNL     1      46.811   0.036   8.887  0.00  0.00    +0.000 HD
ATOM     11  H   UNL     1      47.341   0.281   7.364  0.00  0.00    +0.000 HD
ENDBRANCH   8   9
ENDBRANCH   7   8
ENDBRANCH   1   7
BRANCH   4  12
ATOM     12  C   UNL     1      44.884   6.229  12.752  0.00  0.00    +0.000 C 
BRANCH  12  13
ATOM     13  N   UNL     1      46.243   6.562  13.145  0.00  0.00    +0.000 N 
ATOM     14  C   UNL     1      47.132   5.686  13.713  0.00  0.00    +0.000 A 
ATOM     15  N   UNL     1      48.335   6.205  13.816  0.00  0.00    +0.000 NA
ATOM     16  C   UNL     1      48.224   7.460  13.291  0.00  0.00    +0.000 A 
ATOM     17  N   UNL     1      49.240   8.342  13.164  0.00  0.00    +0.000 NA
ATOM     18  C   UNL     1      48.894   9.515  12.592  0.00  0.00    +0.000 A 
ATOM     19  C   UNL     1      47.619   9.861  12.159  0.00  0.00    +0.000 A 
ATOM     20  C   UNL     1      46.575   8.947  12.296  0.00  0.00    +0.000 A 
ATOM     21  C   UNL     1      46.921   7.724  12.871  0.00  0.00    +0.000 A 
ENDBRANCH  12  13
ENDBRANCH   4  12
TORSDOF 5
ENDMDL
MODEL 7
REMARK VINA RESULT:    -5.773      2.134      6.027
REMARK INTER + INTRA:          -7.865
REMARK INTER:                  -7.559
REMARK INTRA:                  -0.306
REMARK UNBOUND:                -0.574
REMARK  Name = 
REMARK  5 active torsions:
REMARK  status: ('A' for Active; 'I' for Inactive)
REMARK    1  A    between atoms: N_1  and  C_2
REMARK    2  A    between atoms: C_2  and  C_3
REMARK    3  A    between atoms: C_3  and  C_4
REMARK    4  A    between atoms: C_7  and  C_8
REMARK    5  A    between atoms: C_8  and  N_9
REMARK                            x       y       z     vdW  Elec       q    Type
REMARK                         _______ _______ _______ _____ _____    ______ ____
ROOT
ATOM      1  C   UNL     1      47.686   7.636  13.338  0.00  0.00    +0.000 A 
ATOM      2  C   UNL     1      46.586   8.494  13.219  0.00  0.00    +0.000 A 
ATOM      3  C   UNL     1      45.419   8.070  12.575  0.00  0.00    +0.000 A 
ATOM      4  C   UNL     1      45.324   6.777  12.044  0.00  0.00    +0.000 A 
ATOM      5  C   UNL     1      46.418   5.911  12.187  0.00  0.00    +0.000 A 
ATOM      6  C   UNL     1      47.584   6.335  12.832  0.00  0.00    +0.000 A 
ENDROOT
BRANCH   1   7
ATOM      7  C   UNL     1      48.968   8.113  13.980  0.00  0.00    +0.000 C 
BRANCH   7   8
ATOM      8  C   UNL     1      50.170   8.059  13.034  0.00  0.00    +0.000 C 
BRANCH   8   9
ATOM      9  N   UNL     1      49.964   8.937  11.882  0.00  0.00    +0.000 NA
ATOM     10  H   UNL     1      50.300   8.474  11.037  0.00  0.00    +0.000 HD
ATOM     11  H   UNL     1      50.530   9.780  11.987  0.00  0.00    +0.000 HD
ENDBRANCH   8   9
ENDBRANCH   7   8
ENDBRANCH   1   7
BRANCH   4  12
ATOM     12  C   UNL     1      44.076   6.323  11.332  0.00  0.00    +0.000 C 
BRANCH  12  13
ATOM     13  N   UNL     1      44.084   4.898  11.047  0.00  0.00    +0.000 N 
ATOM     14  C   UNL     1      43.353   3.958  11.726  0.00  0.00    +0.000 A 
ATOM     15  N   UNL     1      43.423   2.776  11.158  0.00  0.00    +0.000 NA
ATOM     16  C   UNL     1      44.224   2.955  10.067  0.00  0.00    +0.000 A 
ATOM     17  N   UNL     1      44.539   1.998   9.168  0.00  0.00    +0.000 NA
ATOM     18  C   UNL     1      45.328   2.418   8.156  0.00  0.00    +0.000 A 
ATOM     19  C   UNL     1      45.823   3.707   7.996  0.00  0.00    +0.000 A 
ATOM     20  C   UNL     1      45.495   4.690   8.929  0.00  0.00    +0.000 A 
ATOM     21  C   UNL     1      44.667   4.273   9.972  0.00  0.00    +0.000 A 
ENDBRANCH  12  13
ENDBRANCH   4  12
TORSDOF 5
ENDMDL
MODEL 8
REMARK VINA RESULT:    -5.426      1.880      2.566
REMARK INTER + INTRA:          -7.427
REMARK INTER:                  -6.959
REMARK INTRA:                  -0.468
REMARK UNBOUND:                -0.574
REMARK  Name = 
REMARK  5 active torsions:
REMARK  status: ('A' for Active; 'I' for Inactive)
REMARK    1  A    between atoms: N_1  and  C_2
REMARK    2  A    between atoms: C_2  and  C_3
REMARK    3  A    between atoms: C_3  and  C_4
REMARK    4  A    between atoms: C_7  and  C_8
REMARK    5  A    between atoms: C_8  and  N_9
REMARK                            x       y       z     vdW  Elec       q    Type
REMARK                         _______ _______ _______ _____ _____    ______ ____
ROOT
ATOM      1  C   UNL     1      45.253   2.516   8.956  0.00  0.00    +0.000 A 
ATOM      2  C   UNL     1      45.654   3.835   8.712  0.00  0.00    +0.000 A 
ATOM      3  C   UNL     1      45.215   4.876   9.537  0.00  0.00    +0.000 A 
ATOM      4  C   UNL     1      44.373   4.620  10.627  0.00  0.00    +0.000 A 
ATOM      5  C   UNL     1      43.993   3.294  10.883  0.00  0.00    +0.000 A 
ATOM      6  C   UNL     1      44.434   2.254  10.060  0.00  0.00    +0.000 A 
ENDROOT
BRANCH   1   7
ATOM      7  C   UNL     1      45.679   1.399   8.031  0.00  0.00    +0.000 C 
BRANCH   7   8
ATOM      8  C   UNL     1      47.151   1.488   7.622  0.00  0.00    +0.000 C 
BRANCH   8   9
ATOM      9  N   UNL     1      47.295   1.362   6.171  0.00  0.00    +0.000 NA
ATOM     10  H   UNL     1      46.484   1.776   5.712  0.00  0.00    +0.000 HD
ATOM     11  H   UNL     1      47.295   0.375   5.910  0.00  0.00    +0.000 HD
ENDBRANCH   8   9
ENDBRANCH   7   8
ENDBRANCH   1   7
BRANCH   4  12
ATOM     12  C   UNL     1      43.881   5.741  11.504  0.00  0.00    +0.000 C 
BRANCH  12  13
ATOM     13  N   UNL     1      44.948   6.348  12.284  0.00  0.00    +0.000 N 
ATOM     14  C   UNL     1      45.820   5.661  13.089  0.00  0.00    +0.000 A 
ATOM     15  N   UNL     1      46.779   6.434  13.544  0.00  0.00    +0.000 NA
ATOM     16  C   UNL     1      46.525   7.665  13.012  0.00  0.00    +0.000 A 
ATOM     17  N   UNL     1      47.290   8.763  13.193  0.00  0.00    +0.000 NA
ATOM     18  C   UNL     1      46.851   9.864  12.546  0.00  0.00    +0.000 A 
ATOM     19  C   UNL     1      45.710   9.937  11.754  0.00  0.00    +0.000 A 
ATOM     20  C   UNL     1      44.924   8.801  11.574  0.00  0.00    +0.000 A 
ATOM     21  C   UNL     1      45.375   7.651  12.225  0.00  0.00    +0.000 A 
ENDBRANCH  12  13
ENDBRANCH   4  12
TORSDOF 5
ENDMDL
MODEL 9
REMARK VINA RESULT:    -5.237      2.276      3.584
REMARK INTER + INTRA:          -7.189
REMARK INTER:                  -6.794
REMARK INTRA:                  -0.395
REMARK UNBOUND:                -0.574
REMARK  Name = 
REMARK  5 active torsions:
REMARK  status: ('A' for Active; 'I' for Inactive)
REMARK    1  A    between atoms: N_1  and  C_2
REMARK    2  A    between atoms: C_2  and  C_3
REMARK    3  A    between atoms: C_3  and  C_4
REMARK    4  A    between atoms: C_7  and  C_8
REMARK    5  A    between atoms: C_8  and  N_9
REMARK                            x       y       z     vdW  Elec       q    Type
REMARK                         _______ _______ _______ _____ _____    ______ ____
ROOT
ATOM      1  C   UNL     1      45.245   3.738   9.422  0.00  0.00    +0.000 A 
ATOM      2  C   UNL     1      45.640   5.078   9.327  0.00  0.00    +0.000 A 
ATOM      3  C   UNL     1      45.542   5.929  10.432  0.00  0.00    +0.000 A 
ATOM      4  C   UNL     1      45.054   5.457  11.658  0.00  0.00    +0.000 A 
ATOM      5  C   UNL     1      44.683   4.108  11.757  0.00  0.00    +0.000 A 
ATOM      6  C   UNL     1      44.784   3.257  10.653  0.00  0.00    +0.000 A 
ENDROOT
BRANCH   1   7
ATOM      7  C   UNL     1      45.295   2.833   8.213  0.00  0.00    +0.000 C 
BRANCH   7   8
ATOM      8  C   UNL     1      45.419   1.352   8.576  0.00  0.00    +0.000 C 
BRANCH   8   9
ATOM      9  N   UNL     1      46.612   0.765   7.964  0.00  0.00    +0.000 NA
ATOM     10  H   UNL     1      46.366  -0.121   7.523  0.00  0.00    +0.000 HD
ATOM     11  H   UNL     1      47.295   0.540   8.689  0.00  0.00    +0.000 HD
ENDBRANCH   8   9
ENDBRANCH   7   8
ENDBRANCH   1   7
BRANCH   4  12
ATOM     12  C   UNL     1      44.927   6.376  12.845  0.00  0.00    +0.000 C 
BRANCH  12  13
ATOM     13  N   UNL     1      45.825   7.517  12.765  0.00  0.00    +0.000 N 
ATOM     14  C   UNL     1      45.444   8.793  12.440  0.00  0.00    +0.000 A 
ATOM     15  N   UNL     1      46.424   9.654  12.601  0.00  0.00    +0.000 NA
ATOM     16  C   UNL     1      47.476   8.911  13.053  0.00  0.00    +0.000 A 
ATOM     17  N   UNL     1      48.689   9.404  13.385  0.00  0.00    +0.000 NA
ATOM     18  C   UNL     1      49.565   8.478  13.832  0.00  0.00    +0.000 A 
ATOM     19  C   UNL     1      49.314   7.116  13.952  0.00  0.00    +0.000 A 
ATOM     20  C   UNL     1      48.061   6.615  13.604  0.00  0.00    +0.000 A 
ATOM     21  C   UNL     1      47.140   7.562  13.156  0.00  0.00    +0.000 A 
ENDBRANCH  12  13
ENDBRANCH   4  12
TORSDOF 5
ENDMDL
