MODEL 1
REMARK VINA RESULT:    -8.828      0.000      0.000
REMARK INTER + INTRA:         -10.205
REMARK INTER:                 -10.376
REMARK INTRA:                   0.171
REMARK UNBOUND:                 0.171
REMARK  Name = 
REMARK  3 active torsions:
REMARK  status: ('A' for Active; 'I' for Inactive)
REMARK    1  A    between atoms: C_2  and  C_4
REMARK    2  A    between atoms: N_8  and  C_9
REMARK    3  A    between atoms: C_9  and  C_10
REMARK                            x       y       z     vdW  Elec       q    Type
REMARK                         _______ _______ _______ _____ _____    ______ ____
ROOT
ATOM      1  C   UNL     1      46.316   1.999   7.881  0.00  0.00    +0.000 A 
ATOM      2  C   UNL     1      46.219   3.236   7.275  0.00  0.00    +0.000 A 
ATOM      3  C   UNL     1      45.453   4.215   7.905  0.00  0.00    +0.000 A 
ATOM      4  C   UNL     1      44.847   3.941   9.129  0.00  0.00    +0.000 A 
ATOM      5  N   UNL     1      44.121   4.983   9.752  0.00  0.00    +0.000 N 
ATOM      6  N   UNL     1      44.977   2.714   9.676  0.00  0.00    +0.000 NA
ATOM      7  N   UNL     1      45.700   1.726   9.050  0.00  0.00    +0.000 NA
ATOM      8  H   UNL     1      43.320   5.223   9.174  0.00  0.00    +0.000 HD
ENDROOT
BRANCH   1  10
ATOM      9  N   UNL     1      46.785  -0.374   7.664  0.00  0.00    +0.000 N 
ATOM     10  C   UNL     1      47.110   0.896   7.267  0.00  0.00    +0.000 C 
ATOM     11  O   UNL     1      47.996   1.108   6.453  0.00  0.00    +0.000 OA
ATOM     12  H   UNL     1      47.297  -1.154   7.281  0.00  0.00    +0.000 HD
ATOM     13  H   UNL     1      46.046  -0.538   8.338  0.00  0.00    +0.000 HD
ENDBRANCH   1  10
BRANCH   5  14
ATOM     14  C   UNL     1      43.914   5.107  11.212  0.00  0.00    +0.000 C 
ATOM     15  C   UNL     1      42.971   4.123  11.894  0.00  0.00    +0.000 C 
ATOM     16  C   UNL     1      42.633   5.582  11.872  0.00  0.00    +0.000 C 
BRANCH  14  17
ATOM     17  C   UNL     1      45.217   5.442  11.944  0.00  0.00    +0.000 A 
ATOM     18  C   UNL     1      46.104   6.415  11.446  0.00  0.00    +0.000 A 
ATOM     19  C   UNL     1      47.272   6.760  12.133  0.00  0.00    +0.000 A 
ATOM     20  C   UNL     1      47.580   6.134  13.338  0.00  0.00    +0.000 A 
ATOM     21  C   UNL     1      46.729   5.154  13.838  0.00  0.00    +0.000 A 
ATOM     22 CL   UNL     1      47.099   4.379  15.330  0.00  0.00    +0.000 Cl
ATOM     23  C   UNL     1      45.570   4.803  13.146  0.00  0.00    +0.000 A 
ENDBRANCH  14  17
ENDBRANCH   5  14
TORSDOF 3
ENDMDL
MODEL 2
REMARK VINA RESULT:    -8.825      1.143      1.568
REMARK INTER + INTRA:         -10.202
REMARK INTER:                 -10.363
REMARK INTRA:                   0.162
REMARK UNBOUND:                 0.171
REMARK  Name = 
REMARK  3 active torsions:
REMARK  status: ('A' for Active; 'I' for Inactive)
REMARK    1  A    between atoms: C_2  and  C_4
REMARK    2  A    between atoms: N_8  and  C_9
REMARK    3  A    between atoms: C_9  and  C_10
REMARK                            x       y       z     vdW  Elec       q    Type
REMARK                         _______ _______ _______ _____ _____    ______ ____
ROOT
ATOM      1  C   UNL     1      46.344   2.055   7.899  0.00  0.00    +0.000 A 
ATOM      2  C   UNL     1      46.326   3.319   7.344  0.00  0.00    +0.000 A 
ATOM      3  C   UNL     1      45.565   4.301   7.976  0.00  0.00    +0.000 A 
ATOM      4  C   UNL     1      44.886   4.000   9.155  0.00  0.00    +0.000 A 
ATOM      5  N   UNL     1      44.167   5.043   9.786  0.00  0.00    +0.000 N 
ATOM      6  N   UNL     1      44.941   2.748   9.654  0.00  0.00    +0.000 NA
ATOM      7  N   UNL     1      45.659   1.758   9.023  0.00  0.00    +0.000 NA
ATOM      8  H   UNL     1      43.407   5.338   9.179  0.00  0.00    +0.000 HD
ENDROOT
BRANCH   1  10
ATOM      9  N   UNL     1      46.786  -0.321   7.664  0.00  0.00    +0.000 N 
ATOM     10  C   UNL     1      47.128   0.949   7.279  0.00  0.00    +0.000 C 
ATOM     11  O   UNL     1      48.019   1.157   6.470  0.00  0.00    +0.000 OA
ATOM     12  H   UNL     1      47.290  -1.104   7.275  0.00  0.00    +0.000 HD
ATOM     13  H   UNL     1      46.043  -0.482   8.333  0.00  0.00    +0.000 HD
ENDBRANCH   1  10
BRANCH   5  14
ATOM     14  C   UNL     1      43.890   5.114  11.237  0.00  0.00    +0.000 C 
ATOM     15  C   UNL     1      42.900   4.121  11.833  0.00  0.00    +0.000 C 
ATOM     16  C   UNL     1      42.585   5.584  11.852  0.00  0.00    +0.000 C 
BRANCH  14  17
ATOM     17  C   UNL     1      45.159   5.400  12.046  0.00  0.00    +0.000 A 
ATOM     18  C   UNL     1      45.433   4.710  13.242  0.00  0.00    +0.000 A 
ATOM     19  C   UNL     1      46.612   4.932  13.960  0.00  0.00    +0.000 A 
ATOM     20  C   UNL     1      47.545   5.856  13.497  0.00  0.00    +0.000 A 
ATOM     21  C   UNL     1      47.285   6.565  12.329  0.00  0.00    +0.000 A 
ATOM     22 CL   UNL     1      48.436   7.704  11.746  0.00  0.00    +0.000 Cl
ATOM     23  C   UNL     1      46.104   6.350  11.619  0.00  0.00    +0.000 A 
ENDBRANCH  14  17
ENDBRANCH   5  14
TORSDOF 3
ENDMDL
MODEL 3
REMARK VINA RESULT:    -8.071      4.052      6.280
REMARK INTER + INTRA:          -9.315
REMARK INTER:                  -8.949
REMARK INTRA:                  -0.366
REMARK UNBOUND:                 0.171
REMARK  Name = 
REMARK  3 active torsions:
REMARK  status: ('A' for Active; 'I' for Inactive)
REMARK    1  A    between atoms: C_2  and  C_4
REMARK    2  A    between atoms: N_8  and  C_9
REMARK    3  A    between atoms: C_9  and  C_10
REMARK                            x       y       z     vdW  Elec       q    Type
REMARK                         _______ _______ _______ _____ _____    ______ ____
ROOT
ATOM      1  C   UNL     1      47.470   3.799  15.338  0.00  0.00    +0.000 A 
ATOM      2  C   UNL     1      47.214   5.144  15.153  0.00  0.00    +0.000 A 
ATOM      3  C   UNL     1      46.607   5.537  13.962  0.00  0.00    +0.000 A 
ATOM      4  C   UNL     1      46.241   4.578  13.020  0.00  0.00    +0.000 A 
ATOM      5  N   UNL     1      45.583   5.021  11.849  0.00  0.00    +0.000 N 
ATOM      6  N   UNL     1      46.514   3.277  13.255  0.00  0.00    +0.000 NA
ATOM      7  N   UNL     1      47.144   2.876  14.410  0.00  0.00    +0.000 NA
ATOM      8  H   UNL     1      46.217   5.606  11.312  0.00  0.00    +0.000 HD
ENDROOT
BRANCH   1  10
ATOM      9  N   UNL     1      47.298   3.103  17.658  0.00  0.00    +0.000 N 
ATOM     10  C   UNL     1      48.123   3.299  16.581  0.00  0.00    +0.000 C 
ATOM     11  O   UNL     1      49.322   3.071  16.640  0.00  0.00    +0.000 OA
ATOM     12  H   UNL     1      47.693   2.769  18.524  0.00  0.00    +0.000 HD
ATOM     13  H   UNL     1      46.305   3.293  17.596  0.00  0.00    +0.000 HD
ENDBRANCH   1  10
BRANCH   5  14
ATOM     14  C   UNL     1      44.641   4.204  11.053  0.00  0.00    +0.000 C 
ATOM     15  C   UNL     1      43.175   4.619  11.021  0.00  0.00    +0.000 C 
ATOM     16  C   UNL     1      43.563   3.308  11.632  0.00  0.00    +0.000 C 
BRANCH  14  17
ATOM     17  C   UNL     1      45.263   3.746   9.730  0.00  0.00    +0.000 A 
ATOM     18  C   UNL     1      45.680   4.676   8.760  0.00  0.00    +0.000 A 
ATOM     19  C   UNL     1      46.291   4.267   7.570  0.00  0.00    +0.000 A 
ATOM     20  C   UNL     1      46.495   2.912   7.324  0.00  0.00    +0.000 A 
ATOM     21  C   UNL     1      46.072   1.974   8.259  0.00  0.00    +0.000 A 
ATOM     22 CL   UNL     1      46.326   0.298   7.966  0.00  0.00    +0.000 Cl
ATOM     23  C   UNL     1      45.452   2.383   9.441  0.00  0.00    +0.000 A 
ENDBRANCH  14  17
ENDBRANCH   5  14
TORSDOF 3
ENDMDL
MODEL 4
REMARK VINA RESULT:    -7.333      1.798      2.044
REMARK INTER + INTRA:          -8.448
REMARK INTER:                  -7.992
REMARK INTRA:                  -0.455
REMARK UNBOUND:                 0.171
REMARK  Name = 
REMARK  3 active torsions:
REMARK  status: ('A' for Active; 'I' for Inactive)
REMARK    1  A    between atoms: C_2  and  C_4
REMARK    2  A    between atoms: N_8  and  C_9
REMARK    3  A    between atoms: C_9  and  C_10
REMARK                            x       y       z     vdW  Elec       q    Type
REMARK                         _______ _______ _______ _____ _____    ______ ____
ROOT
ATOM      1  C   UNL     1      46.395   3.121   7.567  0.00  0.00    +0.000 A 
ATOM      2  C   UNL     1      45.862   2.083   8.306  0.00  0.00    +0.000 A 
ATOM      3  C   UNL     1      45.308   2.380   9.549  0.00  0.00    +0.000 A 
ATOM      4  C   UNL     1      45.269   3.701   9.993  0.00  0.00    +0.000 A 
ATOM      5  N   UNL     1      44.652   3.959  11.240  0.00  0.00    +0.000 N 
ATOM      6  N   UNL     1      45.803   4.676   9.228  0.00  0.00    +0.000 NA
ATOM      7  N   UNL     1      46.384   4.394   8.014  0.00  0.00    +0.000 NA
ATOM      8  H   UNL     1      45.190   3.510  11.976  0.00  0.00    +0.000 HD
ENDROOT
BRANCH   1  10
ATOM      9  N   UNL     1      48.348   2.580   6.229  0.00  0.00    +0.000 N 
ATOM     10  C   UNL     1      47.011   2.883   6.231  0.00  0.00    +0.000 C 
ATOM     11  O   UNL     1      46.366   2.947   5.196  0.00  0.00    +0.000 OA
ATOM     12  H   UNL     1      48.812   2.415   5.349  0.00  0.00    +0.000 HD
ATOM     13  H   UNL     1      48.872   2.527   7.095  0.00  0.00    +0.000 HD
ENDBRANCH   1  10
BRANCH   5  14
ATOM     14  C   UNL     1      44.007   5.237  11.610  0.00  0.00    +0.000 C 
ATOM     15  C   UNL     1      42.714   5.187  12.414  0.00  0.00    +0.000 C 
ATOM     16  C   UNL     1      42.705   5.756  11.029  0.00  0.00    +0.000 C 
BRANCH  14  17
ATOM     17  C   UNL     1      45.036   6.298  12.015  0.00  0.00    +0.000 A 
ATOM     18  C   UNL     1      44.912   7.634  11.592  0.00  0.00    +0.000 A 
ATOM     19  C   UNL     1      45.821   8.617  11.996  0.00  0.00    +0.000 A 
ATOM     20  C   UNL     1      46.881   8.280  12.834  0.00  0.00    +0.000 A 
ATOM     21  C   UNL     1      47.036   6.961  13.247  0.00  0.00    +0.000 A 
ATOM     22 CL   UNL     1      48.339   6.538  14.288  0.00  0.00    +0.000 Cl
ATOM     23  C   UNL     1      46.134   5.980  12.834  0.00  0.00    +0.000 A 
ENDBRANCH  14  17
ENDBRANCH   5  14
TORSDOF 3
ENDMDL
MODEL 5
REMARK VINA RESULT:    -6.236      3.506      5.237
REMARK INTER + INTRA:          -7.158
REMARK INTER:                  -6.670
REMARK INTRA:                  -0.488
REMARK UNBOUND:                 0.171
REMARK  Name = 
REMARK  3 active torsions:
REMARK  status: ('A' for Active; 'I' for Inactive)
REMARK    1  A    between atoms: C_2  and  C_4
REMARK    2  A    between atoms: N_8  and  C_9
REMARK    3  A    between atoms: C_9  and  C_10
REMARK                            x       y       z     vdW  Elec       q    Type
REMARK                         _______ _______ _______ _____ _____    ______ ____
ROOT
ATOM      1  C   UNL     1      44.748   4.529  11.687  0.00  0.00    +0.000 A 
ATOM      2  C   UNL     1      44.311   5.705  11.109  0.00  0.00    +0.000 A 
ATOM      3  C   UNL     1      45.021   6.873  11.383  0.00  0.00    +0.000 A 
ATOM      4  C   UNL     1      46.159   6.822  12.186  0.00  0.00    +0.000 A 
ATOM      5  N   UNL     1      46.873   8.024  12.393  0.00  0.00    +0.000 N 
ATOM      6  N   UNL     1      46.541   5.644  12.722  0.00  0.00    +0.000 NA
ATOM      7  N   UNL     1      45.831   4.489  12.491  0.00  0.00    +0.000 NA
ATOM      8  H   UNL     1      46.287   8.675  12.908  0.00  0.00    +0.000 HD
ENDROOT
BRANCH   1  10
ATOM      9  N   UNL     1      43.792   2.475  12.559  0.00  0.00    +0.000 N 
ATOM     10  C   UNL     1      44.039   3.240  11.450  0.00  0.00    +0.000 C 
ATOM     11  O   UNL     1      43.692   2.885  10.334  0.00  0.00    +0.000 OA
ATOM     12  H   UNL     1      43.318   1.591  12.450  0.00  0.00    +0.000 HD
ATOM     13  H   UNL     1      44.082   2.782  13.481  0.00  0.00    +0.000 HD
ENDBRANCH   1  10
BRANCH   5  14
ATOM     14  C   UNL     1      48.321   8.102  12.685  0.00  0.00    +0.000 C 
ATOM     15  C   UNL     1      49.181   9.027  11.833  0.00  0.00    +0.000 C 
ATOM     16  C   UNL     1      49.419   7.549  11.797  0.00  0.00    +0.000 C 
BRANCH  14  17
ATOM     17  C   UNL     1      48.600   8.088  14.192  0.00  0.00    +0.000 A 
ATOM     18  C   UNL     1      48.115   9.108  15.033  0.00  0.00    +0.000 A 
ATOM     19  C   UNL     1      48.325   9.077  16.415  0.00  0.00    +0.000 A 
ATOM     20  C   UNL     1      49.030   8.022  16.987  0.00  0.00    +0.000 A 
ATOM     21  C   UNL     1      49.536   7.014  16.173  0.00  0.00    +0.000 A 
ATOM     22 CL   UNL     1      50.402   5.702  16.874  0.00  0.00    +0.000 Cl
ATOM     23  C   UNL     1      49.335   7.052  14.793  0.00  0.00    +0.000 A 
ENDBRANCH  14  17
ENDBRANCH   5  14
TORSDOF 3
ENDMDL
MODEL 6
REMARK VINA RESULT:    -6.234      4.948      6.874
REMARK INTER + INTRA:          -7.156
REMARK INTER:                  -6.948
REMARK INTRA:                  -0.208
REMARK UNBOUND:                 0.171
REMARK  Name = 
REMARK  3 active torsions:
REMARK  status: ('A' for Active; 'I' for Inactive)
REMARK    1  A    between atoms: C_2  and  C_4
REMARK    2  A    between atoms: N_8  and  C_9
REMARK    3  A    between atoms: C_9  and  C_10
REMARK                            x       y       z     vdW  Elec       q    Type
REMARK                         _______ _______ _______ _____ _____    ______ ____
ROOT
ATOM      1  C   UNL     1      46.128   5.549  12.481  0.00  0.00    +0.000 A 
ATOM      2  C   UNL     1      45.890   4.194  12.360  0.00  0.00    +0.000 A 
ATOM      3  C   UNL     1      46.450   3.344  13.312  0.00  0.00    +0.000 A 
ATOM      4  C   UNL     1      47.189   3.875  14.368  0.00  0.00    +0.000 A 
ATOM      5  N   UNL     1      47.695   2.976  15.336  0.00  0.00    +0.000 N 
ATOM      6  N   UNL     1      47.387   5.208  14.436  0.00  0.00    +0.000 NA
ATOM      7  N   UNL     1      46.871   6.057  13.485  0.00  0.00    +0.000 NA
ATOM      8  H   UNL     1      48.375   2.362  14.896  0.00  0.00    +0.000 HD
ENDROOT
BRANCH   1  10
ATOM      9  N   UNL     1      45.246   6.018  10.267  0.00  0.00    +0.000 N 
ATOM     10  C   UNL     1      45.570   6.523  11.499  0.00  0.00    +0.000 C 
ATOM     11  O   UNL     1      45.403   7.701  11.775  0.00  0.00    +0.000 OA
ATOM     12  H   UNL     1      44.869   6.637   9.566  0.00  0.00    +0.000 HD
ATOM     13  H   UNL     1      45.386   5.037  10.051  0.00  0.00    +0.000 HD
ENDBRANCH   1  10
BRANCH   5  14
ATOM     14  C   UNL     1      47.970   3.327  16.746  0.00  0.00    +0.000 C 
ATOM     15  C   UNL     1      46.940   2.939  17.800  0.00  0.00    +0.000 C 
ATOM     16  C   UNL     1      47.228   4.385  17.540  0.00  0.00    +0.000 C 
BRANCH  14  17
ATOM     17  C   UNL     1      49.445   3.121  17.107  0.00  0.00    +0.000 A 
ATOM     18  C   UNL     1      50.046   1.851  17.019  0.00  0.00    +0.000 A 
ATOM     19  C   UNL     1      51.403   1.664  17.301  0.00  0.00    +0.000 A 
ATOM     20  C   UNL     1      52.189   2.748  17.682  0.00  0.00    +0.000 A 
ATOM     21  C   UNL     1      51.611   4.008  17.795  0.00  0.00    +0.000 A 
ATOM     22 CL   UNL     1      52.577   5.355  18.258  0.00  0.00    +0.000 Cl
ATOM     23  C   UNL     1      50.255   4.191  17.524  0.00  0.00    +0.000 A 
ENDBRANCH  14  17
ENDBRANCH   5  14
TORSDOF 3
ENDMDL
MODEL 7
REMARK VINA RESULT:    -6.224      6.852      8.748
REMARK INTER + INTRA:          -7.145
REMARK INTER:                  -6.776
REMARK INTRA:                  -0.368
REMARK UNBOUND:                 0.171
REMARK  Name = 
REMARK  3 active torsions:
REMARK  status: ('A' for Active; 'I' for Inactive)
REMARK    1  A    between atoms: C_2  and  C_4
REMARK    2  A    between atoms: N_8  and  C_9
REMARK    3  A    between atoms: C_9  and  C_10
REMARK                            x       y       z     vdW  Elec       q    Type
REMARK                         _______ _______ _______ _____ _____    ______ ____
ROOT
ATOM      1  C   UNL     1      52.408   1.508  17.721  0.00  0.00    +0.000 A 
ATOM      2  C   UNL     1      52.764   2.694  18.332  0.00  0.00    +0.000 A 
ATOM      3  C   UNL     1      51.914   3.789  18.183  0.00  0.00    +0.000 A 
ATOM      4  C   UNL     1      50.726   3.652  17.467  0.00  0.00    +0.000 A 
ATOM      5  N   UNL     1      49.873   4.778  17.385  0.00  0.00    +0.000 N 
ATOM      6  N   UNL     1      50.428   2.468  16.893  0.00  0.00    +0.000 NA
ATOM      7  N   UNL     1      51.273   1.388  17.002  0.00  0.00    +0.000 NA
ATOM      8  H   UNL     1      50.343   5.514  16.866  0.00  0.00    +0.000 HD
ENDROOT
BRANCH   1  10
ATOM      9  N   UNL     1      53.783  -0.185  16.652  0.00  0.00    +0.000 N 
ATOM     10  C   UNL     1      53.267   0.294  17.828  0.00  0.00    +0.000 C 
ATOM     11  O   UNL     1      53.505  -0.242  18.900  0.00  0.00    +0.000 OA
ATOM     12  H   UNL     1      54.367  -1.006  16.672  0.00  0.00    +0.000 HD
ATOM     13  H   UNL     1      53.581   0.271  15.770  0.00  0.00    +0.000 HD
ENDBRANCH   1  10
BRANCH   5  14
ATOM     14  C   UNL     1      48.406   4.710  17.209  0.00  0.00    +0.000 C 
ATOM     15  C   UNL     1      47.519   5.164  18.361  0.00  0.00    +0.000 C 
ATOM     16  C   UNL     1      47.488   3.734  17.920  0.00  0.00    +0.000 C 
BRANCH  14  17
ATOM     17  C   UNL     1      47.982   5.131  15.798  0.00  0.00    +0.000 A 
ATOM     18  C   UNL     1      48.479   6.308  15.208  0.00  0.00    +0.000 A 
ATOM     19  C   UNL     1      48.133   6.675  13.904  0.00  0.00    +0.000 A 
ATOM     20  C   UNL     1      47.277   5.867  13.159  0.00  0.00    +0.000 A 
ATOM     21  C   UNL     1      46.758   4.710  13.729  0.00  0.00    +0.000 A 
ATOM     22 CL   UNL     1      45.704   3.703  12.814  0.00  0.00    +0.000 Cl
ATOM     23  C   UNL     1      47.095   4.352  15.035  0.00  0.00    +0.000 A 
ENDBRANCH  14  17
ENDBRANCH   5  14
TORSDOF 3
ENDMDL
MODEL 8
REMARK VINA RESULT:    -6.036      2.692      4.036
REMARK INTER + INTRA:          -6.923
REMARK INTER:                  -6.467
REMARK INTRA:                  -0.456
REMARK UNBOUND:                 0.171
REMARK  Name = 
REMARK  3 active torsions:
REMARK  status: ('A' for Active; 'I' for Inactive)
REMARK    1  A    between atoms: C_2  and  C_4
REMARK    2  A    between atoms: N_8  and  C_9
REMARK    3  A    between atoms: C_9  and  C_10
REMARK                            x       y       z     vdW  Elec       q    Type
REMARK                         _______ _______ _______ _____ _____    ______ ____
ROOT
ATOM      1  C   UNL     1      44.576   4.356   9.849  0.00  0.00    +0.000 A 
ATOM      2  C   UNL     1      43.493   4.568  10.679  0.00  0.00    +0.000 A 
ATOM      3  C   UNL     1      43.510   5.690  11.506  0.00  0.00    +0.000 A 
ATOM      4  C   UNL     1      44.582   6.578  11.447  0.00  0.00    +0.000 A 
ATOM      5  N   UNL     1      44.531   7.728  12.270  0.00  0.00    +0.000 N 
ATOM      6  N   UNL     1      45.613   6.322  10.615  0.00  0.00    +0.000 NA
ATOM      7  N   UNL     1      45.627   5.201   9.818  0.00  0.00    +0.000 NA
ATOM      8  H   UNL     1      44.554   7.441  13.244  0.00  0.00    +0.000 HD
ENDROOT
BRANCH   1  10
ATOM      9  N   UNL     1      44.561   1.947   9.543  0.00  0.00    +0.000 N 
ATOM     10  C   UNL     1      44.636   3.176   8.941  0.00  0.00    +0.000 C 
ATOM     11  O   UNL     1      44.739   3.292   7.729  0.00  0.00    +0.000 OA
ATOM     12  H   UNL     1      44.601   1.117   8.971  0.00  0.00    +0.000 HD
ATOM     13  H   UNL     1      44.472   1.863  10.549  0.00  0.00    +0.000 HD
ENDBRANCH   1  10
BRANCH   5  14
ATOM     14  C   UNL     1      45.204   9.010  11.966  0.00  0.00    +0.000 C 
ATOM     15  C   UNL     1      44.417  10.300  12.150  0.00  0.00    +0.000 C 
ATOM     16  C   UNL     1      44.881   9.904  10.784  0.00  0.00    +0.000 C 
BRANCH  14  17
ATOM     17  C   UNL     1      46.662   9.012  12.436  0.00  0.00    +0.000 A 
ATOM     18  C   UNL     1      47.644   9.767  11.767  0.00  0.00    +0.000 A 
ATOM     19  C   UNL     1      48.967   9.811  12.218  0.00  0.00    +0.000 A 
ATOM     20  C   UNL     1      49.338   9.094  13.353  0.00  0.00    +0.000 A 
ATOM     21  C   UNL     1      48.390   8.324  14.018  0.00  0.00    +0.000 A 
ATOM     22 CL   UNL     1      48.838   7.441  15.425  0.00  0.00    +0.000 Cl
ATOM     23  C   UNL     1      47.073   8.273  13.560  0.00  0.00    +0.000 A 
ENDBRANCH  14  17
ENDBRANCH   5  14
TORSDOF 3
ENDMDL
MODEL 9
REMARK VINA RESULT:    -6.009      3.721      5.617
REMARK INTER + INTRA:          -6.892
REMARK INTER:                  -6.516
REMARK INTRA:                  -0.376
REMARK UNBOUND:                 0.171
REMARK  Name = 
REMARK  3 active torsions:
REMARK  status: ('A' for Active; 'I' for Inactive)
REMARK    1  A    between atoms: C_2  and  C_4
REMARK    2  A    between atoms: N_8  and  C_9
REMARK    3  A    between atoms: C_9  and  C_10
REMARK                            x       y       z     vdW  Elec       q    Type
REMARK                         _______ _______ _______ _____ _____    ______ ____
ROOT
ATOM      1  C   UNL     1      45.038   4.630  11.257  0.00  0.00    +0.000 A 
ATOM      2  C   UNL     1      45.528   4.070  12.421  0.00  0.00    +0.000 A 
ATOM      3  C   UNL     1      46.534   4.752  13.103  0.00  0.00    +0.000 A 
ATOM      4  C   UNL     1      46.986   5.981  12.625  0.00  0.00    +0.000 A 
ATOM      5  N   UNL     1      47.973   6.658  13.378  0.00  0.00    +0.000 N 
ATOM      6  N   UNL     1      46.468   6.482  11.483  0.00  0.00    +0.000 NA
ATOM      7  N   UNL     1      45.500   5.804  10.780  0.00  0.00    +0.000 NA
ATOM      8  H   UNL     1      48.828   6.109  13.376  0.00  0.00    +0.000 HD
ENDROOT
BRANCH   1  10
ATOM      9  N   UNL     1      43.870   4.325   9.150  0.00  0.00    +0.000 N 
ATOM     10  C   UNL     1      43.967   3.959  10.467  0.00  0.00    +0.000 C 
ATOM     11  O   UNL     1      43.221   3.125  10.959  0.00  0.00    +0.000 OA
ATOM     12  H   UNL     1      43.158   3.902   8.574  0.00  0.00    +0.000 HD
ATOM     13  H   UNL     1      44.496   5.016   8.753  0.00  0.00    +0.000 HD
ENDBRANCH   1  10
BRANCH   5  14
ATOM     14  C   UNL     1      48.157   8.126  13.397  0.00  0.00    +0.000 C 
ATOM     15  C   UNL     1      48.107   8.843  14.740  0.00  0.00    +0.000 C 
ATOM     16  C   UNL     1      47.067   9.136  13.703  0.00  0.00    +0.000 C 
BRANCH  14  17
ATOM     17  C   UNL     1      49.237   8.576  12.408  0.00  0.00    +0.000 A 
ATOM     18  C   UNL     1      49.373   9.928  12.042  0.00  0.00    +0.000 A 
ATOM     19  C   UNL     1      50.386  10.354  11.176  0.00  0.00    +0.000 A 
ATOM     20  C   UNL     1      51.287   9.429  10.654  0.00  0.00    +0.000 A 
ATOM     21  C   UNL     1      51.158   8.084  10.985  0.00  0.00    +0.000 A 
ATOM     22 CL   UNL     1      52.271   6.936  10.349  0.00  0.00    +0.000 Cl
ATOM     23  C   UNL     1      50.140   7.660  11.840  0.00  0.00    +0.000 A 
ENDBRANCH  14  17
ENDBRANCH   5  14
TORSDOF 3
ENDMDL
