MODEL 1
REMARK VINA RESULT:    -8.080      0.000      0.000
REMARK INTER + INTRA:         -11.570
REMARK INTER:                 -11.386
REMARK INTRA:                  -0.184
REMARK UNBOUND:                -0.184
REMARK  Name = 
REMARK  7 active torsions:
REMARK  status: ('A' for Active; 'I' for Inactive)
REMARK    1  A    between atoms: C_2  and  C_3
REMARK    2  A    between atoms: C_8  and  C_9
REMARK    3  A    between atoms: N_11  and  C_12
REMARK    4  A    between atoms: C_12  and  C_13
REMARK    5  A    between atoms: C_16  and  C_17
REMARK    6  A    between atoms: C_17  and  N_18
REMARK    7  A    between atoms: C_19  and  C_21
REMARK                            x       y       z     vdW  Elec       q    Type
REMARK                         _______ _______ _______ _____ _____    ______ ____
ROOT
ATOM      1  C   UNL     1      43.696   5.333  11.967  0.00  0.00    +0.000 C 
ATOM      2  C   UNL     1      44.136   3.909  12.337  0.00  0.00    +0.000 C 
ATOM      3  C   UNL     1      45.654   3.752  12.273  0.00  0.00    +0.000 C 
ATOM      4  C   UNL     1      46.373   4.733  13.213  0.00  0.00    +0.000 C 
ATOM      5  C   UNL     1      45.937   6.174  12.896  0.00  0.00    +0.000 C 
ATOM      6  C   UNL     1      44.415   6.352  12.874  0.00  0.00    +0.000 C 
ENDROOT
BRANCH   1   7
ATOM      7  C   UNL     1      43.936   5.654  10.478  0.00  0.00    +0.000 C 
BRANCH   7  10
ATOM      8  C   UNL     1      45.575   4.672   8.915  0.00  0.00    +0.000 C 
ATOM      9  O   UNL     1      46.151   5.748   8.774  0.00  0.00    +0.000 OA
ATOM     10  N   UNL     1      44.479   4.526   9.735  0.00  0.00    +0.000 N 
ATOM     11  H   UNL     1      44.014   3.639   9.864  0.00  0.00    +0.000 HD
BRANCH   8  17
ATOM     12  C   UNL     1      45.670   2.150   8.359  0.00  0.00    +0.000 A 
ATOM     13  C   UNL     1      46.258   1.124   7.592  0.00  0.00    +0.000 A 
ATOM     14  C   UNL     1      47.278   1.401   6.684  0.00  0.00    +0.000 A 
ATOM     15  C   UNL     1      47.728   2.706   6.532  0.00  0.00    +0.000 A 
ATOM     16  C   UNL     1      47.152   3.731   7.285  0.00  0.00    +0.000 A 
ATOM     17  C   UNL     1      46.122   3.471   8.211  0.00  0.00    +0.000 A 
BRANCH  12  19
ATOM     18  N   UNL     1      43.780   1.515  10.009  0.00  0.00    +0.000 NA
ATOM     19  C   UNL     1      44.622   1.770   9.250  0.00  0.00    +0.000 C 
ENDBRANCH  12  19
ENDBRANCH   8  17
ENDBRANCH   7  10
ENDBRANCH   1   7
BRANCH   4  20
ATOM     20  C   UNL     1      46.136   4.390  14.696  0.00  0.00    +0.000 C 
BRANCH  20  21
ATOM     21  N   UNL     1      47.334   4.563  15.494  0.00  0.00    +0.000 N 
ATOM     22  C   UNL     1      47.448   4.030  16.749  0.00  0.00    +0.000 C 
ATOM     23  O   UNL     1      46.551   3.357  17.258  0.00  0.00    +0.000 OA
ATOM     24  H   UNL     1      48.018   5.247  15.182  0.00  0.00    +0.000 HD
BRANCH  22  25
ATOM     25  C   UNL     1      48.719   4.239  17.449  0.00  0.00    +0.000 A 
ATOM     26  C   UNL     1      48.906   5.409  18.172  0.00  0.00    +0.000 A 
ATOM     27  S   UNL     1      50.435   5.518  18.914  0.00  0.00    +0.000 S 
ATOM     28  C   UNL     1      50.918   4.023  18.260  0.00  0.00    +0.000 A 
ATOM     29  N   UNL     1      52.169   3.539  18.475  0.00  0.00    +0.000 NA
ATOM     30  C   UNL     1      52.417   2.414  17.888  0.00  0.00    +0.000 A 
ATOM     31  N   UNL     1      51.516   1.722  17.121  0.00  0.00    +0.000 N 
ATOM     32  C   UNL     1      50.213   2.131  16.951  0.00  0.00    +0.000 A 
ATOM     33  O   UNL     1      49.388   1.418  16.395  0.00  0.00    +0.000 OA
ATOM     34  C   UNL     1      49.908   3.426  17.529  0.00  0.00    +0.000 A 
ATOM     35  H   UNL     1      51.757   0.825  16.725  0.00  0.00    +0.000 HD
ENDBRANCH  22  25
ENDBRANCH  20  21
ENDBRANCH   4  20
TORSDOF 7
ENDMDL
MODEL 2
REMARK VINA RESULT:    -7.999      2.997      8.870
REMARK INTER + INTRA:         -11.456
REMARK INTER:                 -10.329
REMARK INTRA:                  -1.127
REMARK UNBOUND:                -0.184
REMARK  Name = 
REMARK  7 active torsions:
REMARK  status: ('A' for Active; 'I' for Inactive)
REMARK    1  A    between atoms: C_2  and  C_3
REMARK    2  A    between atoms: C_8  and  C_9
REMARK    3  A    between atoms: N_11  and  C_12
REMARK    4  A    between atoms: C_12  and  C_13
REMARK    5  A    between atoms: C_16  and  C_17
REMARK    6  A    between atoms: C_17  and  N_18
REMARK    7  A    between atoms: C_19  and  C_21
REMARK                            x       y       z     vdW  Elec       q    Type
REMARK                         _______ _______ _______ _____ _____    ______ ____
ROOT
ATOM      1  C   UNL     1      48.621   7.757  15.442  0.00  0.00    +0.000 C 
ATOM      2  C   UNL     1      48.366   9.082  14.708  0.00  0.00    +0.000 C 
ATOM      3  C   UNL     1      49.128   9.150  13.385  0.00  0.00    +0.000 C 
ATOM      4  C   UNL     1      48.743   8.000  12.442  0.00  0.00    +0.000 C 
ATOM      5  C   UNL     1      48.955   6.651  13.150  0.00  0.00    +0.000 C 
ATOM      6  C   UNL     1      48.268   6.574  14.519  0.00  0.00    +0.000 C 
ENDROOT
BRANCH   1   7
ATOM      7  C   UNL     1      50.068   7.642  15.961  0.00  0.00    +0.000 C 
BRANCH   7  10
ATOM      8  C   UNL     1      50.341   5.624  17.358  0.00  0.00    +0.000 C 
ATOM      9  O   UNL     1      49.833   6.176  18.331  0.00  0.00    +0.000 OA
ATOM     10  N   UNL     1      50.495   6.263  16.148  0.00  0.00    +0.000 N 
ATOM     11  H   UNL     1      50.898   5.805  15.343  0.00  0.00    +0.000 HD
BRANCH   8  17
ATOM     12  C   UNL     1      49.938   3.075  17.237  0.00  0.00    +0.000 A 
ATOM     13  C   UNL     1      50.481   1.779  17.354  0.00  0.00    +0.000 A 
ATOM     14  C   UNL     1      51.817   1.590  17.705  0.00  0.00    +0.000 A 
ATOM     15  C   UNL     1      52.628   2.692  17.947  0.00  0.00    +0.000 A 
ATOM     16  C   UNL     1      52.101   3.980  17.832  0.00  0.00    +0.000 A 
ATOM     17  C   UNL     1      50.752   4.192  17.483  0.00  0.00    +0.000 A 
BRANCH  12  19
ATOM     18  N   UNL     1      47.436   3.269  16.607  0.00  0.00    +0.000 NA
ATOM     19  C   UNL     1      48.566   3.167  16.859  0.00  0.00    +0.000 C 
ENDBRANCH  12  19
ENDBRANCH   8  17
ENDBRANCH   7  10
ENDBRANCH   1   7
BRANCH   4  20
ATOM     20  C   UNL     1      47.301   8.138  11.921  0.00  0.00    +0.000 C 
BRANCH  20  21
ATOM     21  N   UNL     1      46.654   6.851  11.757  0.00  0.00    +0.000 N 
ATOM     22  C   UNL     1      45.297   6.738  11.616  0.00  0.00    +0.000 C 
ATOM     23  O   UNL     1      44.557   7.722  11.596  0.00  0.00    +0.000 OA
ATOM     24  H   UNL     1      47.204   6.016  11.939  0.00  0.00    +0.000 HD
BRANCH  22  25
ATOM     25  C   UNL     1      44.758   5.389  11.422  0.00  0.00    +0.000 A 
ATOM     26  C   UNL     1      43.966   4.830  12.416  0.00  0.00    +0.000 A 
ATOM     27  S   UNL     1      43.428   3.254  12.058  0.00  0.00    +0.000 S 
ATOM     28  C   UNL     1      44.270   3.246  10.579  0.00  0.00    +0.000 A 
ATOM     29  N   UNL     1      44.268   2.147   9.781  0.00  0.00    +0.000 NA
ATOM     30  C   UNL     1      44.979   2.261   8.708  0.00  0.00    +0.000 A 
ATOM     31  N   UNL     1      45.677   3.387   8.354  0.00  0.00    +0.000 N 
ATOM     32  C   UNL     1      45.634   4.551   9.088  0.00  0.00    +0.000 A 
ATOM     33  O   UNL     1      46.136   5.586   8.669  0.00  0.00    +0.000 OA
ATOM     34  C   UNL     1      44.910   4.448  10.339  0.00  0.00    +0.000 A 
ATOM     35  H   UNL     1      46.179   3.429   7.479  0.00  0.00    +0.000 HD
ENDBRANCH  22  25
ENDBRANCH  20  21
ENDBRANCH   4  20
TORSDOF 7
ENDMDL
MODEL 3
REMARK VINA RESULT:    -7.863      2.149      2.951
REMARK INTER + INTRA:         -11.264
REMARK INTER:                 -10.356
REMARK INTRA:                  -0.908
REMARK UNBOUND:                -0.184
REMARK  Name = 
REMARK  7 active torsions:
REMARK  status: ('A' for Active; 'I' for Inactive)
REMARK    1  A    between atoms: C_2  and  C_3
REMARK    2  A    between atoms: C_8  and  C_9
REMARK    3  A    between atoms: N_11  and  C_12
REMARK    4  A    between atoms: C_12  and  C_13
REMARK    5  A    between atoms: C_16  and  C_17
REMARK    6  A    between atoms: C_17  and  N_18
REMARK    7  A    between atoms: C_19  and  C_21
REMARK                            x       y       z     vdW  Elec       q    Type
REMARK                         _______ _______ _______ _____ _____    ______ ____
ROOT
ATOM      1  C   UNL     1      46.509   7.556  13.262  0.00  0.00    +0.000 C 
ATOM      2  C   UNL     1      47.118   6.267  13.835  0.00  0.00    +0.000 C 
ATOM      3  C   UNL     1      48.641   6.264  13.721  0.00  0.00    +0.000 C 
ATOM      4  C   UNL     1      49.275   7.456  14.454  0.00  0.00    +0.000 C 
ATOM      5  C   UNL     1      48.669   8.771  13.931  0.00  0.00    +0.000 C 
ATOM      6  C   UNL     1      47.137   8.781  13.957  0.00  0.00    +0.000 C 
ENDROOT
BRANCH   1   7
ATOM      7  C   UNL     1      46.663   7.650  11.731  0.00  0.00    +0.000 C 
BRANCH   7  10
ATOM      8  C   UNL     1      45.283   5.890  10.685  0.00  0.00    +0.000 C 
ATOM      9  O   UNL     1      44.249   6.526  10.876  0.00  0.00    +0.000 OA
ATOM     10  N   UNL     1      46.518   6.363  11.067  0.00  0.00    +0.000 N 
ATOM     11  H   UNL     1      47.371   5.847  10.897  0.00  0.00    +0.000 HD
BRANCH   8  17
ATOM     12  C   UNL     1      44.664   3.390  10.477  0.00  0.00    +0.000 A 
ATOM     13  C   UNL     1      44.608   2.244   9.659  0.00  0.00    +0.000 A 
ATOM     14  C   UNL     1      45.066   2.279   8.343  0.00  0.00    +0.000 A 
ATOM     15  C   UNL     1      45.590   3.458   7.828  0.00  0.00    +0.000 A 
ATOM     16  C   UNL     1      45.650   4.600   8.629  0.00  0.00    +0.000 A 
ATOM     17  C   UNL     1      45.195   4.583   9.963  0.00  0.00    +0.000 A 
BRANCH  12  19
ATOM     18  N   UNL     1      43.775   3.098  12.890  0.00  0.00    +0.000 NA
ATOM     19  C   UNL     1      44.157   3.260  11.805  0.00  0.00    +0.000 C 
ENDBRANCH  12  19
ENDBRANCH   8  17
ENDBRANCH   7  10
ENDBRANCH   1   7
BRANCH   4  20
ATOM     20  C   UNL     1      49.126   7.341  15.982  0.00  0.00    +0.000 C 
BRANCH  20  21
ATOM     21  N   UNL     1      50.156   6.506  16.569  0.00  0.00    +0.000 N 
ATOM     22  C   UNL     1      49.852   5.470  17.410  0.00  0.00    +0.000 C 
ATOM     23  O   UNL     1      48.691   5.176  17.693  0.00  0.00    +0.000 OA
ATOM     24  H   UNL     1      51.120   6.819  16.498  0.00  0.00    +0.000 HD
BRANCH  22  25
ATOM     25  C   UNL     1      50.973   4.672  17.915  0.00  0.00    +0.000 A 
ATOM     26  C   UNL     1      51.960   5.296  18.667  0.00  0.00    +0.000 A 
ATOM     27  S   UNL     1      53.204   4.247  19.169  0.00  0.00    +0.000 S 
ATOM     28  C   UNL     1      52.490   2.929  18.364  0.00  0.00    +0.000 A 
ATOM     29  N   UNL     1      53.089   1.709  18.354  0.00  0.00    +0.000 NA
ATOM     30  C   UNL     1      52.461   0.809  17.673  0.00  0.00    +0.000 A 
ATOM     31  N   UNL     1      51.276   1.016  17.016  0.00  0.00    +0.000 N 
ATOM     32  C   UNL     1      50.591   2.209  17.073  0.00  0.00    +0.000 A 
ATOM     33  O   UNL     1      49.463   2.319  16.611  0.00  0.00    +0.000 OA
ATOM     34  C   UNL     1      51.293   3.274  17.764  0.00  0.00    +0.000 A 
ATOM     35  H   UNL     1      50.812   0.258  16.536  0.00  0.00    +0.000 HD
ENDBRANCH  22  25
ENDBRANCH  20  21
ENDBRANCH   4  20
TORSDOF 7
ENDMDL
MODEL 4
REMARK VINA RESULT:    -7.815      2.202      2.868
REMARK INTER + INTRA:         -11.197
REMARK INTER:                 -11.018
REMARK INTRA:                  -0.179
REMARK UNBOUND:                -0.184
REMARK  Name = 
REMARK  7 active torsions:
REMARK  status: ('A' for Active; 'I' for Inactive)
REMARK    1  A    between atoms: C_2  and  C_3
REMARK    2  A    between atoms: C_8  and  C_9
REMARK    3  A    between atoms: N_11  and  C_12
REMARK    4  A    between atoms: C_12  and  C_13
REMARK    5  A    between atoms: C_16  and  C_17
REMARK    6  A    between atoms: C_17  and  N_18
REMARK    7  A    between atoms: C_19  and  C_21
REMARK                            x       y       z     vdW  Elec       q    Type
REMARK                         _______ _______ _______ _____ _____    ______ ____
ROOT
ATOM      1  C   UNL     1      43.906   4.644  11.769  0.00  0.00    +0.000 C 
ATOM      2  C   UNL     1      44.621   4.563  13.126  0.00  0.00    +0.000 C 
ATOM      3  C   UNL     1      46.137   4.484  12.961  0.00  0.00    +0.000 C 
ATOM      4  C   UNL     1      46.696   5.696  12.200  0.00  0.00    +0.000 C 
ATOM      5  C   UNL     1      45.984   5.834  10.843  0.00  0.00    +0.000 C 
ATOM      6  C   UNL     1      44.456   5.838  10.962  0.00  0.00    +0.000 C 
ENDROOT
BRANCH   1   7
ATOM      7  C   UNL     1      44.020   3.334  10.964  0.00  0.00    +0.000 C 
BRANCH   7  10
ATOM      8  C   UNL     1      45.126   2.386   8.970  0.00  0.00    +0.000 C 
ATOM      9  O   UNL     1      44.518   1.325   9.084  0.00  0.00    +0.000 OA
ATOM     10  N   UNL     1      44.945   3.435   9.844  0.00  0.00    +0.000 N 
ATOM     11  H   UNL     1      45.433   4.313   9.743  0.00  0.00    +0.000 HD
BRANCH   8  17
ATOM     12  C   UNL     1      46.783   1.541   7.177  0.00  0.00    +0.000 A 
ATOM     13  C   UNL     1      47.585   1.851   6.060  0.00  0.00    +0.000 A 
ATOM     14  C   UNL     1      47.658   3.153   5.568  0.00  0.00    +0.000 A 
ATOM     15  C   UNL     1      46.934   4.164   6.187  0.00  0.00    +0.000 A 
ATOM     16  C   UNL     1      46.135   3.868   7.294  0.00  0.00    +0.000 A 
ATOM     17  C   UNL     1      46.052   2.559   7.809  0.00  0.00    +0.000 A 
BRANCH  12  19
ATOM     18  N   UNL     1      46.726  -0.948   7.881  0.00  0.00    +0.000 NA
ATOM     19  C   UNL     1      46.762   0.178   7.598  0.00  0.00    +0.000 C 
ENDBRANCH  12  19
ENDBRANCH   8  17
ENDBRANCH   7  10
ENDBRANCH   1   7
BRANCH   4  20
ATOM     20  C   UNL     1      46.589   6.994  13.023  0.00  0.00    +0.000 C 
BRANCH  20  21
ATOM     21  N   UNL     1      47.142   6.844  14.354  0.00  0.00    +0.000 N 
ATOM     22  C   UNL     1      48.486   6.701  14.566  0.00  0.00    +0.000 C 
ATOM     23  O   UNL     1      49.299   6.717  13.641  0.00  0.00    +0.000 OA
ATOM     24  H   UNL     1      46.498   6.655  15.118  0.00  0.00    +0.000 HD
BRANCH  22  25
ATOM     25  C   UNL     1      48.934   6.592  15.957  0.00  0.00    +0.000 A 
ATOM     26  C   UNL     1      49.833   7.528  16.451  0.00  0.00    +0.000 A 
ATOM     27  S   UNL     1      50.273   7.263  18.075  0.00  0.00    +0.000 S 
ATOM     28  C   UNL     1      49.309   5.863  18.164  0.00  0.00    +0.000 A 
ATOM     29  N   UNL     1      49.273   5.111  19.294  0.00  0.00    +0.000 NA
ATOM     30  C   UNL     1      48.533   4.055  19.213  0.00  0.00    +0.000 A 
ATOM     31  N   UNL     1      47.811   3.695  18.105  0.00  0.00    +0.000 N 
ATOM     32  C   UNL     1      47.749   4.473  16.971  0.00  0.00    +0.000 A 
ATOM     33  O   UNL     1      46.975   4.211  16.059  0.00  0.00    +0.000 OA
ATOM     34  C   UNL     1      48.622   5.631  16.987  0.00  0.00    +0.000 A 
ATOM     35  H   UNL     1      47.216   2.879  18.118  0.00  0.00    +0.000 HD
ENDBRANCH  22  25
ENDBRANCH  20  21
ENDBRANCH   4  20
TORSDOF 7
ENDMDL
MODEL 5
REMARK VINA RESULT:    -7.305      3.748      8.822
REMARK INTER + INTRA:         -10.478
REMARK INTER:                  -8.767
REMARK INTRA:                  -1.711
REMARK UNBOUND:                -0.184
REMARK  Name = 
REMARK  7 active torsions:
REMARK  status: ('A' for Active; 'I' for Inactive)
REMARK    1  A    between atoms: C_2  and  C_3
REMARK    2  A    between atoms: C_8  and  C_9
REMARK    3  A    between atoms: N_11  and  C_12
REMARK    4  A    between atoms: C_12  and  C_13
REMARK    5  A    between atoms: C_16  and  C_17
REMARK    6  A    between atoms: C_17  and  N_18
REMARK    7  A    between atoms: C_19  and  C_21
REMARK                            x       y       z     vdW  Elec       q    Type
REMARK                         _______ _______ _______ _____ _____    ______ ____
ROOT
ATOM      1  C   UNL     1      51.426   8.027  15.804  0.00  0.00    +0.000 C 
ATOM      2  C   UNL     1      50.234   7.240  15.238  0.00  0.00    +0.000 C 
ATOM      3  C   UNL     1      48.985   7.410  16.099  0.00  0.00    +0.000 C 
ATOM      4  C   UNL     1      48.567   8.884  16.221  0.00  0.00    +0.000 C 
ATOM      5  C   UNL     1      49.745   9.717  16.758  0.00  0.00    +0.000 C 
ATOM      6  C   UNL     1      51.039   9.512  15.964  0.00  0.00    +0.000 C 
ENDROOT
BRANCH   1   7
ATOM      7  C   UNL     1      51.937   7.443  17.136  0.00  0.00    +0.000 C 
BRANCH   7  10
ATOM      8  C   UNL     1      51.436   5.181  17.991  0.00  0.00    +0.000 C 
ATOM      9  O   UNL     1      50.685   5.627  18.855  0.00  0.00    +0.000 OA
ATOM     10  N   UNL     1      52.094   5.996  17.097  0.00  0.00    +0.000 N 
ATOM     11  H   UNL     1      52.700   5.630  16.377  0.00  0.00    +0.000 HD
BRANCH   8  17
ATOM     12  C   UNL     1      50.631   2.800  17.395  0.00  0.00    +0.000 A 
ATOM     13  C   UNL     1      50.942   1.428  17.305  0.00  0.00    +0.000 A 
ATOM     14  C   UNL     1      52.196   0.950  17.683  0.00  0.00    +0.000 A 
ATOM     15  C   UNL     1      53.155   1.836  18.158  0.00  0.00    +0.000 A 
ATOM     16  C   UNL     1      52.858   3.197  18.250  0.00  0.00    +0.000 A 
ATOM     17  C   UNL     1      51.595   3.699  17.878  0.00  0.00    +0.000 A 
BRANCH  12  19
ATOM     18  N   UNL     1      48.266   3.561  16.672  0.00  0.00    +0.000 NA
ATOM     19  C   UNL     1      49.327   3.194  16.972  0.00  0.00    +0.000 C 
ENDBRANCH  12  19
ENDBRANCH   8  17
ENDBRANCH   7  10
ENDBRANCH   1   7
BRANCH   4  20
ATOM     20  C   UNL     1      48.045   9.448  14.887  0.00  0.00    +0.000 C 
BRANCH  20  21
ATOM     21  N   UNL     1      47.048   8.587  14.283  0.00  0.00    +0.000 N 
ATOM     22  C   UNL     1      47.151   8.163  12.985  0.00  0.00    +0.000 C 
ATOM     23  O   UNL     1      48.105   8.471  12.271  0.00  0.00    +0.000 OA
ATOM     24  H   UNL     1      46.171   8.454  14.779  0.00  0.00    +0.000 HD
BRANCH  22  25
ATOM     25  C   UNL     1      46.102   7.266  12.493  0.00  0.00    +0.000 A 
ATOM     26  C   UNL     1      45.016   7.805  11.816  0.00  0.00    +0.000 A 
ATOM     27  S   UNL     1      43.873   6.645  11.320  0.00  0.00    +0.000 S 
ATOM     28  C   UNL     1      44.768   5.383  12.029  0.00  0.00    +0.000 A 
ATOM     29  N   UNL     1      44.310   4.104  12.007  0.00  0.00    +0.000 NA
ATOM     30  C   UNL     1      45.067   3.252  12.616  0.00  0.00    +0.000 A 
ATOM     31  N   UNL     1      46.253   3.565  13.228  0.00  0.00    +0.000 N 
ATOM     32  C   UNL     1      46.796   4.829  13.198  0.00  0.00    +0.000 A 
ATOM     33  O   UNL     1      47.927   5.047  13.614  0.00  0.00    +0.000 OA
ATOM     34  C   UNL     1      45.947   5.835  12.591  0.00  0.00    +0.000 A 
ATOM     35  H   UNL     1      46.821   2.845  13.650  0.00  0.00    +0.000 HD
ENDBRANCH  22  25
ENDBRANCH  20  21
ENDBRANCH   4  20
TORSDOF 7
ENDMDL
MODEL 6
REMARK VINA RESULT:    -7.248      3.499      9.719
REMARK INTER + INTRA:         -10.398
REMARK INTER:                  -9.538
REMARK INTRA:                  -0.860
REMARK UNBOUND:                -0.184
REMARK  Name = 
REMARK  7 active torsions:
REMARK  status: ('A' for Active; 'I' for Inactive)
REMARK    1  A    between atoms: C_2  and  C_3
REMARK    2  A    between atoms: C_8  and  C_9
REMARK    3  A    between atoms: N_11  and  C_12
REMARK    4  A    between atoms: C_12  and  C_13
REMARK    5  A    between atoms: C_16  and  C_17
REMARK    6  A    between atoms: C_17  and  N_18
REMARK    7  A    between atoms: C_19  and  C_21
REMARK                            x       y       z     vdW  Elec       q    Type
REMARK                         _______ _______ _______ _____ _____    ______ ____
ROOT
ATOM      1  C   UNL     1      51.680   6.019  18.312  0.00  0.00    +0.000 C 
ATOM      2  C   UNL     1      51.089   5.351  17.061  0.00  0.00    +0.000 C 
ATOM      3  C   UNL     1      49.574   5.193  17.169  0.00  0.00    +0.000 C 
ATOM      4  C   UNL     1      48.868   6.543  17.367  0.00  0.00    +0.000 C 
ATOM      5  C   UNL     1      49.452   7.262  18.596  0.00  0.00    +0.000 C 
ATOM      6  C   UNL     1      50.980   7.371  18.560  0.00  0.00    +0.000 C 
ENDROOT
BRANCH   1   7
ATOM      7  C   UNL     1      51.593   5.115  19.558  0.00  0.00    +0.000 C 
BRANCH   7  10
ATOM      8  C   UNL     1      53.402   3.493  19.117  0.00  0.00    +0.000 C 
ATOM      9  O   UNL     1      54.259   4.372  19.152  0.00  0.00    +0.000 OA
ATOM     10  N   UNL     1      52.065   3.761  19.310  0.00  0.00    +0.000 N 
ATOM     11  H   UNL     1      51.361   3.036  19.296  0.00  0.00    +0.000 HD
BRANCH   8  17
ATOM     12  C   UNL     1      53.165   1.106  18.156  0.00  0.00    +0.000 A 
ATOM     13  C   UNL     1      53.724  -0.180  18.018  0.00  0.00    +0.000 A 
ATOM     14  C   UNL     1      54.940  -0.502  18.618  0.00  0.00    +0.000 A 
ATOM     15  C   UNL     1      55.613   0.456  19.367  0.00  0.00    +0.000 A 
ATOM     16  C   UNL     1      55.068   1.734  19.509  0.00  0.00    +0.000 A 
ATOM     17  C   UNL     1      53.838   2.077  18.913  0.00  0.00    +0.000 A 
BRANCH  12  19
ATOM     18  N   UNL     1      50.885   1.530  17.007  0.00  0.00    +0.000 NA
ATOM     19  C   UNL     1      51.925   1.345  17.492  0.00  0.00    +0.000 C 
ENDBRANCH  12  19
ENDBRANCH   8  17
ENDBRANCH   7  10
ENDBRANCH   1   7
BRANCH   4  20
ATOM     20  C   UNL     1      48.950   7.428  16.109  0.00  0.00    +0.000 C 
BRANCH  20  21
ATOM     21  N   UNL     1      47.890   7.135  15.165  0.00  0.00    +0.000 N 
ATOM     22  C   UNL     1      48.155   6.732  13.884  0.00  0.00    +0.000 C 
ATOM     23  O   UNL     1      49.304   6.574  13.473  0.00  0.00    +0.000 OA
ATOM     24  H   UNL     1      46.944   7.416  15.410  0.00  0.00    +0.000 HD
BRANCH  22  25
ATOM     25  C   UNL     1      47.003   6.430  13.030  0.00  0.00    +0.000 A 
ATOM     26  C   UNL     1      46.386   7.464  12.338  0.00  0.00    +0.000 A 
ATOM     27  S   UNL     1      45.055   6.964  11.402  0.00  0.00    +0.000 S 
ATOM     28  C   UNL     1      45.229   5.352  11.920  0.00  0.00    +0.000 A 
ATOM     29  N   UNL     1      44.355   4.392  11.519  0.00  0.00    +0.000 NA
ATOM     30  C   UNL     1      44.579   3.221  12.018  0.00  0.00    +0.000 A 
ATOM     31  N   UNL     1      45.611   2.923  12.869  0.00  0.00    +0.000 N 
ATOM     32  C   UNL     1      46.568   3.843  13.231  0.00  0.00    +0.000 A 
ATOM     33  O   UNL     1      47.564   3.513  13.862  0.00  0.00    +0.000 OA
ATOM     34  C   UNL     1      46.319   5.190  12.756  0.00  0.00    +0.000 A 
ATOM     35  H   UNL     1      45.758   1.977  13.191  0.00  0.00    +0.000 HD
ENDBRANCH  22  25
ENDBRANCH  20  21
ENDBRANCH   4  20
TORSDOF 7
ENDMDL
MODEL 7
REMARK VINA RESULT:    -7.222      3.227      5.835
REMARK INTER + INTRA:         -10.362
REMARK INTER:                  -9.317
REMARK INTRA:                  -1.044
REMARK UNBOUND:                -0.184
REMARK  Name = 
REMARK  7 active torsions:
REMARK  status: ('A' for Active; 'I' for Inactive)
REMARK    1  A    between atoms: C_2  and  C_3
REMARK    2  A    between atoms: C_8  and  C_9
REMARK    3  A    between atoms: N_11  and  C_12
REMARK    4  A    between atoms: C_12  and  C_13
REMARK    5  A    between atoms: C_16  and  C_17
REMARK    6  A    between atoms: C_17  and  N_18
REMARK    7  A    between atoms: C_19  and  C_21
REMARK                            x       y       z     vdW  Elec       q    Type
REMARK                         _______ _______ _______ _____ _____    ______ ____
ROOT
ATOM      1  C   UNL     1      48.411   4.915  16.708  0.00  0.00    +0.000 C 
ATOM      2  C   UNL     1      48.431   6.090  17.697  0.00  0.00    +0.000 C 
ATOM      3  C   UNL     1      48.112   5.635  19.120  0.00  0.00    +0.000 C 
ATOM      4  C   UNL     1      49.104   4.573  19.620  0.00  0.00    +0.000 C 
ATOM      5  C   UNL     1      49.139   3.388  18.639  0.00  0.00    +0.000 C 
ATOM      6  C   UNL     1      49.380   3.815  17.187  0.00  0.00    +0.000 C 
ENDROOT
BRANCH   1   7
ATOM      7  C   UNL     1      46.993   4.349  16.495  0.00  0.00    +0.000 C 
BRANCH   7  10
ATOM      8  C   UNL     1      46.697   4.014  14.067  0.00  0.00    +0.000 C 
ATOM      9  O   UNL     1      47.432   3.029  14.069  0.00  0.00    +0.000 OA
ATOM     10  N   UNL     1      46.418   4.725  15.212  0.00  0.00    +0.000 N 
ATOM     11  H   UNL     1      45.802   5.526  15.214  0.00  0.00    +0.000 HD
BRANCH   8  17
ATOM     12  C   UNL     1      46.267   5.607  12.079  0.00  0.00    +0.000 A 
ATOM     13  C   UNL     1      45.606   5.827  10.854  0.00  0.00    +0.000 A 
ATOM     14  C   UNL     1      44.737   4.874  10.327  0.00  0.00    +0.000 A 
ATOM     15  C   UNL     1      44.512   3.690  11.018  0.00  0.00    +0.000 A 
ATOM     16  C   UNL     1      45.163   3.461  12.233  0.00  0.00    +0.000 A 
ATOM     17  C   UNL     1      46.043   4.414  12.784  0.00  0.00    +0.000 A 
BRANCH  12  19
ATOM     18  N   UNL     1      47.911   7.425  12.908  0.00  0.00    +0.000 NA
ATOM     19  C   UNL     1      47.150   6.634  12.529  0.00  0.00    +0.000 C 
ENDBRANCH  12  19
ENDBRANCH   8  17
ENDBRANCH   7  10
ENDBRANCH   1   7
BRANCH   4  20
ATOM     20  C   UNL     1      50.512   5.157  19.841  0.00  0.00    +0.000 C 
BRANCH  20  21
ATOM     21  N   UNL     1      51.527   4.125  19.904  0.00  0.00    +0.000 N 
ATOM     22  C   UNL     1      52.534   4.045  18.980  0.00  0.00    +0.000 C 
ATOM     23  O   UNL     1      52.645   4.858  18.062  0.00  0.00    +0.000 OA
ATOM     24  H   UNL     1      51.373   3.344  20.536  0.00  0.00    +0.000 HD
BRANCH  22  25
ATOM     25  C   UNL     1      53.524   2.980  19.164  0.00  0.00    +0.000 A 
ATOM     26  C   UNL     1      54.561   3.173  20.068  0.00  0.00    +0.000 A 
ATOM     27  S   UNL     1      55.641   1.859  20.161  0.00  0.00    +0.000 S 
ATOM     28  C   UNL     1      54.784   1.002  18.966  0.00  0.00    +0.000 A 
ATOM     29  N   UNL     1      55.217  -0.210  18.532  0.00  0.00    +0.000 NA
ATOM     30  C   UNL     1      54.497  -0.732  17.594  0.00  0.00    +0.000 A 
ATOM     31  N   UNL     1      53.371  -0.157  17.067  0.00  0.00    +0.000 N 
ATOM     32  C   UNL     1      52.848   1.026  17.539  0.00  0.00    +0.000 A 
ATOM     33  O   UNL     1      51.758   1.437  17.161  0.00  0.00    +0.000 OA
ATOM     34  C   UNL     1      53.662   1.688  18.540  0.00  0.00    +0.000 A 
ATOM     35  H   UNL     1      52.826  -0.636  16.365  0.00  0.00    +0.000 HD
ENDBRANCH  22  25
ENDBRANCH  20  21
ENDBRANCH   4  20
TORSDOF 7
ENDMDL
MODEL 8
REMARK VINA RESULT:    -7.188      3.554      5.128
REMARK INTER + INTRA:         -10.314
REMARK INTER:                  -8.840
REMARK INTRA:                  -1.473
REMARK UNBOUND:                -0.184
REMARK  Name = 
REMARK  7 active torsions:
REMARK  status: ('A' for Active; 'I' for Inactive)
REMARK    1  A    between atoms: C_2  and  C_3
REMARK    2  A    between atoms: C_8  and  C_9
REMARK    3  A    between atoms: N_11  and  C_12
REMARK    4  A    between atoms: C_12  and  C_13
REMARK    5  A    between atoms: C_16  and  C_17
REMARK    6  A    between atoms: C_17  and  N_18
REMARK    7  A    between atoms: C_19  and  C_21
REMARK                            x       y       z     vdW  Elec       q    Type
REMARK                         _______ _______ _______ _____ _____    ______ ____
ROOT
ATOM      1  C   UNL     1      48.000   8.828  15.048  0.00  0.00    +0.000 C 
ATOM      2  C   UNL     1      48.466   7.435  15.499  0.00  0.00    +0.000 C 
ATOM      3  C   UNL     1      49.732   6.999  14.765  0.00  0.00    +0.000 C 
ATOM      4  C   UNL     1      50.891   7.984  14.984  0.00  0.00    +0.000 C 
ATOM      5  C   UNL     1      50.457   9.401  14.572  0.00  0.00    +0.000 C 
ATOM      6  C   UNL     1      49.145   9.844  15.231  0.00  0.00    +0.000 C 
ENDROOT
BRANCH   1   7
ATOM      7  C   UNL     1      47.483   8.833  13.596  0.00  0.00    +0.000 C 
BRANCH   7  10
ATOM      8  C   UNL     1      46.500   6.891  12.430  0.00  0.00    +0.000 C 
ATOM      9  O   UNL     1      47.502   6.746  11.734  0.00  0.00    +0.000 OA
ATOM     10  N   UNL     1      46.399   7.886  13.376  0.00  0.00    +0.000 N 
ATOM     11  H   UNL     1      45.582   7.996  13.960  0.00  0.00    +0.000 HD
BRANCH   8  17
ATOM     12  C   UNL     1      45.350   4.603  12.777  0.00  0.00    +0.000 A 
ATOM     13  C   UNL     1      44.198   3.812  12.592  0.00  0.00    +0.000 A 
ATOM     14  C   UNL     1      43.082   4.315  11.926  0.00  0.00    +0.000 A 
ATOM     15  C   UNL     1      43.101   5.613  11.433  0.00  0.00    +0.000 A 
ATOM     16  C   UNL     1      44.237   6.406  11.611  0.00  0.00    +0.000 A 
ATOM     17  C   UNL     1      45.377   5.915  12.278  0.00  0.00    +0.000 A 
BRANCH  12  19
ATOM     18  N   UNL     1      47.315   3.565  14.103  0.00  0.00    +0.000 NA
ATOM     19  C   UNL     1      46.436   4.005  13.483  0.00  0.00    +0.000 C 
ENDBRANCH  12  19
ENDBRANCH   8  17
ENDBRANCH   7  10
ENDBRANCH   1   7
BRANCH   4  20
ATOM     20  C   UNL     1      51.407   7.956  16.435  0.00  0.00    +0.000 C 
BRANCH  20  21
ATOM     21  N   UNL     1      51.940   6.658  16.800  0.00  0.00    +0.000 N 
ATOM     22  C   UNL     1      52.197   6.324  18.102  0.00  0.00    +0.000 C 
ATOM     23  O   UNL     1      51.967   7.096  19.033  0.00  0.00    +0.000 OA
ATOM     24  H   UNL     1      52.299   6.066  16.057  0.00  0.00    +0.000 HD
BRANCH  22  25
ATOM     25  C   UNL     1      52.701   4.971  18.355  0.00  0.00    +0.000 A 
ATOM     26  C   UNL     1      53.926   4.816  18.991  0.00  0.00    +0.000 A 
ATOM     27  S   UNL     1      54.388   3.190  19.200  0.00  0.00    +0.000 S 
ATOM     28  C   UNL     1      52.986   2.635  18.411  0.00  0.00    +0.000 A 
ATOM     29  N   UNL     1      52.780   1.308  18.205  0.00  0.00    +0.000 NA
ATOM     30  C   UNL     1      51.697   1.027  17.558  0.00  0.00    +0.000 A 
ATOM     31  N   UNL     1      50.791   1.957  17.117  0.00  0.00    +0.000 N 
ATOM     32  C   UNL     1      50.916   3.302  17.381  0.00  0.00    +0.000 A 
ATOM     33  O   UNL     1      50.017   4.090  17.115  0.00  0.00    +0.000 OA
ATOM     34  C   UNL     1      52.153   3.675  18.039  0.00  0.00    +0.000 A 
ATOM     35  H   UNL     1      49.940   1.670  16.655  0.00  0.00    +0.000 HD
ENDBRANCH  22  25
ENDBRANCH  20  21
ENDBRANCH   4  20
TORSDOF 7
ENDMDL
MODEL 9
REMARK VINA RESULT:    -7.011      3.374      8.960
REMARK INTER + INTRA:         -10.064
REMARK INTER:                  -8.794
REMARK INTRA:                  -1.270
REMARK UNBOUND:                -0.184
REMARK  Name = 
REMARK  7 active torsions:
REMARK  status: ('A' for Active; 'I' for Inactive)
REMARK    1  A    between atoms: C_2  and  C_3
REMARK    2  A    between atoms: C_8  and  C_9
REMARK    3  A    between atoms: N_11  and  C_12
REMARK    4  A    between atoms: C_12  and  C_13
REMARK    5  A    between atoms: C_16  and  C_17
REMARK    6  A    between atoms: C_17  and  N_18
REMARK    7  A    between atoms: C_19  and  C_21
REMARK                            x       y       z     vdW  Elec       q    Type
REMARK                         _______ _______ _______ _____ _____    ______ ____
ROOT
ATOM      1  C   UNL     1      48.631   7.084  17.518  0.00  0.00    +0.000 C 
ATOM      2  C   UNL     1      48.391   8.513  17.009  0.00  0.00    +0.000 C 
ATOM      3  C   UNL     1      49.175   8.795  15.728  0.00  0.00    +0.000 C 
ATOM      4  C   UNL     1      48.802   7.818  14.601  0.00  0.00    +0.000 C 
ATOM      5  C   UNL     1      48.999   6.369  15.080  0.00  0.00    +0.000 C 
ATOM      6  C   UNL     1      48.290   6.071  16.406  0.00  0.00    +0.000 C 
ENDROOT
BRANCH   1   7
ATOM      7  C   UNL     1      50.069   6.877  18.033  0.00  0.00    +0.000 C 
BRANCH   7  10
ATOM      8  C   UNL     1      51.459   4.925  17.437  0.00  0.00    +0.000 C 
ATOM      9  O   UNL     1      52.131   5.588  16.650  0.00  0.00    +0.000 OA
ATOM     10  N   UNL     1      50.427   5.472  18.166  0.00  0.00    +0.000 N 
ATOM     11  H   UNL     1      49.884   4.932  18.825  0.00  0.00    +0.000 HD
BRANCH   8  17
ATOM     12  C   UNL     1      51.005   2.383  17.345  0.00  0.00    +0.000 A 
ATOM     13  C   UNL     1      51.498   1.080  17.558  0.00  0.00    +0.000 A 
ATOM     14  C   UNL     1      52.781   0.871  18.059  0.00  0.00    +0.000 A 
ATOM     15  C   UNL     1      53.590   1.960  18.357  0.00  0.00    +0.000 A 
ATOM     16  C   UNL     1      53.113   3.256  18.149  0.00  0.00    +0.000 A 
ATOM     17  C   UNL     1      51.816   3.488  17.647  0.00  0.00    +0.000 A 
BRANCH  12  19
ATOM     18  N   UNL     1      48.598   2.631  16.429  0.00  0.00    +0.000 NA
ATOM     19  C   UNL     1      49.685   2.495  16.816  0.00  0.00    +0.000 C 
ENDBRANCH  12  19
ENDBRANCH   8  17
ENDBRANCH   7  10
ENDBRANCH   1   7
BRANCH   4  20
ATOM     20  C   UNL     1      47.369   8.048  14.088  0.00  0.00    +0.000 C 
BRANCH  20  21
ATOM     21  N   UNL     1      46.926   6.981  13.212  0.00  0.00    +0.000 N 
ATOM     22  C   UNL     1      45.966   7.183  12.257  0.00  0.00    +0.000 C 
ATOM     23  O   UNL     1      45.446   8.284  12.075  0.00  0.00    +0.000 OA
ATOM     24  H   UNL     1      47.202   6.031  13.443  0.00  0.00    +0.000 HD
BRANCH  22  25
ATOM     25  C   UNL     1      45.622   6.040  11.407  0.00  0.00    +0.000 A 
ATOM     26  C   UNL     1      45.973   6.070  10.063  0.00  0.00    +0.000 A 
ATOM     27  S   UNL     1      45.494   4.682   9.200  0.00  0.00    +0.000 S 
ATOM     28  C   UNL     1      44.763   4.009  10.582  0.00  0.00    +0.000 A 
ATOM     29  N   UNL     1      44.110   2.820  10.517  0.00  0.00    +0.000 NA
ATOM     30  C   UNL     1      43.567   2.445  11.628  0.00  0.00    +0.000 A 
ATOM     31  N   UNL     1      43.638   3.146  12.804  0.00  0.00    +0.000 N 
ATOM     32  C   UNL     1      44.363   4.308  12.935  0.00  0.00    +0.000 A 
ATOM     33  O   UNL     1      44.540   4.829  14.029  0.00  0.00    +0.000 OA
ATOM     34  C   UNL     1      44.928   4.809  11.697  0.00  0.00    +0.000 A 
ATOM     35  H   UNL     1      43.229   2.777  13.650  0.00  0.00    +0.000 HD
ENDBRANCH  22  25
ENDBRANCH  20  21
ENDBRANCH   4  20
TORSDOF 7
ENDMDL
