MODEL 1
REMARK VINA RESULT:    -8.239      0.000      0.000
REMARK INTER + INTRA:         -12.345
REMARK INTER:                 -11.611
REMARK INTRA:                  -0.734
REMARK UNBOUND:                -0.734
REMARK  Name = 
REMARK  7 active torsions:
REMARK  status: ('A' for Active; 'I' for Inactive)
REMARK    1  A    between atoms: C_2  and  C_3
REMARK    2  A    between atoms: C_7  and  N_8
REMARK    3  A    between atoms: N_8  and  C_9
REMARK    4  A    between atoms: C_9  and  C_10
REMARK    5  A    between atoms: C_13  and  C_14
REMARK    6  A    between atoms: C_14  and  N_15
REMARK    7  A    between atoms: C_16  and  C_18
REMARK                            x       y       z     vdW  Elec       q    Type
REMARK                         _______ _______ _______ _____ _____    ______ ____
ROOT
ATOM      1  C   UNL     1      44.620   4.337  12.792  0.00  0.00    +0.000 A 
ATOM      2  C   UNL     1      44.664   5.729  12.732  0.00  0.00    +0.000 A 
ATOM      3  C   UNL     1      45.827   6.386  13.130  0.00  0.00    +0.000 A 
ATOM      4  C   UNL     1      46.924   5.647  13.575  0.00  0.00    +0.000 A 
ATOM      5  C   UNL     1      46.803   4.263  13.568  0.00  0.00    +0.000 A 
ATOM      6  N   UNL     1      45.685   3.597  13.196  0.00  0.00    +0.000 NA
ENDROOT
BRANCH   1   7
ATOM      7  C   UNL     1      43.360   3.588  12.401  0.00  0.00    +0.000 C 
BRANCH   7   8
ATOM      8  N   UNL     1      43.619   2.603  11.371  0.00  0.00    +0.000 N 
ATOM      9  H   UNL     1      43.042   1.770  11.348  0.00  0.00    +0.000 HD
BRANCH   8  14
ATOM     10  C   UNL     1      45.613   2.087   8.487  0.00  0.00    +0.000 A 
ATOM     11  C   UNL     1      45.633   3.308   7.830  0.00  0.00    +0.000 A 
ATOM     12  C   UNL     1      44.898   4.349   8.379  0.00  0.00    +0.000 A 
ATOM     13  C   UNL     1      44.194   4.132   9.563  0.00  0.00    +0.000 A 
ATOM     14  C   UNL     1      44.224   2.880  10.173  0.00  0.00    +0.000 A 
ATOM     15  N   UNL     1      44.920   1.861   9.633  0.00  0.00    +0.000 NA
BRANCH  10  17
ATOM     16  N   UNL     1      47.006   0.089   7.587  0.00  0.00    +0.000 NA
ATOM     17  C   UNL     1      46.361   0.971   7.974  0.00  0.00    +0.000 C 
ENDBRANCH  10  17
ENDBRANCH   8  14
ENDBRANCH   7   8
ENDBRANCH   1   7
BRANCH   4  18
ATOM     18  C   UNL     1      48.192   6.313  14.012  0.00  0.00    +0.000 C 
BRANCH  18  19
ATOM     19  N   UNL     1      48.264   6.431  15.446  0.00  0.00    +0.000 N 
ATOM     20  C   UNL     1      49.446   6.603  16.117  0.00  0.00    +0.000 C 
ATOM     21  O   UNL     1      50.524   6.677  15.535  0.00  0.00    +0.000 OA
ATOM     22  H   UNL     1      47.429   6.185  15.967  0.00  0.00    +0.000 HD
BRANCH  20  23
ATOM     23  C   UNL     1      49.349   6.766  17.574  0.00  0.00    +0.000 A 
ATOM     24  C   UNL     1      49.577   8.014  18.139  0.00  0.00    +0.000 A 
ATOM     25  S   UNL     1      49.392   8.043  19.833  0.00  0.00    +0.000 S 
ATOM     26  C   UNL     1      49.040   6.379  19.878  0.00  0.00    +0.000 A 
ATOM     27  N   UNL     1      48.800   5.748  21.059  0.00  0.00    +0.000 NA
ATOM     28  C   UNL     1      48.583   4.481  20.952  0.00  0.00    +0.000 A 
ATOM     29  N   UNL     1      48.571   3.787  19.769  0.00  0.00    +0.000 N 
ATOM     30  C   UNL     1      48.743   4.395  18.548  0.00  0.00    +0.000 A 
ATOM     31  O   UNL     1      48.610   3.769  17.500  0.00  0.00    +0.000 OA
ATOM     32  C   UNL     1      49.038   5.815  18.616  0.00  0.00    +0.000 A 
ATOM     33  H   UNL     1      48.368   2.799  19.752  0.00  0.00    +0.000 HD
ENDBRANCH  20  23
ENDBRANCH  18  19
ENDBRANCH   4  18
TORSDOF 7
ENDMDL
MODEL 2
REMARK VINA RESULT:    -8.045      1.071      1.314
REMARK INTER + INTRA:         -12.072
REMARK INTER:                 -10.898
REMARK INTRA:                  -1.174
REMARK UNBOUND:                -0.734
REMARK  Name = 
REMARK  7 active torsions:
REMARK  status: ('A' for Active; 'I' for Inactive)
REMARK    1  A    between atoms: C_2  and  C_3
REMARK    2  A    between atoms: C_7  and  N_8
REMARK    3  A    between atoms: N_8  and  C_9
REMARK    4  A    between atoms: C_9  and  C_10
REMARK    5  A    between atoms: C_13  and  C_14
REMARK    6  A    between atoms: C_14  and  N_15
REMARK    7  A    between atoms: C_16  and  C_18
REMARK                            x       y       z     vdW  Elec       q    Type
REMARK                         _______ _______ _______ _____ _____    ______ ____
ROOT
ATOM      1  C   UNL     1      44.874   4.196  12.405  0.00  0.00    +0.000 A 
ATOM      2  C   UNL     1      46.130   3.853  12.904  0.00  0.00    +0.000 A 
ATOM      3  C   UNL     1      46.981   4.866  13.344  0.00  0.00    +0.000 A 
ATOM      4  C   UNL     1      46.566   6.197  13.282  0.00  0.00    +0.000 A 
ATOM      5  C   UNL     1      45.285   6.442  12.803  0.00  0.00    +0.000 A 
ATOM      6  N   UNL     1      44.440   5.482  12.361  0.00  0.00    +0.000 NA
ENDROOT
BRANCH   1   7
ATOM      7  C   UNL     1      43.933   3.126  11.884  0.00  0.00    +0.000 C 
BRANCH   7   8
ATOM      8  N   UNL     1      43.623   3.320  10.482  0.00  0.00    +0.000 N 
ATOM      9  H   UNL     1      42.780   3.830  10.243  0.00  0.00    +0.000 HD
BRANCH   8  14
ATOM     10  C   UNL     1      45.989   1.995   8.201  0.00  0.00    +0.000 A 
ATOM     11  C   UNL     1      46.544   3.095   7.566  0.00  0.00    +0.000 A 
ATOM     12  C   UNL     1      46.060   4.349   7.906  0.00  0.00    +0.000 A 
ATOM     13  C   UNL     1      45.060   4.452   8.873  0.00  0.00    +0.000 A 
ATOM     14  C   UNL     1      44.553   3.303   9.476  0.00  0.00    +0.000 A 
ATOM     15  N   UNL     1      45.007   2.082   9.135  0.00  0.00    +0.000 NA
BRANCH  10  17
ATOM     16  N   UNL     1      46.814  -0.395   7.608  0.00  0.00    +0.000 NA
ATOM     17  C   UNL     1      46.454   0.667   7.900  0.00  0.00    +0.000 C 
ENDBRANCH  10  17
ENDBRANCH   8  14
ENDBRANCH   7   8
ENDBRANCH   1   7
BRANCH   4  18
ATOM     18  C   UNL     1      47.450   7.315  13.743  0.00  0.00    +0.000 C 
BRANCH  18  19
ATOM     19  N   UNL     1      47.948   7.084  15.075  0.00  0.00    +0.000 N 
ATOM     20  C   UNL     1      49.284   6.966  15.356  0.00  0.00    +0.000 C 
ATOM     21  O   UNL     1      50.146   7.060  14.488  0.00  0.00    +0.000 OA
ATOM     22  H   UNL     1      47.267   6.813  15.777  0.00  0.00    +0.000 HD
BRANCH  20  23
ATOM     23  C   UNL     1      49.638   6.791  16.771  0.00  0.00    +0.000 A 
ATOM     24  C   UNL     1      50.619   7.596  17.335  0.00  0.00    +0.000 A 
ATOM     25  S   UNL     1      50.886   7.291  18.991  0.00  0.00    +0.000 S 
ATOM     26  C   UNL     1      49.729   6.044  19.005  0.00  0.00    +0.000 A 
ATOM     27  N   UNL     1      49.479   5.336  20.139  0.00  0.00    +0.000 NA
ATOM     28  C   UNL     1      48.606   4.396  20.000  0.00  0.00    +0.000 A 
ATOM     29  N   UNL     1      47.947   4.108  18.832  0.00  0.00    +0.000 N 
ATOM     30  C   UNL     1      48.119   4.840  17.681  0.00  0.00    +0.000 A 
ATOM     31  O   UNL     1      47.430   4.634  16.686  0.00  0.00    +0.000 OA
ATOM     32  C   UNL     1      49.128   5.880  17.770  0.00  0.00    +0.000 A 
ATOM     33  H   UNL     1      47.255   3.376  18.797  0.00  0.00    +0.000 HD
ENDBRANCH  20  23
ENDBRANCH  18  19
ENDBRANCH   4  18
TORSDOF 7
ENDMDL
MODEL 3
REMARK VINA RESULT:    -7.947      1.707      2.308
REMARK INTER + INTRA:         -11.934
REMARK INTER:                 -11.102
REMARK INTRA:                  -0.832
REMARK UNBOUND:                -0.734
REMARK  Name = 
REMARK  7 active torsions:
REMARK  status: ('A' for Active; 'I' for Inactive)
REMARK    1  A    between atoms: C_2  and  C_3
REMARK    2  A    between atoms: C_7  and  N_8
REMARK    3  A    between atoms: N_8  and  C_9
REMARK    4  A    between atoms: C_9  and  C_10
REMARK    5  A    between atoms: C_13  and  C_14
REMARK    6  A    between atoms: C_14  and  N_15
REMARK    7  A    between atoms: C_16  and  C_18
REMARK                            x       y       z     vdW  Elec       q    Type
REMARK                         _______ _______ _______ _____ _____    ______ ____
ROOT
ATOM      1  C   UNL     1      44.793   5.375  11.524  0.00  0.00    +0.000 A 
ATOM      2  C   UNL     1      45.154   4.753  12.719  0.00  0.00    +0.000 A 
ATOM      3  C   UNL     1      46.179   5.306  13.485  0.00  0.00    +0.000 A 
ATOM      4  C   UNL     1      46.822   6.466  13.050  0.00  0.00    +0.000 A 
ATOM      5  C   UNL     1      46.372   7.036  11.865  0.00  0.00    +0.000 A 
ATOM      6  N   UNL     1      45.385   6.519  11.096  0.00  0.00    +0.000 NA
ENDROOT
BRANCH   1   7
ATOM      7  C   UNL     1      43.705   4.783  10.646  0.00  0.00    +0.000 C 
BRANCH   7   8
ATOM      8  N   UNL     1      44.083   3.485  10.126  0.00  0.00    +0.000 N 
ATOM      9  H   UNL     1      43.435   2.714  10.242  0.00  0.00    +0.000 HD
BRANCH   8  14
ATOM     10  C   UNL     1      46.266   1.750   7.938  0.00  0.00    +0.000 A 
ATOM     11  C   UNL     1      46.895   2.733   7.190  0.00  0.00    +0.000 A 
ATOM     12  C   UNL     1      46.529   4.052   7.418  0.00  0.00    +0.000 A 
ATOM     13  C   UNL     1      45.568   4.331   8.389  0.00  0.00    +0.000 A 
ATOM     14  C   UNL     1      44.982   3.293   9.109  0.00  0.00    +0.000 A 
ATOM     15  N   UNL     1      45.320   2.010   8.877  0.00  0.00    +0.000 NA
BRANCH  10  17
ATOM     16  N   UNL     1      46.834  -0.760   7.596  0.00  0.00    +0.000 NA
ATOM     17  C   UNL     1      46.608   0.365   7.756  0.00  0.00    +0.000 C 
ENDBRANCH  10  17
ENDBRANCH   8  14
ENDBRANCH   7   8
ENDBRANCH   1   7
BRANCH   4  18
ATOM     18  C   UNL     1      47.928   7.092  13.841  0.00  0.00    +0.000 C 
BRANCH  18  19
ATOM     19  N   UNL     1      47.902   6.671  15.218  0.00  0.00    +0.000 N 
ATOM     20  C   UNL     1      49.040   6.428  15.941  0.00  0.00    +0.000 C 
ATOM     21  O   UNL     1      50.162   6.565  15.462  0.00  0.00    +0.000 OA
ATOM     22  H   UNL     1      47.006   6.366  15.585  0.00  0.00    +0.000 HD
BRANCH  20  23
ATOM     23  C   UNL     1      48.849   6.062  17.351  0.00  0.00    +0.000 A 
ATOM     24  C   UNL     1      49.161   4.776  17.772  0.00  0.00    +0.000 A 
ATOM     25  S   UNL     1      48.918   4.523  19.440  0.00  0.00    +0.000 S 
ATOM     26  C   UNL     1      48.347   6.112  19.654  0.00  0.00    +0.000 A 
ATOM     27  N   UNL     1      47.937   6.548  20.875  0.00  0.00    +0.000 NA
ATOM     28  C   UNL     1      47.495   7.760  20.888  0.00  0.00    +0.000 A 
ATOM     29  N   UNL     1      47.438   8.582  19.792  0.00  0.00    +0.000 N 
ATOM     30  C   UNL     1      47.903   8.207  18.554  0.00  0.00    +0.000 A 
ATOM     31  O   UNL     1      47.948   9.003  17.621  0.00  0.00    +0.000 OA
ATOM     32  C   UNL     1      48.368   6.833  18.474  0.00  0.00    +0.000 A 
ATOM     33  H   UNL     1      47.105   9.531  19.875  0.00  0.00    +0.000 HD
ENDBRANCH  20  23
ENDBRANCH  18  19
ENDBRANCH   4  18
TORSDOF 7
ENDMDL
MODEL 4
REMARK VINA RESULT:    -7.554      3.375      8.794
REMARK INTER + INTRA:         -11.379
REMARK INTER:                  -9.995
REMARK INTRA:                  -1.384
REMARK UNBOUND:                -0.734
REMARK  Name = 
REMARK  7 active torsions:
REMARK  status: ('A' for Active; 'I' for Inactive)
REMARK    1  A    between atoms: C_2  and  C_3
REMARK    2  A    between atoms: C_7  and  N_8
REMARK    3  A    between atoms: N_8  and  C_9
REMARK    4  A    between atoms: C_9  and  C_10
REMARK    5  A    between atoms: C_13  and  C_14
REMARK    6  A    between atoms: C_14  and  N_15
REMARK    7  A    between atoms: C_16  and  C_18
REMARK                            x       y       z     vdW  Elec       q    Type
REMARK                         _______ _______ _______ _____ _____    ______ ____
ROOT
ATOM      1  C   UNL     1      49.631   8.256  15.563  0.00  0.00    +0.000 A 
ATOM      2  C   UNL     1      48.362   8.804  15.382  0.00  0.00    +0.000 A 
ATOM      3  C   UNL     1      47.747   8.687  14.136  0.00  0.00    +0.000 A 
ATOM      4  C   UNL     1      48.405   8.027  13.097  0.00  0.00    +0.000 A 
ATOM      5  C   UNL     1      49.652   7.482  13.379  0.00  0.00    +0.000 A 
ATOM      6  N   UNL     1      50.277   7.585  14.575  0.00  0.00    +0.000 NA
ENDROOT
BRANCH   1   7
ATOM      7  C   UNL     1      50.346   8.393  16.894  0.00  0.00    +0.000 C 
BRANCH   7   8
ATOM      8  N   UNL     1      50.558   7.105  17.524  0.00  0.00    +0.000 N 
ATOM      9  H   UNL     1      51.346   7.003  18.153  0.00  0.00    +0.000 HD
BRANCH   8  14
ATOM     10  C   UNL     1      48.843   4.013  17.288  0.00  0.00    +0.000 A 
ATOM     11  C   UNL     1      47.625   4.219  17.918  0.00  0.00    +0.000 A 
ATOM     12  C   UNL     1      47.393   5.463  18.485  0.00  0.00    +0.000 A 
ATOM     13  C   UNL     1      48.374   6.449  18.383  0.00  0.00    +0.000 A 
ATOM     14  C   UNL     1      49.573   6.175  17.729  0.00  0.00    +0.000 A 
ATOM     15  N   UNL     1      49.810   4.962  17.194  0.00  0.00    +0.000 NA
BRANCH  10  17
ATOM     16  N   UNL     1      49.416   1.753  16.147  0.00  0.00    +0.000 NA
ATOM     17  C   UNL     1      49.141   2.748  16.672  0.00  0.00    +0.000 C 
ENDBRANCH  10  17
ENDBRANCH   8  14
ENDBRANCH   7   8
ENDBRANCH   1   7
BRANCH   4  18
ATOM     18  C   UNL     1      47.782   7.880  11.743  0.00  0.00    +0.000 C 
BRANCH  18  19
ATOM     19  N   UNL     1      47.007   6.670  11.643  0.00  0.00    +0.000 N 
ATOM     20  C   UNL     1      45.643   6.651  11.762  0.00  0.00    +0.000 C 
ATOM     21  O   UNL     1      44.988   7.672  11.954  0.00  0.00    +0.000 OA
ATOM     22  H   UNL     1      47.520   5.795  11.677  0.00  0.00    +0.000 HD
BRANCH  20  23
ATOM     23  C   UNL     1      44.991   5.348  11.578  0.00  0.00    +0.000 A 
ATOM     24  C   UNL     1      44.258   4.796  12.620  0.00  0.00    +0.000 A 
ATOM     25  S   UNL     1      43.538   3.299  12.234  0.00  0.00    +0.000 S 
ATOM     26  C   UNL     1      44.212   3.315  10.672  0.00  0.00    +0.000 A 
ATOM     27  N   UNL     1      44.000   2.285   9.809  0.00  0.00    +0.000 NA
ATOM     28  C   UNL     1      44.599   2.409   8.673  0.00  0.00    +0.000 A 
ATOM     29  N   UNL     1      45.382   3.477   8.315  0.00  0.00    +0.000 N 
ATOM     30  C   UNL     1      45.570   4.569   9.128  0.00  0.00    +0.000 A 
ATOM     31  O   UNL     1      46.178   5.560   8.735  0.00  0.00    +0.000 OA
ATOM     32  C   UNL     1      44.955   4.459  10.439  0.00  0.00    +0.000 A 
ATOM     33  H   UNL     1      45.801   3.524   7.399  0.00  0.00    +0.000 HD
ENDBRANCH  20  23
ENDBRANCH  18  19
ENDBRANCH   4  18
TORSDOF 7
ENDMDL
MODEL 5
REMARK VINA RESULT:    -7.484      2.014      2.368
REMARK INTER + INTRA:         -11.282
REMARK INTER:                 -10.442
REMARK INTRA:                  -0.839
REMARK UNBOUND:                -0.734
REMARK  Name = 
REMARK  7 active torsions:
REMARK  status: ('A' for Active; 'I' for Inactive)
REMARK    1  A    between atoms: C_2  and  C_3
REMARK    2  A    between atoms: C_7  and  N_8
REMARK    3  A    between atoms: N_8  and  C_9
REMARK    4  A    between atoms: C_9  and  C_10
REMARK    5  A    between atoms: C_13  and  C_14
REMARK    6  A    between atoms: C_14  and  N_15
REMARK    7  A    between atoms: C_16  and  C_18
REMARK                            x       y       z     vdW  Elec       q    Type
REMARK                         _______ _______ _______ _____ _____    ______ ____
ROOT
ATOM      1  C   UNL     1      45.331   6.441  11.206  0.00  0.00    +0.000 A 
ATOM      2  C   UNL     1      46.716   6.283  11.147  0.00  0.00    +0.000 A 
ATOM      3  C   UNL     1      47.519   7.042  11.997  0.00  0.00    +0.000 A 
ATOM      4  C   UNL     1      46.931   7.940  12.888  0.00  0.00    +0.000 A 
ATOM      5  C   UNL     1      45.543   8.006  12.902  0.00  0.00    +0.000 A 
ATOM      6  N   UNL     1      44.737   7.289  12.085  0.00  0.00    +0.000 NA
ENDROOT
BRANCH   1   7
ATOM      7  C   UNL     1      44.426   5.658  10.273  0.00  0.00    +0.000 C 
BRANCH   7   8
ATOM      8  N   UNL     1      45.148   5.155   9.122  0.00  0.00    +0.000 N 
ATOM      9  H   UNL     1      45.817   5.768   8.670  0.00  0.00    +0.000 HD
BRANCH   8  14
ATOM     10  C   UNL     1      46.566   2.274   7.622  0.00  0.00    +0.000 A 
ATOM     11  C   UNL     1      45.851   1.203   8.134  0.00  0.00    +0.000 A 
ATOM     12  C   UNL     1      44.860   1.474   9.067  0.00  0.00    +0.000 A 
ATOM     13  C   UNL     1      44.616   2.798   9.432  0.00  0.00    +0.000 A 
ATOM     14  C   UNL     1      45.369   3.826   8.871  0.00  0.00    +0.000 A 
ATOM     15  N   UNL     1      46.345   3.566   7.980  0.00  0.00    +0.000 NA
BRANCH  10  17
ATOM     16  N   UNL     1      48.395   1.877   5.823  0.00  0.00    +0.000 NA
ATOM     17  C   UNL     1      47.599   2.060   6.645  0.00  0.00    +0.000 C 
ENDBRANCH  10  17
ENDBRANCH   8  14
ENDBRANCH   7   8
ENDBRANCH   1   7
BRANCH   4  18
ATOM     18  C   UNL     1      47.757   8.776  13.818  0.00  0.00    +0.000 C 
BRANCH  18  19
ATOM     19  N   UNL     1      47.927   8.137  15.098  0.00  0.00    +0.000 N 
ATOM     20  C   UNL     1      48.943   7.255  15.356  0.00  0.00    +0.000 C 
ATOM     21  O   UNL     1      49.783   6.959  14.512  0.00  0.00    +0.000 OA
ATOM     22  H   UNL     1      47.153   8.207  15.750  0.00  0.00    +0.000 HD
BRANCH  20  23
ATOM     23  C   UNL     1      49.017   6.732  16.727  0.00  0.00    +0.000 A 
ATOM     24  C   UNL     1      49.469   7.556  17.750  0.00  0.00    +0.000 A 
ATOM     25  S   UNL     1      49.462   6.811  19.283  0.00  0.00    +0.000 S 
ATOM     26  C   UNL     1      48.893   5.346  18.630  0.00  0.00    +0.000 A 
ATOM     27  N   UNL     1      48.690   4.261  19.424  0.00  0.00    +0.000 NA
ATOM     28  C   UNL     1      48.293   3.207  18.794  0.00  0.00    +0.000 A 
ATOM     29  N   UNL     1      48.066   3.142  17.443  0.00  0.00    +0.000 N 
ATOM     30  C   UNL     1      48.195   4.231  16.614  0.00  0.00    +0.000 A 
ATOM     31  O   UNL     1      47.872   4.174  15.431  0.00  0.00    +0.000 OA
ATOM     32  C   UNL     1      48.686   5.433  17.265  0.00  0.00    +0.000 A 
ATOM     33  H   UNL     1      47.730   2.293  17.016  0.00  0.00    +0.000 HD
ENDBRANCH  20  23
ENDBRANCH  18  19
ENDBRANCH   4  18
TORSDOF 7
ENDMDL
MODEL 6
REMARK VINA RESULT:    -7.369      5.103      9.633
REMARK INTER + INTRA:         -11.119
REMARK INTER:                 -10.347
REMARK INTRA:                  -0.772
REMARK UNBOUND:                -0.734
REMARK  Name = 
REMARK  7 active torsions:
REMARK  status: ('A' for Active; 'I' for Inactive)
REMARK    1  A    between atoms: C_2  and  C_3
REMARK    2  A    between atoms: C_7  and  N_8
REMARK    3  A    between atoms: N_8  and  C_9
REMARK    4  A    between atoms: C_9  and  C_10
REMARK    5  A    between atoms: C_13  and  C_14
REMARK    6  A    between atoms: C_14  and  N_15
REMARK    7  A    between atoms: C_16  and  C_18
REMARK                            x       y       z     vdW  Elec       q    Type
REMARK                         _______ _______ _______ _____ _____    ______ ____
ROOT
ATOM      1  C   UNL     1      51.330   2.947  17.601  0.00  0.00    +0.000 A 
ATOM      2  C   UNL     1      50.724   4.136  18.004  0.00  0.00    +0.000 A 
ATOM      3  C   UNL     1      49.355   4.300  17.798  0.00  0.00    +0.000 A 
ATOM      4  C   UNL     1      48.616   3.279  17.199  0.00  0.00    +0.000 A 
ATOM      5  C   UNL     1      49.297   2.116  16.861  0.00  0.00    +0.000 A 
ATOM      6  N   UNL     1      50.625   1.930  17.042  0.00  0.00    +0.000 NA
ENDROOT
BRANCH   1   7
ATOM      7  C   UNL     1      52.824   2.745  17.776  0.00  0.00    +0.000 C 
BRANCH   7   8
ATOM      8  N   UNL     1      53.116   1.573  18.576  0.00  0.00    +0.000 N 
ATOM      9  H   UNL     1      52.568   1.415  19.414  0.00  0.00    +0.000 HD
BRANCH   8  14
ATOM     10  C   UNL     1      54.388  -1.735  18.565  0.00  0.00    +0.000 A 
ATOM     11  C   UNL     1      55.007  -1.887  17.334  0.00  0.00    +0.000 A 
ATOM     12  C   UNL     1      54.955  -0.820  16.448  0.00  0.00    +0.000 A 
ATOM     13  C   UNL     1      54.306   0.352  16.836  0.00  0.00    +0.000 A 
ATOM     14  C   UNL     1      53.712   0.437  18.092  0.00  0.00    +0.000 A 
ATOM     15  N   UNL     1      53.742  -0.603  18.947  0.00  0.00    +0.000 NA
BRANCH  10  17
ATOM     16  N   UNL     1      54.473  -3.634  20.333  0.00  0.00    +0.000 NA
ATOM     17  C   UNL     1      54.414  -2.800  19.530  0.00  0.00    +0.000 C 
ENDBRANCH  10  17
ENDBRANCH   8  14
ENDBRANCH   7   8
ENDBRANCH   1   7
BRANCH   4  18
ATOM     18  C   UNL     1      47.144   3.415  16.958  0.00  0.00    +0.000 C 
BRANCH  18  19
ATOM     19  N   UNL     1      46.861   4.381  15.928  0.00  0.00    +0.000 N 
ATOM     20  C   UNL     1      46.959   4.090  14.592  0.00  0.00    +0.000 C 
ATOM     21  O   UNL     1      47.286   2.979  14.187  0.00  0.00    +0.000 OA
ATOM     22  H   UNL     1      46.776   5.349  16.220  0.00  0.00    +0.000 HD
BRANCH  20  23
ATOM     23  C   UNL     1      46.580   5.163  13.663  0.00  0.00    +0.000 A 
ATOM     24  C   UNL     1      47.480   6.187  13.398  0.00  0.00    +0.000 A 
ATOM     25  S   UNL     1      46.902   7.333  12.274  0.00  0.00    +0.000 S 
ATOM     26  C   UNL     1      45.412   6.524  12.133  0.00  0.00    +0.000 A 
ATOM     27  N   UNL     1      44.429   7.007  11.326  0.00  0.00    +0.000 NA
ATOM     28  C   UNL     1      43.339   6.317  11.341  0.00  0.00    +0.000 A 
ATOM     29  N   UNL     1      43.146   5.177  12.078  0.00  0.00    +0.000 N 
ATOM     30  C   UNL     1      44.132   4.616  12.855  0.00  0.00    +0.000 A 
ATOM     31  O   UNL     1      43.969   3.534  13.410  0.00  0.00    +0.000 OA
ATOM     32  C   UNL     1      45.366   5.381  12.911  0.00  0.00    +0.000 A 
ATOM     33  H   UNL     1      42.277   4.668  12.024  0.00  0.00    +0.000 HD
ENDBRANCH  20  23
ENDBRANCH  18  19
ENDBRANCH   4  18
TORSDOF 7
ENDMDL
MODEL 7
REMARK VINA RESULT:    -7.122      3.484      8.402
REMARK INTER + INTRA:         -10.771
REMARK INTER:                  -9.812
REMARK INTRA:                  -0.959
REMARK UNBOUND:                -0.734
REMARK  Name = 
REMARK  7 active torsions:
REMARK  status: ('A' for Active; 'I' for Inactive)
REMARK    1  A    between atoms: C_2  and  C_3
REMARK    2  A    between atoms: C_7  and  N_8
REMARK    3  A    between atoms: N_8  and  C_9
REMARK    4  A    between atoms: C_9  and  C_10
REMARK    5  A    between atoms: C_13  and  C_14
REMARK    6  A    between atoms: C_14  and  N_15
REMARK    7  A    between atoms: C_16  and  C_18
REMARK                            x       y       z     vdW  Elec       q    Type
REMARK                         _______ _______ _______ _____ _____    ______ ____
ROOT
ATOM      1  C   UNL     1      49.643   7.622  15.910  0.00  0.00    +0.000 A 
ATOM      2  C   UNL     1      49.194   8.916  15.648  0.00  0.00    +0.000 A 
ATOM      3  C   UNL     1      48.580   9.183  14.425  0.00  0.00    +0.000 A 
ATOM      4  C   UNL     1      48.422   8.159  13.490  0.00  0.00    +0.000 A 
ATOM      5  C   UNL     1      48.868   6.893  13.851  0.00  0.00    +0.000 A 
ATOM      6  N   UNL     1      49.474   6.605  15.026  0.00  0.00    +0.000 NA
ENDROOT
BRANCH   1   7
ATOM      7  C   UNL     1      50.347   7.301  17.215  0.00  0.00    +0.000 C 
BRANCH   7   8
ATOM      8  N   UNL     1      49.478   6.593  18.134  0.00  0.00    +0.000 N 
ATOM      9  H   UNL     1      48.953   7.135  18.810  0.00  0.00    +0.000 HD
BRANCH   8  14
ATOM     10  C   UNL     1      49.383   3.125  17.410  0.00  0.00    +0.000 A 
ATOM     11  C   UNL     1      48.041   2.820  17.247  0.00  0.00    +0.000 A 
ATOM     12  C   UNL     1      47.119   3.841  17.429  0.00  0.00    +0.000 A 
ATOM     13  C   UNL     1      47.577   5.119  17.748  0.00  0.00    +0.000 A 
ATOM     14  C   UNL     1      48.942   5.356  17.890  0.00  0.00    +0.000 A 
ATOM     15  N   UNL     1      49.839   4.363  17.733  0.00  0.00    +0.000 NA
BRANCH  10  17
ATOM     16  N   UNL     1      51.190   1.282  17.124  0.00  0.00    +0.000 NA
ATOM     17  C   UNL     1      50.389   2.114  17.225  0.00  0.00    +0.000 C 
ENDBRANCH  10  17
ENDBRANCH   8  14
ENDBRANCH   7   8
ENDBRANCH   1   7
BRANCH   4  18
ATOM     18  C   UNL     1      47.769   8.403  12.164  0.00  0.00    +0.000 C 
BRANCH  18  19
ATOM     19  N   UNL     1      47.181   7.200  11.632  0.00  0.00    +0.000 N 
ATOM     20  C   UNL     1      45.842   7.086  11.365  0.00  0.00    +0.000 C 
ATOM     21  O   UNL     1      45.056   8.009  11.552  0.00  0.00    +0.000 OA
ATOM     22  H   UNL     1      47.757   6.365  11.645  0.00  0.00    +0.000 HD
BRANCH  20  23
ATOM     23  C   UNL     1      45.404   5.816  10.770  0.00  0.00    +0.000 A 
ATOM     24  C   UNL     1      45.679   5.556   9.434  0.00  0.00    +0.000 A 
ATOM     25  S   UNL     1      45.135   4.027   8.908  0.00  0.00    +0.000 S 
ATOM     26  C   UNL     1      44.476   3.675  10.436  0.00  0.00    +0.000 A 
ATOM     27  N   UNL     1      43.826   2.501  10.662  0.00  0.00    +0.000 NA
ATOM     28  C   UNL     1      43.344   2.379  11.853  0.00  0.00    +0.000 A 
ATOM     29  N   UNL     1      43.464   3.319  12.844  0.00  0.00    +0.000 N 
ATOM     30  C   UNL     1      44.167   4.489  12.681  0.00  0.00    +0.000 A 
ATOM     31  O   UNL     1      44.357   5.256  13.620  0.00  0.00    +0.000 OA
ATOM     32  C   UNL     1      44.690   4.698  11.342  0.00  0.00    +0.000 A 
ATOM     33  H   UNL     1      43.085   3.150  13.764  0.00  0.00    +0.000 HD
ENDBRANCH  20  23
ENDBRANCH  18  19
ENDBRANCH   4  18
TORSDOF 7
ENDMDL
MODEL 8
REMARK VINA RESULT:    -6.943      2.217      3.301
REMARK INTER + INTRA:         -10.519
REMARK INTER:                  -9.199
REMARK INTRA:                  -1.320
REMARK UNBOUND:                -0.734
REMARK  Name = 
REMARK  7 active torsions:
REMARK  status: ('A' for Active; 'I' for Inactive)
REMARK    1  A    between atoms: C_2  and  C_3
REMARK    2  A    between atoms: C_7  and  N_8
REMARK    3  A    between atoms: N_8  and  C_9
REMARK    4  A    between atoms: C_9  and  C_10
REMARK    5  A    between atoms: C_13  and  C_14
REMARK    6  A    between atoms: C_14  and  N_15
REMARK    7  A    between atoms: C_16  and  C_18
REMARK                            x       y       z     vdW  Elec       q    Type
REMARK                         _______ _______ _______ _____ _____    ______ ____
ROOT
ATOM      1  C   UNL     1      45.568   7.905  11.759  0.00  0.00    +0.000 A 
ATOM      2  C   UNL     1      46.588   7.034  11.375  0.00  0.00    +0.000 A 
ATOM      3  C   UNL     1      47.809   7.087  12.044  0.00  0.00    +0.000 A 
ATOM      4  C   UNL     1      47.992   8.001  13.083  0.00  0.00    +0.000 A 
ATOM      5  C   UNL     1      46.910   8.804  13.421  0.00  0.00    +0.000 A 
ATOM      6  N   UNL     1      45.715   8.782  12.785  0.00  0.00    +0.000 NA
ENDROOT
BRANCH   1   7
ATOM      7  C   UNL     1      44.237   7.901  11.031  0.00  0.00    +0.000 C 
BRANCH   7   8
ATOM      8  N   UNL     1      43.285   7.006  11.658  0.00  0.00    +0.000 N 
ATOM      9  H   UNL     1      42.310   7.280  11.678  0.00  0.00    +0.000 HD
BRANCH   8  14
ATOM     10  C   UNL     1      44.011   3.661  10.739  0.00  0.00    +0.000 A 
ATOM     11  C   UNL     1      43.767   2.906  11.876  0.00  0.00    +0.000 A 
ATOM     12  C   UNL     1      43.370   3.576  13.024  0.00  0.00    +0.000 A 
ATOM     13  C   UNL     1      43.219   4.962  12.983  0.00  0.00    +0.000 A 
ATOM     14  C   UNL     1      43.475   5.656  11.803  0.00  0.00    +0.000 A 
ATOM     15  N   UNL     1      43.879   5.012  10.691  0.00  0.00    +0.000 NA
BRANCH  10  17
ATOM     16  N   UNL     1      44.714   2.549   8.501  0.00  0.00    +0.000 NA
ATOM     17  C   UNL     1      44.415   3.025   9.514  0.00  0.00    +0.000 C 
ENDBRANCH  10  17
ENDBRANCH   8  14
ENDBRANCH   7   8
ENDBRANCH   1   7
BRANCH   4  18
ATOM     18  C   UNL     1      49.288   8.091  13.828  0.00  0.00    +0.000 C 
BRANCH  18  19
ATOM     19  N   UNL     1      49.339   7.156  14.923  0.00  0.00    +0.000 N 
ATOM     20  C   UNL     1      49.046   7.510  16.214  0.00  0.00    +0.000 C 
ATOM     21  O   UNL     1      48.712   8.651  16.520  0.00  0.00    +0.000 OA
ATOM     22  H   UNL     1      49.790   6.266  14.743  0.00  0.00    +0.000 HD
BRANCH  20  23
ATOM     23  C   UNL     1      49.085   6.431  17.209  0.00  0.00    +0.000 A 
ATOM     24  C   UNL     1      49.809   6.607  18.381  0.00  0.00    +0.000 A 
ATOM     25  S   UNL     1      49.724   5.277  19.445  0.00  0.00    +0.000 S 
ATOM     26  C   UNL     1      48.750   4.401  18.360  0.00  0.00    +0.000 A 
ATOM     27  N   UNL     1      48.334   3.140  18.657  0.00  0.00    +0.000 NA
ATOM     28  C   UNL     1      47.633   2.578  17.731  0.00  0.00    +0.000 A 
ATOM     29  N   UNL     1      47.298   3.166  16.538  0.00  0.00    +0.000 N 
ATOM     30  C   UNL     1      47.641   4.460  16.224  0.00  0.00    +0.000 A 
ATOM     31  O   UNL     1      47.227   4.999  15.201  0.00  0.00    +0.000 OA
ATOM     32  C   UNL     1      48.472   5.123  17.213  0.00  0.00    +0.000 A 
ATOM     33  H   UNL     1      46.724   2.680  15.866  0.00  0.00    +0.000 HD
ENDBRANCH  20  23
ENDBRANCH  18  19
ENDBRANCH   4  18
TORSDOF 7
ENDMDL
MODEL 9
REMARK VINA RESULT:    -6.755      3.755      4.914
REMARK INTER + INTRA:         -10.253
REMARK INTER:                  -9.261
REMARK INTRA:                  -0.992
REMARK UNBOUND:                -0.734
REMARK  Name = 
REMARK  7 active torsions:
REMARK  status: ('A' for Active; 'I' for Inactive)
REMARK    1  A    between atoms: C_2  and  C_3
REMARK    2  A    between atoms: C_7  and  N_8
REMARK    3  A    between atoms: N_8  and  C_9
REMARK    4  A    between atoms: C_9  and  C_10
REMARK    5  A    between atoms: C_13  and  C_14
REMARK    6  A    between atoms: C_14  and  N_15
REMARK    7  A    between atoms: C_16  and  C_18
REMARK                            x       y       z     vdW  Elec       q    Type
REMARK                         _______ _______ _______ _____ _____    ______ ____
ROOT
ATOM      1  C   UNL     1      47.542   4.081  15.299  0.00  0.00    +0.000 A 
ATOM      2  C   UNL     1      48.001   5.361  15.610  0.00  0.00    +0.000 A 
ATOM      3  C   UNL     1      48.607   5.579  16.846  0.00  0.00    +0.000 A 
ATOM      4  C   UNL     1      48.748   4.522  17.746  0.00  0.00    +0.000 A 
ATOM      5  C   UNL     1      48.294   3.274  17.337  0.00  0.00    +0.000 A 
ATOM      6  N   UNL     1      47.695   3.033  16.148  0.00  0.00    +0.000 NA
ENDROOT
BRANCH   1   7
ATOM      7  C   UNL     1      46.845   3.813  13.978  0.00  0.00    +0.000 C 
BRANCH   7   8
ATOM      8  N   UNL     1      45.548   4.455  13.915  0.00  0.00    +0.000 N 
ATOM      9  H   UNL     1      45.337   5.177  14.595  0.00  0.00    +0.000 HD
BRANCH   8  14
ATOM     10  C   UNL     1      44.421   3.709  10.639  0.00  0.00    +0.000 A 
ATOM     11  C   UNL     1      43.418   4.630  10.377  0.00  0.00    +0.000 A 
ATOM     12  C   UNL     1      43.085   5.526  11.381  0.00  0.00    +0.000 A 
ATOM     13  C   UNL     1      43.775   5.476  12.592  0.00  0.00    +0.000 A 
ATOM     14  C   UNL     1      44.777   4.528  12.785  0.00  0.00    +0.000 A 
ATOM     15  N   UNL     1      45.090   3.643  11.819  0.00  0.00    +0.000 NA
BRANCH  10  17
ATOM     16  N   UNL     1      45.181   2.024   8.816  0.00  0.00    +0.000 NA
ATOM     17  C   UNL     1      44.819   2.759   9.636  0.00  0.00    +0.000 C 
ENDBRANCH  10  17
ENDBRANCH   8  14
ENDBRANCH   7   8
ENDBRANCH   1   7
BRANCH   4  18
ATOM     18  C   UNL     1      49.393   4.712  19.085  0.00  0.00    +0.000 C 
BRANCH  18  19
ATOM     19  N   UNL     1      50.606   3.945  19.204  0.00  0.00    +0.000 N 
ATOM     20  C   UNL     1      51.806   4.374  18.702  0.00  0.00    +0.000 C 
ATOM     21  O   UNL     1      51.927   5.449  18.122  0.00  0.00    +0.000 OA
ATOM     22  H   UNL     1      50.509   2.980  19.502  0.00  0.00    +0.000 HD
BRANCH  20  23
ATOM     23  C   UNL     1      52.964   3.507  18.955  0.00  0.00    +0.000 A 
ATOM     24  C   UNL     1      54.018   3.981  19.726  0.00  0.00    +0.000 A 
ATOM     25  S   UNL     1      55.266   2.842  19.955  0.00  0.00    +0.000 S 
ATOM     26  C   UNL     1      54.462   1.687  18.999  0.00  0.00    +0.000 A 
ATOM     27  N   UNL     1      55.017   0.467  18.765  0.00  0.00    +0.000 NA
ATOM     28  C   UNL     1      54.318  -0.297  17.994  0.00  0.00    +0.000 A 
ATOM     29  N   UNL     1      53.108   0.042  17.446  0.00  0.00    +0.000 N 
ATOM     30  C   UNL     1      52.480   1.236  17.708  0.00  0.00    +0.000 A 
ATOM     31  O   UNL     1      51.346   1.464  17.299  0.00  0.00    +0.000 OA
ATOM     32  C   UNL     1      53.247   2.154  18.533  0.00  0.00    +0.000 A 
ATOM     33  H   UNL     1      52.600  -0.613  16.872  0.00  0.00    +0.000 HD
ENDBRANCH  20  23
ENDBRANCH  18  19
ENDBRANCH   4  18
TORSDOF 7
ENDMDL
