MODEL 1
REMARK VINA RESULT:    -8.928      0.000      0.000
REMARK INTER + INTRA:         -12.672
REMARK INTER:                 -11.538
REMARK INTRA:                  -1.134
REMARK UNBOUND:                -1.134
REMARK  Name = 
REMARK  5 active torsions:
REMARK  status: ('A' for Active; 'I' for Inactive)
REMARK    1  A    between atoms: C_2  and  C_5
REMARK    2  A    between atoms: C_7  and  C_8
REMARK    3  A    between atoms: N_13  and  C_14
REMARK    4  A    between atoms: C_14  and  C_15
REMARK    5  A    between atoms: C_24  and  C_25
REMARK                            x       y       z     vdW  Elec       q    Type
REMARK                         _______ _______ _______ _____ _____    ______ ____
ROOT
ATOM      1  C   UNL     1      46.141   5.837  12.620  0.00  0.00    +0.000 A 
ATOM      2  C   UNL     1      46.992   5.286  13.560  0.00  0.00    +0.000 A 
ATOM      3  C   UNL     1      46.896   3.933  13.745  0.00  0.00    +0.000 A 
ATOM      4  N   UNL     1      46.025   3.163  13.078  0.00  0.00    +0.000 NA
ATOM      5  C   UNL     1      45.281   3.756  12.139  0.00  0.00    +0.000 A 
ATOM      6  N   UNL     1      44.482   2.907  11.404  0.00  0.00    +0.000 N 
ATOM      7  N   UNL     1      45.297   5.074  11.891  0.00  0.00    +0.000 NA
ATOM      8  H   UNL     1      43.806   2.484  12.033  0.00  0.00    +0.000 HD
ENDROOT
BRANCH   1  11
ATOM      9  C   UNL     1      44.858   9.269  11.567  0.00  0.00    +0.000 A 
ATOM     10  C   UNL     1      44.906   7.903  11.890  0.00  0.00    +0.000 A 
ATOM     11  C   UNL     1      46.067   7.298  12.400  0.00  0.00    +0.000 A 
ATOM     12  C   UNL     1      47.185   8.122  12.629  0.00  0.00    +0.000 A 
ATOM     13  C   UNL     1      47.170   9.493  12.314  0.00  0.00    +0.000 A 
ATOM     14  C   UNL     1      45.997  10.056  11.785  0.00  0.00    +0.000 A 
BRANCH   9  16
ATOM     15  F   UNL     1      43.015  10.798  11.761  0.00  0.00    +0.000 F 
ATOM     16  C   UNL     1      43.613   9.873  10.960  0.00  0.00    +0.000 C 
ATOM     17  F   UNL     1      42.662   8.936  10.699  0.00  0.00    +0.000 F 
ATOM     18  F   UNL     1      43.860  10.501   9.779  0.00  0.00    +0.000 F 
ENDBRANCH   9  16
BRANCH  13  19
ATOM     19  C   UNL     1      48.402  10.351  12.487  0.00  0.00    +0.000 C 
ATOM     20  F   UNL     1      49.434   9.711  13.101  0.00  0.00    +0.000 F 
ATOM     21  F   UNL     1      48.892  10.790  11.294  0.00  0.00    +0.000 F 
ATOM     22  F   UNL     1      48.159  11.469  13.224  0.00  0.00    +0.000 F 
ENDBRANCH  13  19
ENDBRANCH   1  11
BRANCH   6  23
ATOM     23  C   UNL     1      43.958   3.401  10.156  0.00  0.00    +0.000 C 
BRANCH  23  24
ATOM     24  C   UNL     1      44.958   3.088   9.071  0.00  0.00    +0.000 A 
ATOM     25  C   UNL     1      45.459   1.788   8.894  0.00  0.00    +0.000 A 
ATOM     26  C   UNL     1      46.388   1.529   7.891  0.00  0.00    +0.000 A 
ATOM     27  C   UNL     1      46.785   2.589   7.100  0.00  0.00    +0.000 A 
ATOM     28 CL   UNL     1      47.926   2.365   5.836  0.00  0.00    +0.000 Cl
ATOM     29  N   UNL     1      46.338   3.863   7.237  0.00  0.00    +0.000 NA
ATOM     30  C   UNL     1      45.436   4.075   8.219  0.00  0.00    +0.000 A 
ENDBRANCH  23  24
ENDBRANCH   6  23
TORSDOF 5
ENDMDL
MODEL 2
REMARK VINA RESULT:    -8.762      0.558      3.363
REMARK INTER + INTRA:         -12.458
REMARK INTER:                 -11.375
REMARK INTRA:                  -1.082
REMARK UNBOUND:                -1.134
REMARK  Name = 
REMARK  5 active torsions:
REMARK  status: ('A' for Active; 'I' for Inactive)
REMARK    1  A    between atoms: C_2  and  C_5
REMARK    2  A    between atoms: C_7  and  C_8
REMARK    3  A    between atoms: N_13  and  C_14
REMARK    4  A    between atoms: C_14  and  C_15
REMARK    5  A    between atoms: C_24  and  C_25
REMARK                            x       y       z     vdW  Elec       q    Type
REMARK                         _______ _______ _______ _____ _____    ______ ____
ROOT
ATOM      1  C   UNL     1      46.153   5.881  12.437  0.00  0.00    +0.000 A 
ATOM      2  C   UNL     1      47.009   5.395  13.407  0.00  0.00    +0.000 A 
ATOM      3  C   UNL     1      46.901   4.062  13.700  0.00  0.00    +0.000 A 
ATOM      4  N   UNL     1      46.014   3.253  13.105  0.00  0.00    +0.000 NA
ATOM      5  C   UNL     1      45.265   3.779  12.130  0.00  0.00    +0.000 A 
ATOM      6  N   UNL     1      44.448   2.884  11.474  0.00  0.00    +0.000 N 
ATOM      7  N   UNL     1      45.293   5.073  11.780  0.00  0.00    +0.000 NA
ATOM      8  H   UNL     1      43.775   2.519  12.141  0.00  0.00    +0.000 HD
ENDROOT
BRANCH   1  11
ATOM      9  C   UNL     1      47.107   9.559  12.133  0.00  0.00    +0.000 A 
ATOM     10  C   UNL     1      47.186   8.172  12.336  0.00  0.00    +0.000 A 
ATOM     11  C   UNL     1      46.093   7.320  12.104  0.00  0.00    +0.000 A 
ATOM     12  C   UNL     1      44.910   7.900  11.609  0.00  0.00    +0.000 A 
ATOM     13  C   UNL     1      44.796   9.286  11.398  0.00  0.00    +0.000 A 
ATOM     14  C   UNL     1      45.905  10.106  11.662  0.00  0.00    +0.000 A 
BRANCH   9  16
ATOM     15  F   UNL     1      49.296   9.804  13.090  0.00  0.00    +0.000 F 
ATOM     16  C   UNL     1      48.282  10.453  12.454  0.00  0.00    +0.000 C 
ATOM     17  F   UNL     1      47.934  11.487  13.268  0.00  0.00    +0.000 F 
ATOM     18  F   UNL     1      48.830  11.013  11.343  0.00  0.00    +0.000 F 
ENDBRANCH   9  16
BRANCH  13  19
ATOM     19  C   UNL     1      43.496   9.907  10.944  0.00  0.00    +0.000 C 
ATOM     20  F   UNL     1      43.604  10.626   9.793  0.00  0.00    +0.000 F 
ATOM     21  F   UNL     1      42.535   8.970  10.710  0.00  0.00    +0.000 F 
ATOM     22  F   UNL     1      42.971  10.755  11.870  0.00  0.00    +0.000 F 
ENDBRANCH  13  19
ENDBRANCH   1  11
BRANCH   6  23
ATOM     23  C   UNL     1      43.915   3.285  10.196  0.00  0.00    +0.000 C 
BRANCH  23  24
ATOM     24  C   UNL     1      44.968   3.030   9.147  0.00  0.00    +0.000 A 
ATOM     25  C   UNL     1      45.473   4.072   8.352  0.00  0.00    +0.000 A 
ATOM     26  C   UNL     1      46.436   3.806   7.384  0.00  0.00    +0.000 A 
ATOM     27  C   UNL     1      46.860   2.499   7.247  0.00  0.00    +0.000 A 
ATOM     28 CL   UNL     1      48.047   2.076   6.081  0.00  0.00    +0.000 Cl
ATOM     29  N   UNL     1      46.397   1.457   7.983  0.00  0.00    +0.000 NA
ATOM     30  C   UNL     1      45.464   1.753   8.913  0.00  0.00    +0.000 A 
ENDBRANCH  23  24
ENDBRANCH   6  23
TORSDOF 5
ENDMDL
MODEL 3
REMARK VINA RESULT:    -8.333      2.971      4.745
REMARK INTER + INTRA:         -11.903
REMARK INTER:                 -10.907
REMARK INTRA:                  -0.996
REMARK UNBOUND:                -1.134
REMARK  Name = 
REMARK  5 active torsions:
REMARK  status: ('A' for Active; 'I' for Inactive)
REMARK    1  A    between atoms: C_2  and  C_5
REMARK    2  A    between atoms: C_7  and  C_8
REMARK    3  A    between atoms: N_13  and  C_14
REMARK    4  A    between atoms: C_14  and  C_15
REMARK    5  A    between atoms: C_24  and  C_25
REMARK                            x       y       z     vdW  Elec       q    Type
REMARK                         _______ _______ _______ _____ _____    ______ ____
ROOT
ATOM      1  C   UNL     1      44.853   5.086  12.614  0.00  0.00    +0.000 A 
ATOM      2  C   UNL     1      43.689   5.787  12.864  0.00  0.00    +0.000 A 
ATOM      3  C   UNL     1      42.660   5.590  11.982  0.00  0.00    +0.000 A 
ATOM      4  N   UNL     1      42.753   4.779  10.920  0.00  0.00    +0.000 NA
ATOM      5  C   UNL     1      43.887   4.084  10.779  0.00  0.00    +0.000 A 
ATOM      6  N   UNL     1      43.893   3.183   9.737  0.00  0.00    +0.000 N 
ATOM      7  N   UNL     1      44.951   4.216  11.584  0.00  0.00    +0.000 NA
ATOM      8  H   UNL     1      43.806   3.701   8.869  0.00  0.00    +0.000 HD
ENDROOT
BRANCH   1  11
ATOM      9  C   UNL     1      47.494   4.663  15.330  0.00  0.00    +0.000 A 
ATOM     10  C   UNL     1      46.404   4.420  14.478  0.00  0.00    +0.000 A 
ATOM     11  C   UNL     1      46.073   5.289  13.425  0.00  0.00    +0.000 A 
ATOM     12  C   UNL     1      46.906   6.403  13.213  0.00  0.00    +0.000 A 
ATOM     13  C   UNL     1      48.003   6.677  14.050  0.00  0.00    +0.000 A 
ATOM     14  C   UNL     1      48.289   5.795  15.105  0.00  0.00    +0.000 A 
BRANCH   9  16
ATOM     15  F   UNL     1      46.689   3.481  17.260  0.00  0.00    +0.000 F 
ATOM     16  C   UNL     1      47.783   3.742  16.492  0.00  0.00    +0.000 C 
ATOM     17  F   UNL     1      48.716   4.258  17.337  0.00  0.00    +0.000 F 
ATOM     18  F   UNL     1      48.262   2.533  16.094  0.00  0.00    +0.000 F 
ENDBRANCH   9  16
BRANCH  13  19
ATOM     19  C   UNL     1      48.842   7.919  13.863  0.00  0.00    +0.000 C 
ATOM     20  F   UNL     1      49.986   7.926  14.602  0.00  0.00    +0.000 F 
ATOM     21  F   UNL     1      49.233   8.083  12.568  0.00  0.00    +0.000 F 
ATOM     22  F   UNL     1      48.172   9.056  14.197  0.00  0.00    +0.000 F 
ENDBRANCH  13  19
ENDBRANCH   1  11
BRANCH   6  23
ATOM     23  C   UNL     1      44.901   2.152   9.757  0.00  0.00    +0.000 C 
BRANCH  23  24
ATOM     24  C   UNL     1      45.706   2.259   8.486  0.00  0.00    +0.000 A 
ATOM     25  C   UNL     1      45.725   3.443   7.731  0.00  0.00    +0.000 A 
ATOM     26  C   UNL     1      46.468   3.511   6.558  0.00  0.00    +0.000 A 
ATOM     27  C   UNL     1      47.168   2.381   6.180  0.00  0.00    +0.000 A 
ATOM     28 CL   UNL     1      48.115   2.371   4.747  0.00  0.00    +0.000 Cl
ATOM     29  N   UNL     1      47.175   1.211   6.868  0.00  0.00    +0.000 NA
ATOM     30  C   UNL     1      46.443   1.185   8.003  0.00  0.00    +0.000 A 
ENDBRANCH  23  24
ENDBRANCH   6  23
TORSDOF 5
ENDMDL
MODEL 4
REMARK VINA RESULT:    -7.745      2.784      4.216
REMARK INTER + INTRA:         -11.143
REMARK INTER:                 -10.147
REMARK INTRA:                  -0.996
REMARK UNBOUND:                -1.134
REMARK  Name = 
REMARK  5 active torsions:
REMARK  status: ('A' for Active; 'I' for Inactive)
REMARK    1  A    between atoms: C_2  and  C_5
REMARK    2  A    between atoms: C_7  and  C_8
REMARK    3  A    between atoms: N_13  and  C_14
REMARK    4  A    between atoms: C_14  and  C_15
REMARK    5  A    between atoms: C_24  and  C_25
REMARK                            x       y       z     vdW  Elec       q    Type
REMARK                         _______ _______ _______ _____ _____    ______ ____
ROOT
ATOM      1  C   UNL     1      45.467   6.157  12.036  0.00  0.00    +0.000 A 
ATOM      2  C   UNL     1      44.394   6.993  12.281  0.00  0.00    +0.000 A 
ATOM      3  C   UNL     1      43.232   6.699  11.619  0.00  0.00    +0.000 A 
ATOM      4  N   UNL     1      43.117   5.673  10.765  0.00  0.00    +0.000 NA
ATOM      5  C   UNL     1      44.177   4.870  10.628  0.00  0.00    +0.000 A 
ATOM      6  N   UNL     1      43.975   3.768   9.826  0.00  0.00    +0.000 N 
ATOM      7  N   UNL     1      45.359   5.081  11.226  0.00  0.00    +0.000 NA
ATOM      8  H   UNL     1      43.781   4.092   8.884  0.00  0.00    +0.000 HD
ENDROOT
BRANCH   1  11
ATOM      9  C   UNL     1      48.341   6.467  14.521  0.00  0.00    +0.000 A 
ATOM     10  C   UNL     1      47.114   6.114  13.936  0.00  0.00    +0.000 A 
ATOM     11  C   UNL     1      46.807   6.426  12.601  0.00  0.00    +0.000 A 
ATOM     12  C   UNL     1      47.799   7.070  11.838  0.00  0.00    +0.000 A 
ATOM     13  C   UNL     1      49.037   7.439  12.394  0.00  0.00    +0.000 A 
ATOM     14  C   UNL     1      49.298   7.129  13.739  0.00  0.00    +0.000 A 
BRANCH   9  16
ATOM     15  F   UNL     1      47.916   5.102  16.452  0.00  0.00    +0.000 F 
ATOM     16  C   UNL     1      48.612   6.173  15.978  0.00  0.00    +0.000 C 
ATOM     17  F   UNL     1      48.280   7.218  16.784  0.00  0.00    +0.000 F 
ATOM     18  F   UNL     1      49.923   5.908  16.222  0.00  0.00    +0.000 F 
ENDBRANCH   9  16
BRANCH  13  19
ATOM     19  C   UNL     1      50.063   8.202  11.589  0.00  0.00    +0.000 C 
ATOM     20  F   UNL     1      49.580   9.345  11.027  0.00  0.00    +0.000 F 
ATOM     21  F   UNL     1      51.129   8.582  12.347  0.00  0.00    +0.000 F 
ATOM     22  F   UNL     1      50.575   7.466  10.566  0.00  0.00    +0.000 F 
ENDBRANCH  13  19
ENDBRANCH   1  11
BRANCH   6  23
ATOM     23  C   UNL     1      44.918   2.683   9.937  0.00  0.00    +0.000 C 
BRANCH  23  24
ATOM     24  C   UNL     1      45.679   2.588   8.639  0.00  0.00    +0.000 A 
ATOM     25  C   UNL     1      46.283   1.387   8.233  0.00  0.00    +0.000 A 
ATOM     26  C   UNL     1      46.987   1.331   7.035  0.00  0.00    +0.000 A 
ATOM     27  C   UNL     1      47.063   2.487   6.284  0.00  0.00    +0.000 A 
ATOM     28 CL   UNL     1      47.910   2.513   4.790  0.00  0.00    +0.000 Cl
ATOM     29  N   UNL     1      46.506   3.674   6.636  0.00  0.00    +0.000 NA
ATOM     30  C   UNL     1      45.828   3.689   7.804  0.00  0.00    +0.000 A 
ENDBRANCH  23  24
ENDBRANCH   6  23
TORSDOF 5
ENDMDL
MODEL 5
REMARK VINA RESULT:    -7.500      2.968      4.739
REMARK INTER + INTRA:         -10.826
REMARK INTER:                  -9.995
REMARK INTRA:                  -0.832
REMARK UNBOUND:                -1.134
REMARK  Name = 
REMARK  5 active torsions:
REMARK  status: ('A' for Active; 'I' for Inactive)
REMARK    1  A    between atoms: C_2  and  C_5
REMARK    2  A    between atoms: C_7  and  C_8
REMARK    3  A    between atoms: N_13  and  C_14
REMARK    4  A    between atoms: C_14  and  C_15
REMARK    5  A    between atoms: C_24  and  C_25
REMARK                            x       y       z     vdW  Elec       q    Type
REMARK                         _______ _______ _______ _____ _____    ______ ____
ROOT
ATOM      1  C   UNL     1      45.178   5.057  12.681  0.00  0.00    +0.000 A 
ATOM      2  C   UNL     1      44.036   4.612  13.318  0.00  0.00    +0.000 A 
ATOM      3  C   UNL     1      42.976   4.294  12.511  0.00  0.00    +0.000 A 
ATOM      4  N   UNL     1      43.011   4.412  11.177  0.00  0.00    +0.000 NA
ATOM      5  C   UNL     1      44.171   4.786  10.628  0.00  0.00    +0.000 A 
ATOM      6  N   UNL     1      44.191   4.786   9.250  0.00  0.00    +0.000 N 
ATOM      7  N   UNL     1      45.259   5.126  11.334  0.00  0.00    +0.000 NA
ATOM      8  H   UNL     1      43.523   5.476   8.922  0.00  0.00    +0.000 HD
ENDROOT
BRANCH   1  11
ATOM      9  C   UNL     1      48.413   6.873  13.557  0.00  0.00    +0.000 A 
ATOM     10  C   UNL     1      47.230   6.494  12.902  0.00  0.00    +0.000 A 
ATOM     11  C   UNL     1      46.355   5.534  13.438  0.00  0.00    +0.000 A 
ATOM     12  C   UNL     1      46.679   4.987  14.694  0.00  0.00    +0.000 A 
ATOM     13  C   UNL     1      47.857   5.343  15.375  0.00  0.00    +0.000 A 
ATOM     14  C   UNL     1      48.717   6.291  14.796  0.00  0.00    +0.000 A 
BRANCH   9  16
ATOM     15  F   UNL     1      50.333   7.271  12.170  0.00  0.00    +0.000 F 
ATOM     16  C   UNL     1      49.363   7.861  12.922  0.00  0.00    +0.000 C 
ATOM     17  F   UNL     1      50.017   8.613  13.848  0.00  0.00    +0.000 F 
ATOM     18  F   UNL     1      48.730   8.739  12.100  0.00  0.00    +0.000 F 
ENDBRANCH   9  16
BRANCH  13  19
ATOM     19  C   UNL     1      48.234   4.689  16.684  0.00  0.00    +0.000 C 
ATOM     20  F   UNL     1      47.190   4.545  17.546  0.00  0.00    +0.000 F 
ATOM     21  F   UNL     1      48.745   3.439  16.504  0.00  0.00    +0.000 F 
ATOM     22  F   UNL     1      49.187   5.388  17.360  0.00  0.00    +0.000 F 
ENDBRANCH  13  19
ENDBRANCH   1  11
BRANCH   6  23
ATOM     23  C   UNL     1      45.480   4.801   8.604  0.00  0.00    +0.000 C 
BRANCH  23  24
ATOM     24  C   UNL     1      45.851   3.380   8.263  0.00  0.00    +0.000 A 
ATOM     25  C   UNL     1      46.778   3.091   7.249  0.00  0.00    +0.000 A 
ATOM     26  C   UNL     1      47.094   1.770   6.948  0.00  0.00    +0.000 A 
ATOM     27  C   UNL     1      46.463   0.781   7.677  0.00  0.00    +0.000 A 
ATOM     28 CL   UNL     1      46.791  -0.877   7.378  0.00  0.00    +0.000 Cl
ATOM     29  N   UNL     1      45.554   1.008   8.659  0.00  0.00    +0.000 NA
ATOM     30  C   UNL     1      45.275   2.302   8.924  0.00  0.00    +0.000 A 
ENDBRANCH  23  24
ENDBRANCH   6  23
TORSDOF 5
ENDMDL
MODEL 6
REMARK VINA RESULT:    -7.171      3.482      5.175
REMARK INTER + INTRA:         -10.401
REMARK INTER:                  -9.340
REMARK INTRA:                  -1.061
REMARK UNBOUND:                -1.134
REMARK  Name = 
REMARK  5 active torsions:
REMARK  status: ('A' for Active; 'I' for Inactive)
REMARK    1  A    between atoms: C_2  and  C_5
REMARK    2  A    between atoms: C_7  and  C_8
REMARK    3  A    between atoms: N_13  and  C_14
REMARK    4  A    between atoms: C_14  and  C_15
REMARK    5  A    between atoms: C_24  and  C_25
REMARK                            x       y       z     vdW  Elec       q    Type
REMARK                         _______ _______ _______ _____ _____    ______ ____
ROOT
ATOM      1  C   UNL     1      46.400   7.244  13.160  0.00  0.00    +0.000 A 
ATOM      2  C   UNL     1      46.095   8.591  13.128  0.00  0.00    +0.000 A 
ATOM      3  C   UNL     1      45.240   8.996  12.137  0.00  0.00    +0.000 A 
ATOM      4  N   UNL     1      44.726   8.157  11.228  0.00  0.00    +0.000 NA
ATOM      5  C   UNL     1      45.015   6.859  11.361  0.00  0.00    +0.000 A 
ATOM      6  N   UNL     1      44.375   6.023  10.472  0.00  0.00    +0.000 N 
ATOM      7  N   UNL     1      45.847   6.369  12.292  0.00  0.00    +0.000 NA
ATOM      8  H   UNL     1      44.689   6.257   9.535  0.00  0.00    +0.000 HD
ENDROOT
BRANCH   1  11
ATOM      9  C   UNL     1      48.076   4.958  15.709  0.00  0.00    +0.000 A 
ATOM     10  C   UNL     1      47.204   5.443  14.720  0.00  0.00    +0.000 A 
ATOM     11  C   UNL     1      47.392   6.694  14.109  0.00  0.00    +0.000 A 
ATOM     12  C   UNL     1      48.524   7.440  14.487  0.00  0.00    +0.000 A 
ATOM     13  C   UNL     1      49.414   6.985  15.476  0.00  0.00    +0.000 A 
ATOM     14  C   UNL     1      49.180   5.738  16.079  0.00  0.00    +0.000 A 
BRANCH   9  16
ATOM     15  F   UNL     1      48.735   3.320  17.338  0.00  0.00    +0.000 F 
ATOM     16  C   UNL     1      47.808   3.636  16.391  0.00  0.00    +0.000 C 
ATOM     17  F   UNL     1      47.803   2.597  15.513  0.00  0.00    +0.000 F 
ATOM     18  F   UNL     1      46.602   3.607  17.018  0.00  0.00    +0.000 F 
ENDBRANCH   9  16
BRANCH  13  19
ATOM     19  C   UNL     1      50.580   7.831  15.932  0.00  0.00    +0.000 C 
ATOM     20  F   UNL     1      50.628   8.018  17.280  0.00  0.00    +0.000 F 
ATOM     21  F   UNL     1      51.778   7.279  15.590  0.00  0.00    +0.000 F 
ATOM     22  F   UNL     1      50.570   9.074  15.379  0.00  0.00    +0.000 F 
ENDBRANCH  13  19
ENDBRANCH   1  11
BRANCH   6  23
ATOM     23  C   UNL     1      44.334   4.618  10.791  0.00  0.00    +0.000 C 
BRANCH  23  24
ATOM     24  C   UNL     1      45.044   3.867   9.693  0.00  0.00    +0.000 A 
ATOM     25  C   UNL     1      45.692   4.544   8.647  0.00  0.00    +0.000 A 
ATOM     26  C   UNL     1      46.330   3.825   7.641  0.00  0.00    +0.000 A 
ATOM     27  C   UNL     1      46.293   2.447   7.720  0.00  0.00    +0.000 A 
ATOM     28 CL   UNL     1      47.054   1.476   6.525  0.00  0.00    +0.000 Cl
ATOM     29  N   UNL     1      45.673   1.747   8.703  0.00  0.00    +0.000 NA
ATOM     30  C   UNL     1      45.066   2.478   9.663  0.00  0.00    +0.000 A 
ENDBRANCH  23  24
ENDBRANCH   6  23
TORSDOF 5
ENDMDL
MODEL 7
REMARK VINA RESULT:    -7.040      5.234      7.563
REMARK INTER + INTRA:         -10.232
REMARK INTER:                  -9.208
REMARK INTRA:                  -1.024
REMARK UNBOUND:                -1.134
REMARK  Name = 
REMARK  5 active torsions:
REMARK  status: ('A' for Active; 'I' for Inactive)
REMARK    1  A    between atoms: C_2  and  C_5
REMARK    2  A    between atoms: C_7  and  C_8
REMARK    3  A    between atoms: N_13  and  C_14
REMARK    4  A    between atoms: C_14  and  C_15
REMARK    5  A    between atoms: C_24  and  C_25
REMARK                            x       y       z     vdW  Elec       q    Type
REMARK                         _______ _______ _______ _____ _____    ______ ____
ROOT
ATOM      1  C   UNL     1      49.012   7.000  14.428  0.00  0.00    +0.000 A 
ATOM      2  C   UNL     1      49.971   7.880  13.964  0.00  0.00    +0.000 A 
ATOM      3  C   UNL     1      51.096   8.013  14.734  0.00  0.00    +0.000 A 
ATOM      4  N   UNL     1      51.277   7.351  15.884  0.00  0.00    +0.000 NA
ATOM      5  C   UNL     1      50.336   6.468  16.236  0.00  0.00    +0.000 A 
ATOM      6  N   UNL     1      50.620   5.732  17.366  0.00  0.00    +0.000 N 
ATOM      7  N   UNL     1      49.199   6.275  15.553  0.00  0.00    +0.000 NA
ATOM      8  H   UNL     1      50.675   6.370  18.154  0.00  0.00    +0.000 HD
ENDROOT
BRANCH   1  11
ATOM      9  C   UNL     1      45.968   5.401  12.782  0.00  0.00    +0.000 A 
ATOM     10  C   UNL     1      47.148   5.574  13.524  0.00  0.00    +0.000 A 
ATOM     11  C   UNL     1      47.707   6.843  13.751  0.00  0.00    +0.000 A 
ATOM     12  C   UNL     1      47.015   7.959  13.246  0.00  0.00    +0.000 A 
ATOM     13  C   UNL     1      45.832   7.820  12.496  0.00  0.00    +0.000 A 
ATOM     14  C   UNL     1      45.317   6.533  12.273  0.00  0.00    +0.000 A 
BRANCH   9  16
ATOM     15  F   UNL     1      44.211   3.788  13.065  0.00  0.00    +0.000 F 
ATOM     16  C   UNL     1      45.430   4.017  12.503  0.00  0.00    +0.000 C 
ATOM     17  F   UNL     1      46.249   3.041  12.980  0.00  0.00    +0.000 F 
ATOM     18  F   UNL     1      45.284   3.772  11.173  0.00  0.00    +0.000 F 
ENDBRANCH   9  16
BRANCH  13  19
ATOM     19  C   UNL     1      45.142   9.020  11.890  0.00  0.00    +0.000 C 
ATOM     20  F   UNL     1      44.237   8.702  10.923  0.00  0.00    +0.000 F 
ATOM     21  F   UNL     1      44.455   9.740  12.821  0.00  0.00    +0.000 F 
ATOM     22  F   UNL     1      46.017   9.890  11.316  0.00  0.00    +0.000 F 
ENDBRANCH  13  19
ENDBRANCH   1  11
BRANCH   6  23
ATOM     23  C   UNL     1      49.858   4.528  17.582  0.00  0.00    +0.000 C 
BRANCH  23  24
ATOM     24  C   UNL     1      50.822   3.370  17.653  0.00  0.00    +0.000 A 
ATOM     25  C   UNL     1      52.144   3.547  18.093  0.00  0.00    +0.000 A 
ATOM     26  C   UNL     1      53.015   2.463  18.139  0.00  0.00    +0.000 A 
ATOM     27  C   UNL     1      52.527   1.235  17.736  0.00  0.00    +0.000 A 
ATOM     28 CL   UNL     1      53.528  -0.160  17.759  0.00  0.00    +0.000 Cl
ATOM     29  N   UNL     1      51.263   1.015  17.293  0.00  0.00    +0.000 NA
ATOM     30  C   UNL     1      50.447   2.090  17.265  0.00  0.00    +0.000 A 
ENDBRANCH  23  24
ENDBRANCH   6  23
TORSDOF 5
ENDMDL
MODEL 8
REMARK VINA RESULT:    -7.018      5.200      7.519
REMARK INTER + INTRA:         -10.204
REMARK INTER:                  -9.168
REMARK INTRA:                  -1.035
REMARK UNBOUND:                -1.134
REMARK  Name = 
REMARK  5 active torsions:
REMARK  status: ('A' for Active; 'I' for Inactive)
REMARK    1  A    between atoms: C_2  and  C_5
REMARK    2  A    between atoms: C_7  and  C_8
REMARK    3  A    between atoms: N_13  and  C_14
REMARK    4  A    between atoms: C_14  and  C_15
REMARK    5  A    between atoms: C_24  and  C_25
REMARK                            x       y       z     vdW  Elec       q    Type
REMARK                         _______ _______ _______ _____ _____    ______ ____
ROOT
ATOM      1  C   UNL     1      48.994   7.018  14.373  0.00  0.00    +0.000 A 
ATOM      2  C   UNL     1      49.938   7.972  14.044  0.00  0.00    +0.000 A 
ATOM      3  C   UNL     1      50.967   8.139  14.932  0.00  0.00    +0.000 A 
ATOM      4  N   UNL     1      51.070   7.442  16.071  0.00  0.00    +0.000 NA
ATOM      5  C   UNL     1      50.155   6.491  16.290  0.00  0.00    +0.000 A 
ATOM      6  N   UNL     1      50.366   5.727  17.417  0.00  0.00    +0.000 N 
ATOM      7  N   UNL     1      49.109   6.259  15.485  0.00  0.00    +0.000 NA
ATOM      8  H   UNL     1      50.299   6.333  18.229  0.00  0.00    +0.000 HD
ENDROOT
BRANCH   1  11
ATOM      9  C   UNL     1      45.836   7.728  12.360  0.00  0.00    +0.000 A 
ATOM     10  C   UNL     1      47.053   7.900  13.038  0.00  0.00    +0.000 A 
ATOM     11  C   UNL     1      47.779   6.813  13.556  0.00  0.00    +0.000 A 
ATOM     12  C   UNL     1      47.268   5.522  13.329  0.00  0.00    +0.000 A 
ATOM     13  C   UNL     1      46.050   5.315  12.656  0.00  0.00    +0.000 A 
ATOM     14  C   UNL     1      45.343   6.429  12.172  0.00  0.00    +0.000 A 
BRANCH   9  16
ATOM     15  F   UNL     1      44.500   9.655  12.881  0.00  0.00    +0.000 F 
ATOM     16  C   UNL     1      45.050   8.923  11.873  0.00  0.00    +0.000 C 
ATOM     17  F   UNL     1      44.014   8.563  11.067  0.00  0.00    +0.000 F 
ATOM     18  F   UNL     1      45.809   9.788  11.149  0.00  0.00    +0.000 F 
ENDBRANCH   9  16
BRANCH  13  19
ATOM     19  C   UNL     1      45.470   3.930  12.490  0.00  0.00    +0.000 C 
ATOM     20  F   UNL     1      44.266   3.762  13.103  0.00  0.00    +0.000 F 
ATOM     21  F   UNL     1      45.270   3.612  11.181  0.00  0.00    +0.000 F 
ATOM     22  F   UNL     1      46.285   2.960  12.989  0.00  0.00    +0.000 F 
ENDBRANCH  13  19
ENDBRANCH   1  11
BRANCH   6  23
ATOM     23  C   UNL     1      49.664   4.472  17.509  0.00  0.00    +0.000 C 
BRANCH  23  24
ATOM     24  C   UNL     1      50.687   3.368  17.606  0.00  0.00    +0.000 A 
ATOM     25  C   UNL     1      51.986   3.617  18.077  0.00  0.00    +0.000 A 
ATOM     26  C   UNL     1      52.913   2.582  18.146  0.00  0.00    +0.000 A 
ATOM     27  C   UNL     1      52.502   1.329  17.736  0.00  0.00    +0.000 A 
ATOM     28 CL   UNL     1      53.576  -0.010  17.787  0.00  0.00    +0.000 Cl
ATOM     29  N   UNL     1      51.263   1.039  17.265  0.00  0.00    +0.000 NA
ATOM     30  C   UNL     1      50.390   2.068  17.214  0.00  0.00    +0.000 A 
ENDBRANCH  23  24
ENDBRANCH   6  23
TORSDOF 5
ENDMDL
MODEL 9
REMARK VINA RESULT:    -6.889      4.953      6.861
REMARK INTER + INTRA:         -10.038
REMARK INTER:                  -8.995
REMARK INTRA:                  -1.042
REMARK UNBOUND:                -1.134
REMARK  Name = 
REMARK  5 active torsions:
REMARK  status: ('A' for Active; 'I' for Inactive)
REMARK    1  A    between atoms: C_2  and  C_5
REMARK    2  A    between atoms: C_7  and  C_8
REMARK    3  A    between atoms: N_13  and  C_14
REMARK    4  A    between atoms: C_14  and  C_15
REMARK    5  A    between atoms: C_24  and  C_25
REMARK                            x       y       z     vdW  Elec       q    Type
REMARK                         _______ _______ _______ _____ _____    ______ ____
ROOT
ATOM      1  C   UNL     1      48.994   7.054  14.952  0.00  0.00    +0.000 A 
ATOM      2  C   UNL     1      50.150   7.763  14.690  0.00  0.00    +0.000 A 
ATOM      3  C   UNL     1      50.348   8.143  13.389  0.00  0.00    +0.000 A 
ATOM      4  N   UNL     1      49.492   7.844  12.403  0.00  0.00    +0.000 NA
ATOM      5  C   UNL     1      48.364   7.212  12.743  0.00  0.00    +0.000 A 
ATOM      6  N   UNL     1      47.466   7.026  11.714  0.00  0.00    +0.000 N 
ATOM      7  N   UNL     1      48.086   6.793  13.986  0.00  0.00    +0.000 NA
ATOM      8  H   UNL     1      47.897   6.419  11.023  0.00  0.00    +0.000 HD
ENDROOT
BRANCH   1  11
ATOM      9  C   UNL     1      48.200   4.567  17.730  0.00  0.00    +0.000 A 
ATOM     10  C   UNL     1      48.581   5.108  16.492  0.00  0.00    +0.000 A 
ATOM     11  C   UNL     1      48.712   6.493  16.291  0.00  0.00    +0.000 A 
ATOM     12  C   UNL     1      48.494   7.335  17.398  0.00  0.00    +0.000 A 
ATOM     13  C   UNL     1      48.109   6.825  18.651  0.00  0.00    +0.000 A 
ATOM     14  C   UNL     1      47.968   5.436  18.806  0.00  0.00    +0.000 A 
BRANCH   9  16
ATOM     15  F   UNL     1      48.825   2.336  17.096  0.00  0.00    +0.000 F 
ATOM     16  C   UNL     1      48.007   3.078  17.893  0.00  0.00    +0.000 C 
ATOM     17  F   UNL     1      46.739   2.688  17.589  0.00  0.00    +0.000 F 
ATOM     18  F   UNL     1      48.237   2.657  19.166  0.00  0.00    +0.000 F 
ENDBRANCH   9  16
BRANCH  13  19
ATOM     19  C   UNL     1      47.799   7.744  19.810  0.00  0.00    +0.000 C 
ATOM     20  F   UNL     1      46.979   8.780  19.484  0.00  0.00    +0.000 F 
ATOM     21  F   UNL     1      47.183   7.087  20.833  0.00  0.00    +0.000 F 
ATOM     22  F   UNL     1      48.918   8.303  20.346  0.00  0.00    +0.000 F 
ENDBRANCH  13  19
ENDBRANCH   1  11
BRANCH   6  23
ATOM     23  C   UNL     1      46.105   6.711  12.069  0.00  0.00    +0.000 C 
BRANCH  23  24
ATOM     24  C   UNL     1      45.684   5.496  11.281  0.00  0.00    +0.000 A 
ATOM     25  C   UNL     1      45.667   5.507   9.877  0.00  0.00    +0.000 A 
ATOM     26  C   UNL     1      45.264   4.375   9.175  0.00  0.00    +0.000 A 
ATOM     27  C   UNL     1      44.889   3.268   9.910  0.00  0.00    +0.000 A 
ATOM     28 CL   UNL     1      44.379   1.825   9.132  0.00  0.00    +0.000 Cl
ATOM     29  N   UNL     1      44.879   3.210  11.267  0.00  0.00    +0.000 NA
ATOM     30  C   UNL     1      45.279   4.327  11.913  0.00  0.00    +0.000 A 
ENDBRANCH  23  24
ENDBRANCH   6  23
TORSDOF 5
ENDMDL
