MODEL 1
REMARK VINA RESULT:    -7.989      0.000      0.000
REMARK INTER + INTRA:         -10.388
REMARK INTER:                  -9.857
REMARK INTRA:                  -0.531
REMARK UNBOUND:                -0.531
REMARK  Name = 
REMARK  4 active torsions:
REMARK  status: ('A' for Active; 'I' for Inactive)
REMARK    1  A    between atoms: C_2  and  C_4
REMARK    2  A    between atoms: N_8  and  C_9
REMARK    3  A    between atoms: C_9  and  C_10
REMARK    4  A    between atoms: C_10  and  C_11
REMARK                            x       y       z     vdW  Elec       q    Type
REMARK                         _______ _______ _______ _____ _____    ______ ____
ROOT
ATOM      1  C   UNL     1      46.229   2.128   7.958  0.00  0.00    +0.000 A 
ATOM      2  C   UNL     1      46.334   3.479   7.630  0.00  0.00    +0.000 A 
ATOM      3  C   UNL     1      45.501   4.398   8.254  0.00  0.00    +0.000 A 
ATOM      4  C   UNL     1      44.589   3.976   9.225  0.00  0.00    +0.000 A 
ATOM      5  N   UNL     1      43.929   4.955   9.971  0.00  0.00    +0.000 N 
ATOM      6  N   UNL     1      44.455   2.667   9.522  0.00  0.00    +0.000 NA
ATOM      7  C   UNL     1      45.251   1.774   8.875  0.00  0.00    +0.000 A 
ATOM      8  H   UNL     1      43.474   5.664   9.409  0.00  0.00    +0.000 HD
ENDROOT
BRANCH   1  10
ATOM      9  N   UNL     1      46.769  -0.220   7.661  0.00  0.00    +0.000 N 
ATOM     10  C   UNL     1      47.106   1.083   7.392  0.00  0.00    +0.000 C 
ATOM     11  O   UNL     1      48.059   1.358   6.681  0.00  0.00    +0.000 OA
ATOM     12  H   UNL     1      47.301  -0.930   7.177  0.00  0.00    +0.000 HD
ATOM     13  H   UNL     1      45.860  -0.482   8.011  0.00  0.00    +0.000 HD
ENDBRANCH   1  10
BRANCH   5  14
ATOM     14  C   UNL     1      43.235   4.510  11.176  0.00  0.00    +0.000 C 
BRANCH  14  15
ATOM     15  C   UNL     1      43.551   5.439  12.356  0.00  0.00    +0.000 C 
BRANCH  15  16
ATOM     16  C   UNL     1      44.987   5.324  12.805  0.00  0.00    +0.000 A 
ATOM     17  C   UNL     1      45.816   6.449  12.824  0.00  0.00    +0.000 A 
ATOM     18  C   UNL     1      47.134   6.301  13.228  0.00  0.00    +0.000 A 
ATOM     19  N   UNL     1      47.677   5.124  13.605  0.00  0.00    +0.000 NA
ATOM     20  C   UNL     1      46.864   4.047  13.571  0.00  0.00    +0.000 A 
ATOM     21  C   UNL     1      45.532   4.094  13.182  0.00  0.00    +0.000 A 
ENDBRANCH  15  16
ENDBRANCH  14  15
ENDBRANCH   5  14
TORSDOF 4
ENDMDL
MODEL 2
REMARK VINA RESULT:    -7.170      2.963      6.488
REMARK INTER + INTRA:          -9.379
REMARK INTER:                  -9.306
REMARK INTRA:                  -0.073
REMARK UNBOUND:                -0.531
REMARK  Name = 
REMARK  4 active torsions:
REMARK  status: ('A' for Active; 'I' for Inactive)
REMARK    1  A    between atoms: C_2  and  C_4
REMARK    2  A    between atoms: N_8  and  C_9
REMARK    3  A    between atoms: C_9  and  C_10
REMARK    4  A    between atoms: C_10  and  C_11
REMARK                            x       y       z     vdW  Elec       q    Type
REMARK                         _______ _______ _______ _____ _____    ______ ____
ROOT
ATOM      1  C   UNL     1      45.445   6.993  12.532  0.00  0.00    +0.000 A 
ATOM      2  C   UNL     1      46.252   5.966  13.019  0.00  0.00    +0.000 A 
ATOM      3  C   UNL     1      46.039   4.666  12.578  0.00  0.00    +0.000 A 
ATOM      4  C   UNL     1      45.046   4.397  11.633  0.00  0.00    +0.000 A 
ATOM      5  N   UNL     1      45.011   3.120  11.067  0.00  0.00    +0.000 N 
ATOM      6  N   UNL     1      44.236   5.379  11.185  0.00  0.00    +0.000 NA
ATOM      7  C   UNL     1      44.432   6.640  11.654  0.00  0.00    +0.000 A 
ATOM      8  H   UNL     1      45.002   2.369  11.746  0.00  0.00    +0.000 HD
ENDROOT
BRANCH   1  10
ATOM      9  N   UNL     1      44.691   9.298  12.429  0.00  0.00    +0.000 N 
ATOM     10  C   UNL     1      45.629   8.413  12.896  0.00  0.00    +0.000 C 
ATOM     11  O   UNL     1      46.544   8.780  13.615  0.00  0.00    +0.000 OA
ATOM     12  H   UNL     1      44.755  10.245  12.775  0.00  0.00    +0.000 HD
ATOM     13  H   UNL     1      43.798   8.998  12.066  0.00  0.00    +0.000 HD
ENDBRANCH   1  10
BRANCH   5  14
ATOM     14  C   UNL     1      44.191   2.952   9.871  0.00  0.00    +0.000 C 
BRANCH  14  15
ATOM     15  C   UNL     1      44.835   3.658   8.671  0.00  0.00    +0.000 C 
BRANCH  15  16
ATOM     16  C   UNL     1      45.905   2.817   8.019  0.00  0.00    +0.000 A 
ATOM     17  C   UNL     1      46.848   3.403   7.170  0.00  0.00    +0.000 A 
ATOM     18  C   UNL     1      47.807   2.595   6.578  0.00  0.00    +0.000 A 
ATOM     19  N   UNL     1      47.886   1.261   6.767  0.00  0.00    +0.000 NA
ATOM     20  C   UNL     1      46.961   0.712   7.582  0.00  0.00    +0.000 A 
ATOM     21  C   UNL     1      45.963   1.436   8.220  0.00  0.00    +0.000 A 
ENDBRANCH  15  16
ENDBRANCH  14  15
ENDBRANCH   5  14
TORSDOF 4
ENDMDL
MODEL 3
REMARK VINA RESULT:    -7.028      2.682      6.290
REMARK INTER + INTRA:          -9.203
REMARK INTER:                  -8.844
REMARK INTRA:                  -0.359
REMARK UNBOUND:                -0.531
REMARK  Name = 
REMARK  4 active torsions:
REMARK  status: ('A' for Active; 'I' for Inactive)
REMARK    1  A    between atoms: C_2  and  C_4
REMARK    2  A    between atoms: N_8  and  C_9
REMARK    3  A    between atoms: C_9  and  C_10
REMARK    4  A    between atoms: C_10  and  C_11
REMARK                            x       y       z     vdW  Elec       q    Type
REMARK                         _______ _______ _______ _____ _____    ______ ____
ROOT
ATOM      1  C   UNL     1      46.766   4.654  14.146  0.00  0.00    +0.000 A 
ATOM      2  C   UNL     1      46.631   5.931  13.602  0.00  0.00    +0.000 A 
ATOM      3  C   UNL     1      46.142   6.073  12.310  0.00  0.00    +0.000 A 
ATOM      4  C   UNL     1      45.761   4.948  11.575  0.00  0.00    +0.000 A 
ATOM      5  N   UNL     1      45.082   5.153  10.371  0.00  0.00    +0.000 N 
ATOM      6  N   UNL     1      45.923   3.707  12.079  0.00  0.00    +0.000 NA
ATOM      7  C   UNL     1      46.438   3.582  13.331  0.00  0.00    +0.000 A 
ATOM      8  H   UNL     1      45.550   5.791   9.738  0.00  0.00    +0.000 HD
ENDROOT
BRANCH   1  10
ATOM      9  N   UNL     1      47.732   5.477  16.216  0.00  0.00    +0.000 N 
ATOM     10  C   UNL     1      47.222   4.404  15.528  0.00  0.00    +0.000 C 
ATOM     11  O   UNL     1      47.113   3.308  16.054  0.00  0.00    +0.000 OA
ATOM     12  H   UNL     1      47.934   5.328  17.195  0.00  0.00    +0.000 HD
ATOM     13  H   UNL     1      47.592   6.429  15.912  0.00  0.00    +0.000 HD
ENDBRANCH   1  10
BRANCH   5  14
ATOM     14  C   UNL     1      44.418   3.994   9.783  0.00  0.00    +0.000 C 
BRANCH  14  15
ATOM     15  C   UNL     1      44.620   3.970   8.261  0.00  0.00    +0.000 C 
BRANCH  15  16
ATOM     16  C   UNL     1      45.732   3.037   7.847  0.00  0.00    +0.000 A 
ATOM     17  C   UNL     1      46.755   3.484   7.006  0.00  0.00    +0.000 A 
ATOM     18  C   UNL     1      47.750   2.592   6.634  0.00  0.00    +0.000 A 
ATOM     19  N   UNL     1      47.793   1.304   7.034  0.00  0.00    +0.000 NA
ATOM     20  C   UNL     1      46.792   0.889   7.839  0.00  0.00    +0.000 A 
ATOM     21  C   UNL     1      45.752   1.704   8.265  0.00  0.00    +0.000 A 
ENDBRANCH  15  16
ENDBRANCH  14  15
ENDBRANCH   5  14
TORSDOF 4
ENDMDL
MODEL 4
REMARK VINA RESULT:    -6.981      2.712      6.696
REMARK INTER + INTRA:          -9.144
REMARK INTER:                  -8.851
REMARK INTRA:                  -0.293
REMARK UNBOUND:                -0.531
REMARK  Name = 
REMARK  4 active torsions:
REMARK  status: ('A' for Active; 'I' for Inactive)
REMARK    1  A    between atoms: C_2  and  C_4
REMARK    2  A    between atoms: N_8  and  C_9
REMARK    3  A    between atoms: C_9  and  C_10
REMARK    4  A    between atoms: C_10  and  C_11
REMARK                            x       y       z     vdW  Elec       q    Type
REMARK                         _______ _______ _______ _____ _____    ______ ____
ROOT
ATOM      1  C   UNL     1      47.240   6.071  13.657  0.00  0.00    +0.000 A 
ATOM      2  C   UNL     1      46.446   4.964  13.957  0.00  0.00    +0.000 A 
ATOM      3  C   UNL     1      45.617   4.436  12.976  0.00  0.00    +0.000 A 
ATOM      4  C   UNL     1      45.601   4.991  11.694  0.00  0.00    +0.000 A 
ATOM      5  N   UNL     1      44.916   4.300  10.691  0.00  0.00    +0.000 N 
ATOM      6  N   UNL     1      46.337   6.084  11.406  0.00  0.00    +0.000 NA
ATOM      7  C   UNL     1      47.116   6.613  12.388  0.00  0.00    +0.000 A 
ATOM      8  H   UNL     1      43.963   4.059  10.935  0.00  0.00    +0.000 HD
ENDROOT
BRANCH   1  10
ATOM      9  N   UNL     1      47.925   7.946  15.039  0.00  0.00    +0.000 N 
ATOM     10  C   UNL     1      48.194   6.669  14.613  0.00  0.00    +0.000 C 
ATOM     11  O   UNL     1      49.152   6.047  15.041  0.00  0.00    +0.000 OA
ATOM     12  H   UNL     1      48.513   8.306  15.778  0.00  0.00    +0.000 HD
ATOM     13  H   UNL     1      47.021   8.378  14.915  0.00  0.00    +0.000 HD
ENDBRANCH   1  10
BRANCH   5  14
ATOM     14  C   UNL     1      45.171   4.712   9.315  0.00  0.00    +0.000 C 
BRANCH  14  15
ATOM     15  C   UNL     1      44.707   3.628   8.332  0.00  0.00    +0.000 C 
BRANCH  15  16
ATOM     16  C   UNL     1      45.860   2.832   7.772  0.00  0.00    +0.000 A 
ATOM     17  C   UNL     1      46.032   1.490   8.126  0.00  0.00    +0.000 A 
ATOM     18  C   UNL     1      47.113   0.796   7.604  0.00  0.00    +0.000 A 
ATOM     19  N   UNL     1      48.023   1.339   6.769  0.00  0.00    +0.000 NA
ATOM     20  C   UNL     1      47.845   2.637   6.446  0.00  0.00    +0.000 A 
ATOM     21  C   UNL     1      46.797   3.416   6.917  0.00  0.00    +0.000 A 
ENDBRANCH  15  16
ENDBRANCH  14  15
ENDBRANCH   5  14
TORSDOF 4
ENDMDL
MODEL 5
REMARK VINA RESULT:    -6.860      3.149      6.832
REMARK INTER + INTRA:          -8.996
REMARK INTER:                  -8.733
REMARK INTRA:                  -0.262
REMARK UNBOUND:                -0.531
REMARK  Name = 
REMARK  4 active torsions:
REMARK  status: ('A' for Active; 'I' for Inactive)
REMARK    1  A    between atoms: C_2  and  C_4
REMARK    2  A    between atoms: N_8  and  C_9
REMARK    3  A    between atoms: C_9  and  C_10
REMARK    4  A    between atoms: C_10  and  C_11
REMARK                            x       y       z     vdW  Elec       q    Type
REMARK                         _______ _______ _______ _____ _____    ______ ____
ROOT
ATOM      1  C   UNL     1      46.815   8.148  12.753  0.00  0.00    +0.000 A 
ATOM      2  C   UNL     1      45.471   8.442  12.526  0.00  0.00    +0.000 A 
ATOM      3  C   UNL     1      44.735   7.640  11.664  0.00  0.00    +0.000 A 
ATOM      4  C   UNL     1      45.328   6.531  11.055  0.00  0.00    +0.000 A 
ATOM      5  N   UNL     1      44.499   5.640  10.370  0.00  0.00    +0.000 N 
ATOM      6  N   UNL     1      46.637   6.261  11.239  0.00  0.00    +0.000 NA
ATOM      7  C   UNL     1      47.355   7.077  12.057  0.00  0.00    +0.000 A 
ATOM      8  H   UNL     1      43.895   6.081   9.686  0.00  0.00    +0.000 HD
ENDROOT
BRANCH   1  10
ATOM      9  N   UNL     1      47.294   8.891  15.013  0.00  0.00    +0.000 N 
ATOM     10  C   UNL     1      47.666   8.906  13.693  0.00  0.00    +0.000 C 
ATOM     11  O   UNL     1      48.676   9.484  13.325  0.00  0.00    +0.000 OA
ATOM     12  H   UNL     1      47.940   9.312  15.667  0.00  0.00    +0.000 HD
ATOM     13  H   UNL     1      46.634   8.222  15.381  0.00  0.00    +0.000 HD
ENDBRANCH   1  10
BRANCH   5  14
ATOM     14  C   UNL     1      45.070   4.343  10.020  0.00  0.00    +0.000 C 
BRANCH  14  15
ATOM     15  C   UNL     1      44.857   4.044   8.530  0.00  0.00    +0.000 C 
BRANCH  15  16
ATOM     16  C   UNL     1      45.868   3.058   7.996  0.00  0.00    +0.000 A 
ATOM     17  C   UNL     1      46.865   3.476   7.110  0.00  0.00    +0.000 A 
ATOM     18  C   UNL     1      47.766   2.538   6.628  0.00  0.00    +0.000 A 
ATOM     19  N   UNL     1      47.738   1.230   6.960  0.00  0.00    +0.000 NA
ATOM     20  C   UNL     1      46.763   0.844   7.809  0.00  0.00    +0.000 A 
ATOM     21  C   UNL     1      45.815   1.706   8.344  0.00  0.00    +0.000 A 
ENDBRANCH  15  16
ENDBRANCH  14  15
ENDBRANCH   5  14
TORSDOF 4
ENDMDL
MODEL 6
REMARK VINA RESULT:    -6.075      3.598      5.439
REMARK INTER + INTRA:          -8.027
REMARK INTER:                  -7.774
REMARK INTRA:                  -0.252
REMARK UNBOUND:                -0.531
REMARK  Name = 
REMARK  4 active torsions:
REMARK  status: ('A' for Active; 'I' for Inactive)
REMARK    1  A    between atoms: C_2  and  C_4
REMARK    2  A    between atoms: N_8  and  C_9
REMARK    3  A    between atoms: C_9  and  C_10
REMARK    4  A    between atoms: C_10  and  C_11
REMARK                            x       y       z     vdW  Elec       q    Type
REMARK                         _______ _______ _______ _____ _____    ______ ____
ROOT
ATOM      1  C   UNL     1      45.112   4.103  11.097  0.00  0.00    +0.000 A 
ATOM      2  C   UNL     1      45.599   5.398  11.274  0.00  0.00    +0.000 A 
ATOM      3  C   UNL     1      46.109   5.770  12.511  0.00  0.00    +0.000 A 
ATOM      4  C   UNL     1      46.161   4.846  13.558  0.00  0.00    +0.000 A 
ATOM      5  N   UNL     1      46.871   5.200  14.708  0.00  0.00    +0.000 N 
ATOM      6  N   UNL     1      45.658   3.603  13.406  0.00  0.00    +0.000 NA
ATOM      7  C   UNL     1      45.128   3.265  12.201  0.00  0.00    +0.000 A 
ATOM      8  H   UNL     1      46.601   6.094  15.099  0.00  0.00    +0.000 HD
ENDROOT
BRANCH   1  10
ATOM      9  N   UNL     1      44.004   4.510   8.976  0.00  0.00    +0.000 N 
ATOM     10  C   UNL     1      44.603   3.596   9.806  0.00  0.00    +0.000 C 
ATOM     11  O   UNL     1      44.744   2.432   9.471  0.00  0.00    +0.000 OA
ATOM     12  H   UNL     1      43.762   4.184   8.050  0.00  0.00    +0.000 HD
ATOM     13  H   UNL     1      44.107   5.505   9.104  0.00  0.00    +0.000 HD
ENDBRANCH   1  10
BRANCH   5  14
ATOM     14  C   UNL     1      47.185   4.127  15.645  0.00  0.00    +0.000 C 
BRANCH  14  15
ATOM     15  C   UNL     1      47.876   4.687  16.896  0.00  0.00    +0.000 C 
BRANCH  15  16
ATOM     16  C   UNL     1      49.204   4.022  17.161  0.00  0.00    +0.000 A 
ATOM     17  C   UNL     1      49.326   2.631  17.096  0.00  0.00    +0.000 A 
ATOM     18  C   UNL     1      50.559   2.055  17.362  0.00  0.00    +0.000 A 
ATOM     19  N   UNL     1      51.663   2.760  17.687  0.00  0.00    +0.000 NA
ATOM     20  C   UNL     1      51.524   4.101  17.754  0.00  0.00    +0.000 A 
ATOM     21  C   UNL     1      50.333   4.770  17.506  0.00  0.00    +0.000 A 
ENDBRANCH  15  16
ENDBRANCH  14  15
ENDBRANCH   5  14
TORSDOF 4
ENDMDL
MODEL 7
REMARK VINA RESULT:    -5.732      3.826      6.935
REMARK INTER + INTRA:          -7.604
REMARK INTER:                  -7.257
REMARK INTRA:                  -0.347
REMARK UNBOUND:                -0.531
REMARK  Name = 
REMARK  4 active torsions:
REMARK  status: ('A' for Active; 'I' for Inactive)
REMARK    1  A    between atoms: C_2  and  C_4
REMARK    2  A    between atoms: N_8  and  C_9
REMARK    3  A    between atoms: C_9  and  C_10
REMARK    4  A    between atoms: C_10  and  C_11
REMARK                            x       y       z     vdW  Elec       q    Type
REMARK                         _______ _______ _______ _____ _____    ______ ____
ROOT
ATOM      1  C   UNL     1      47.681   4.575  16.353  0.00  0.00    +0.000 A 
ATOM      2  C   UNL     1      48.367   5.783  16.463  0.00  0.00    +0.000 A 
ATOM      3  C   UNL     1      48.563   6.561  15.329  0.00  0.00    +0.000 A 
ATOM      4  C   UNL     1      48.048   6.150  14.097  0.00  0.00    +0.000 A 
ATOM      5  N   UNL     1      48.085   7.060  13.037  0.00  0.00    +0.000 N 
ATOM      6  N   UNL     1      47.416   4.965  13.974  0.00  0.00    +0.000 NA
ATOM      7  C   UNL     1      47.265   4.197  15.086  0.00  0.00    +0.000 A 
ATOM      8  H   UNL     1      49.000   7.462  12.871  0.00  0.00    +0.000 HD
ENDROOT
BRANCH   1  10
ATOM      9  N   UNL     1      48.085   3.934  18.659  0.00  0.00    +0.000 N 
ATOM     10  C   UNL     1      47.375   3.706  17.508  0.00  0.00    +0.000 C 
ATOM     11  O   UNL     1      46.502   2.854  17.459  0.00  0.00    +0.000 OA
ATOM     12  H   UNL     1      47.792   3.418  19.477  0.00  0.00    +0.000 HD
ATOM     13  H   UNL     1      48.609   4.783  18.811  0.00  0.00    +0.000 HD
ENDBRANCH   1  10
BRANCH   5  14
ATOM     14  C   UNL     1      47.271   6.743  11.868  0.00  0.00    +0.000 C 
BRANCH  14  15
ATOM     15  C   UNL     1      45.809   7.147  12.102  0.00  0.00    +0.000 C 
BRANCH  15  16
ATOM     16  C   UNL     1      44.849   6.025  11.791  0.00  0.00    +0.000 A 
ATOM     17  C   UNL     1      44.924   5.347  10.571  0.00  0.00    +0.000 A 
ATOM     18  C   UNL     1      44.015   4.332  10.314  0.00  0.00    +0.000 A 
ATOM     19  N   UNL     1      43.047   3.954  11.176  0.00  0.00    +0.000 NA
ATOM     20  C   UNL     1      42.985   4.626  12.345  0.00  0.00    +0.000 A 
ATOM     21  C   UNL     1      43.848   5.656  12.693  0.00  0.00    +0.000 A 
ENDBRANCH  15  16
ENDBRANCH  14  15
ENDBRANCH   5  14
TORSDOF 4
ENDMDL
MODEL 8
REMARK VINA RESULT:    -5.631      4.633      8.242
REMARK INTER + INTRA:          -7.479
REMARK INTER:                  -7.219
REMARK INTRA:                  -0.260
REMARK UNBOUND:                -0.531
REMARK  Name = 
REMARK  4 active torsions:
REMARK  status: ('A' for Active; 'I' for Inactive)
REMARK    1  A    between atoms: C_2  and  C_4
REMARK    2  A    between atoms: N_8  and  C_9
REMARK    3  A    between atoms: C_9  and  C_10
REMARK    4  A    between atoms: C_10  and  C_11
REMARK                            x       y       z     vdW  Elec       q    Type
REMARK                         _______ _______ _______ _____ _____    ______ ____
ROOT
ATOM      1  C   UNL     1      49.319   4.393  18.175  0.00  0.00    +0.000 A 
ATOM      2  C   UNL     1      48.401   3.344  18.155  0.00  0.00    +0.000 A 
ATOM      3  C   UNL     1      47.484   3.260  17.115  0.00  0.00    +0.000 A 
ATOM      4  C   UNL     1      47.503   4.202  16.084  0.00  0.00    +0.000 A 
ATOM      5  N   UNL     1      46.708   3.957  14.961  0.00  0.00    +0.000 N 
ATOM      6  N   UNL     1      48.362   5.242  16.114  0.00  0.00    +0.000 NA
ATOM      7  C   UNL     1      49.229   5.331  17.158  0.00  0.00    +0.000 A 
ATOM      8  H   UNL     1      45.739   3.756  15.178  0.00  0.00    +0.000 HD
ENDROOT
BRANCH   1  10
ATOM      9  N   UNL     1      49.973   4.404  20.512  0.00  0.00    +0.000 N 
ATOM     10  C   UNL     1      50.368   4.537  19.205  0.00  0.00    +0.000 C 
ATOM     11  O   UNL     1      51.538   4.721  18.912  0.00  0.00    +0.000 OA
ATOM     12  H   UNL     1      50.709   4.387  21.205  0.00  0.00    +0.000 HD
ATOM     13  H   UNL     1      49.086   3.997  20.770  0.00  0.00    +0.000 HD
ENDBRANCH   1  10
BRANCH   5  14
ATOM     14  C   UNL     1      46.974   4.766  13.776  0.00  0.00    +0.000 C 
BRANCH  14  15
ATOM     15  C   UNL     1      45.702   5.496  13.323  0.00  0.00    +0.000 C 
BRANCH  15  16
ATOM     16  C   UNL     1      44.970   4.746  12.236  0.00  0.00    +0.000 A 
ATOM     17  C   UNL     1      44.126   3.679  12.558  0.00  0.00    +0.000 A 
ATOM     18  C   UNL     1      43.483   3.004  11.531  0.00  0.00    +0.000 A 
ATOM     19  N   UNL     1      43.624   3.312  10.224  0.00  0.00    +0.000 NA
ATOM     20  C   UNL     1      44.450   4.340   9.934  0.00  0.00    +0.000 A 
ATOM     21  C   UNL     1      45.138   5.075  10.889  0.00  0.00    +0.000 A 
ENDBRANCH  15  16
ENDBRANCH  14  15
ENDBRANCH   5  14
TORSDOF 4
ENDMDL
MODEL 9
REMARK VINA RESULT:    -5.461      3.936      7.389
REMARK INTER + INTRA:          -7.270
REMARK INTER:                  -7.010
REMARK INTRA:                  -0.260
REMARK UNBOUND:                -0.531
REMARK  Name = 
REMARK  4 active torsions:
REMARK  status: ('A' for Active; 'I' for Inactive)
REMARK    1  A    between atoms: C_2  and  C_4
REMARK    2  A    between atoms: N_8  and  C_9
REMARK    3  A    between atoms: C_9  and  C_10
REMARK    4  A    between atoms: C_10  and  C_11
REMARK                            x       y       z     vdW  Elec       q    Type
REMARK                         _______ _______ _______ _____ _____    ______ ____
ROOT
ATOM      1  C   UNL     1      48.251   4.789  16.849  0.00  0.00    +0.000 A 
ATOM      2  C   UNL     1      48.597   5.909  16.094  0.00  0.00    +0.000 A 
ATOM      3  C   UNL     1      48.068   6.062  14.820  0.00  0.00    +0.000 A 
ATOM      4  C   UNL     1      47.172   5.118  14.312  0.00  0.00    +0.000 A 
ATOM      5  N   UNL     1      46.508   5.421  13.121  0.00  0.00    +0.000 N 
ATOM      6  N   UNL     1      46.861   4.012  15.019  0.00  0.00    +0.000 NA
ATOM      7  C   UNL     1      47.417   3.857  16.251  0.00  0.00    +0.000 A 
ATOM      8  H   UNL     1      47.123   5.701  12.366  0.00  0.00    +0.000 HD
ENDROOT
BRANCH   1  10
ATOM      9  N   UNL     1      49.394   3.397  18.476  0.00  0.00    +0.000 N 
ATOM     10  C   UNL     1      48.716   4.565  18.232  0.00  0.00    +0.000 C 
ATOM     11  O   UNL     1      48.548   5.395  19.111  0.00  0.00    +0.000 OA
ATOM     12  H   UNL     1      49.810   3.301  19.392  0.00  0.00    +0.000 HD
ATOM     13  H   UNL     1      49.773   2.828  17.734  0.00  0.00    +0.000 HD
ENDBRANCH   1  10
BRANCH   5  14
ATOM     14  C   UNL     1      45.360   4.588  12.775  0.00  0.00    +0.000 C 
BRANCH  14  15
ATOM     15  C   UNL     1      44.651   5.135  11.529  0.00  0.00    +0.000 C 
BRANCH  15  16
ATOM     16  C   UNL     1      44.913   4.290  10.306  0.00  0.00    +0.000 A 
ATOM     17  C   UNL     1      44.576   2.933  10.297  0.00  0.00    +0.000 A 
ATOM     18  C   UNL     1      44.847   2.186   9.160  0.00  0.00    +0.000 A 
ATOM     19  N   UNL     1      45.426   2.689   8.050  0.00  0.00    +0.000 NA
ATOM     20  C   UNL     1      45.753   3.999   8.081  0.00  0.00    +0.000 A 
ATOM     21  C   UNL     1      45.523   4.829   9.170  0.00  0.00    +0.000 A 
ENDBRANCH  15  16
ENDBRANCH  14  15
ENDBRANCH   5  14
TORSDOF 4
ENDMDL
