MODEL 1
REMARK VINA RESULT:    -7.556      0.000      0.000
REMARK INTER + INTRA:          -9.631
REMARK INTER:                  -9.765
REMARK INTRA:                   0.134
REMARK UNBOUND:                 0.134
REMARK  Name = 
REMARK  7 active torsions:
REMARK  status: ('A' for Active; 'I' for Inactive)
REMARK    1  A    between atoms: C_1  and  N_2
REMARK    2  A    between atoms: N_2  and  C_3
REMARK    3  A    between atoms: N_2  and  C_4
REMARK    4  A    between atoms: C_4  and  C_5
REMARK    5  A    between atoms: N_8  and  C_9
REMARK    6  A    between atoms: C_9  and  N_10
REMARK    7  A    between atoms: C_15  and  C_16
REMARK                            x       y       z     vdW  Elec       q    Type
REMARK                         _______ _______ _______ _____ _____    ______ ____
ROOT
ATOM      1  N   UNL     1      43.884   4.270  10.487  0.00  0.00    +0.000 N 
ATOM      2  C   UNL     1      43.472   3.064  10.985  0.00  0.00    +0.000 A 
ATOM      3  N   UNL     1      44.055   2.062  10.369  0.00  0.00    +0.000 NA
ATOM      4  C   UNL     1      44.891   2.640   9.445  0.00  0.00    +0.000 A 
ATOM      5  C   UNL     1      45.699   2.035   8.484  0.00  0.00    +0.000 A 
ATOM      6  C   UNL     1      46.423   2.906   7.683  0.00  0.00    +0.000 A 
ATOM      7  N   UNL     1      46.435   4.267   7.810  0.00  0.00    +0.000 NA
ATOM      8  C   UNL     1      45.653   4.841   8.752  0.00  0.00    +0.000 A 
ATOM      9  C   UNL     1      44.854   4.027   9.540  0.00  0.00    +0.000 A 
ENDROOT
BRANCH   6  10
ATOM     10  C   UNL     1      47.224   2.350   6.543  0.00  0.00    +0.000 C 
ATOM     11  N   UNL     1      47.176   3.078   5.386  0.00  0.00    +0.000 N 
ATOM     12  O   UNL     1      47.855   1.301   6.620  0.00  0.00    +0.000 OA
ATOM     13  H   UNL     1      46.592   3.906   5.345  0.00  0.00    +0.000 HD
ATOM     14  H   UNL     1      47.618   2.717   4.555  0.00  0.00    +0.000 HD
ENDBRANCH   6  10
BRANCH   1  15
ATOM     15  C   UNL     1      43.353   5.571  10.871  0.00  0.00    +0.000 C 
BRANCH  15  19
ATOM     16  C   UNL     1      46.707   6.850  13.291  0.00  0.00    +0.000 C 
ATOM     17  C   UNL     1      45.940   5.568  13.645  0.00  0.00    +0.000 C 
ATOM     18  C   UNL     1      45.031   5.090  12.509  0.00  0.00    +0.000 C 
ATOM     19  N   UNL     1      44.104   6.126  12.019  0.00  0.00    +0.000 NA
ATOM     20  C   UNL     1      44.813   7.377  11.680  0.00  0.00    +0.000 C 
ATOM     21  C   UNL     1      45.684   7.891  12.830  0.00  0.00    +0.000 C 
BRANCH  16  22
ATOM     22  C   UNL     1      47.826   6.577  12.252  0.00  0.00    +0.000 C 
BRANCH  22  24
ATOM     23  C   UNL     1      49.972   7.691  11.924  0.00  0.00    +0.000 C 
ATOM     24  N   UNL     1      49.202   6.762  12.753  0.00  0.00    +0.000 NA
ATOM     25  C   UNL     1      49.171   7.255  14.136  0.00  0.00    +0.000 C 
ENDBRANCH  22  24
ENDBRANCH  16  22
ENDBRANCH  15  19
ENDBRANCH   1  15
TORSDOF 5
ENDMDL
MODEL 2
REMARK VINA RESULT:    -6.533      1.284      1.904
REMARK INTER + INTRA:          -8.310
REMARK INTER:                  -8.540
REMARK INTRA:                   0.231
REMARK UNBOUND:                 0.134
REMARK  Name = 
REMARK  7 active torsions:
REMARK  status: ('A' for Active; 'I' for Inactive)
REMARK    1  A    between atoms: C_1  and  N_2
REMARK    2  A    between atoms: N_2  and  C_3
REMARK    3  A    between atoms: N_2  and  C_4
REMARK    4  A    between atoms: C_4  and  C_5
REMARK    5  A    between atoms: N_8  and  C_9
REMARK    6  A    between atoms: C_9  and  N_10
REMARK    7  A    between atoms: C_15  and  C_16
REMARK                            x       y       z     vdW  Elec       q    Type
REMARK                         _______ _______ _______ _____ _____    ______ ____
ROOT
ATOM      1  N   UNL     1      44.207   4.698  10.718  0.00  0.00    +0.000 N 
ATOM      2  C   UNL     1      43.622   3.568  11.223  0.00  0.00    +0.000 A 
ATOM      3  N   UNL     1      43.957   2.501  10.535  0.00  0.00    +0.000 NA
ATOM      4  C   UNL     1      44.805   2.954   9.553  0.00  0.00    +0.000 A 
ATOM      5  C   UNL     1      45.405   2.250   8.510  0.00  0.00    +0.000 A 
ATOM      6  C   UNL     1      46.207   3.006   7.668  0.00  0.00    +0.000 A 
ATOM      7  N   UNL     1      46.481   4.336   7.825  0.00  0.00    +0.000 NA
ATOM      8  C   UNL     1      45.900   5.005   8.846  0.00  0.00    +0.000 A 
ATOM      9  C   UNL     1      45.032   4.320   9.683  0.00  0.00    +0.000 A 
ENDROOT
BRANCH   6  10
ATOM     10  C   UNL     1      46.794   2.358   6.449  0.00  0.00    +0.000 C 
ATOM     11  N   UNL     1      46.958   3.185   5.371  0.00  0.00    +0.000 N 
ATOM     12  O   UNL     1      47.080   1.167   6.397  0.00  0.00    +0.000 OA
ATOM     13  H   UNL     1      46.650   4.149   5.434  0.00  0.00    +0.000 HD
ATOM     14  H   UNL     1      47.263   2.797   4.491  0.00  0.00    +0.000 HD
ENDBRANCH   6  10
BRANCH   1  15
ATOM     15  C   UNL     1      43.959   6.058  11.178  0.00  0.00    +0.000 C 
BRANCH  15  19
ATOM     16  C   UNL     1      47.250   8.539  12.503  0.00  0.00    +0.000 C 
ATOM     17  C   UNL     1      46.108   9.144  11.673  0.00  0.00    +0.000 C 
ATOM     18  C   UNL     1      44.885   8.226  11.593  0.00  0.00    +0.000 C 
ATOM     19  N   UNL     1      45.198   6.864  11.123  0.00  0.00    +0.000 NA
ATOM     20  C   UNL     1      46.302   6.260  11.896  0.00  0.00    +0.000 C 
ATOM     21  C   UNL     1      47.549   7.149  11.937  0.00  0.00    +0.000 C 
BRANCH  16  22
ATOM     22  C   UNL     1      46.914   8.534  14.017  0.00  0.00    +0.000 C 
BRANCH  22  24
ATOM     23  C   UNL     1      48.797   7.735  15.348  0.00  0.00    +0.000 C 
ATOM     24  N   UNL     1      48.033   8.904  14.906  0.00  0.00    +0.000 NA
ATOM     25  C   UNL     1      48.932   9.841  14.220  0.00  0.00    +0.000 C 
ENDBRANCH  22  24
ENDBRANCH  16  22
ENDBRANCH  15  19
ENDBRANCH   1  15
TORSDOF 5
ENDMDL
MODEL 3
REMARK VINA RESULT:    -6.414      1.467      2.180
REMARK INTER + INTRA:          -8.155
REMARK INTER:                  -8.266
REMARK INTRA:                   0.111
REMARK UNBOUND:                 0.134
REMARK  Name = 
REMARK  7 active torsions:
REMARK  status: ('A' for Active; 'I' for Inactive)
REMARK    1  A    between atoms: C_1  and  N_2
REMARK    2  A    between atoms: N_2  and  C_3
REMARK    3  A    between atoms: N_2  and  C_4
REMARK    4  A    between atoms: C_4  and  C_5
REMARK    5  A    between atoms: N_8  and  C_9
REMARK    6  A    between atoms: C_9  and  N_10
REMARK    7  A    between atoms: C_15  and  C_16
REMARK                            x       y       z     vdW  Elec       q    Type
REMARK                         _______ _______ _______ _____ _____    ______ ____
ROOT
ATOM      1  N   UNL     1      44.181   3.214  10.093  0.00  0.00    +0.000 N 
ATOM      2  C   UNL     1      43.825   4.487   9.737  0.00  0.00    +0.000 A 
ATOM      3  N   UNL     1      44.417   4.862   8.626  0.00  0.00    +0.000 NA
ATOM      4  C   UNL     1      45.174   3.784   8.236  0.00  0.00    +0.000 A 
ATOM      5  C   UNL     1      46.048   3.663   7.158  0.00  0.00    +0.000 A 
ATOM      6  C   UNL     1      46.681   2.434   7.042  0.00  0.00    +0.000 A 
ATOM      7  N   UNL     1      46.466   1.357   7.856  0.00  0.00    +0.000 NA
ATOM      8  C   UNL     1      45.608   1.485   8.893  0.00  0.00    +0.000 A 
ATOM      9  C   UNL     1      44.995   2.711   9.103  0.00  0.00    +0.000 A 
ENDROOT
BRANCH   6  10
ATOM     10  C   UNL     1      47.730   2.253   5.985  0.00  0.00    +0.000 C 
ATOM     11  N   UNL     1      47.676   3.147   4.951  0.00  0.00    +0.000 N 
ATOM     12  O   UNL     1      48.563   1.354   6.017  0.00  0.00    +0.000 OA
ATOM     13  H   UNL     1      46.933   3.836   4.929  0.00  0.00    +0.000 HD
ATOM     14  H   UNL     1      48.294   3.030   4.162  0.00  0.00    +0.000 HD
ENDBRANCH   6  10
BRANCH   1  15
ATOM     15  C   UNL     1      43.792   2.539  11.323  0.00  0.00    +0.000 C 
BRANCH  15  19
ATOM     16  C   UNL     1      46.292   5.205  13.644  0.00  0.00    +0.000 C 
ATOM     17  C   UNL     1      46.591   3.699  13.605  0.00  0.00    +0.000 C 
ATOM     18  C   UNL     1      45.840   2.975  12.484  0.00  0.00    +0.000 C 
ATOM     19  N   UNL     1      44.385   3.211  12.500  0.00  0.00    +0.000 NA
ATOM     20  C   UNL     1      44.066   4.652  12.549  0.00  0.00    +0.000 C 
ATOM     21  C   UNL     1      44.772   5.374  13.700  0.00  0.00    +0.000 C 
BRANCH  16  22
ATOM     22  C   UNL     1      46.957   5.949  12.456  0.00  0.00    +0.000 C 
BRANCH  22  24
ATOM     23  C   UNL     1      46.989   8.326  13.005  0.00  0.00    +0.000 C 
ATOM     24  N   UNL     1      47.786   7.110  12.833  0.00  0.00    +0.000 NA
ATOM     25  C   UNL     1      48.515   6.825  14.075  0.00  0.00    +0.000 C 
ENDBRANCH  22  24
ENDBRANCH  16  22
ENDBRANCH  15  19
ENDBRANCH   1  15
TORSDOF 5
ENDMDL
MODEL 4
REMARK VINA RESULT:    -6.069      3.812      5.939
REMARK INTER + INTRA:          -7.710
REMARK INTER:                  -7.120
REMARK INTRA:                  -0.590
REMARK UNBOUND:                 0.134
REMARK  Name = 
REMARK  7 active torsions:
REMARK  status: ('A' for Active; 'I' for Inactive)
REMARK    1  A    between atoms: C_1  and  N_2
REMARK    2  A    between atoms: N_2  and  C_3
REMARK    3  A    between atoms: N_2  and  C_4
REMARK    4  A    between atoms: C_4  and  C_5
REMARK    5  A    between atoms: N_8  and  C_9
REMARK    6  A    between atoms: C_9  and  N_10
REMARK    7  A    between atoms: C_15  and  C_16
REMARK                            x       y       z     vdW  Elec       q    Type
REMARK                         _______ _______ _______ _____ _____    ______ ____
ROOT
ATOM      1  N   UNL     1      47.473   6.513  13.727  0.00  0.00    +0.000 N 
ATOM      2  C   UNL     1      46.977   7.655  13.159  0.00  0.00    +0.000 A 
ATOM      3  N   UNL     1      45.970   7.398  12.355  0.00  0.00    +0.000 NA
ATOM      4  C   UNL     1      45.796   6.036  12.416  0.00  0.00    +0.000 A 
ATOM      5  C   UNL     1      44.905   5.228  11.713  0.00  0.00    +0.000 A 
ATOM      6  C   UNL     1      44.986   3.872  11.992  0.00  0.00    +0.000 A 
ATOM      7  N   UNL     1      45.816   3.307  12.921  0.00  0.00    +0.000 NA
ATOM      8  C   UNL     1      46.668   4.104  13.603  0.00  0.00    +0.000 A 
ATOM      9  C   UNL     1      46.683   5.461  13.320  0.00  0.00    +0.000 A 
ENDROOT
BRANCH   6  10
ATOM     10  C   UNL     1      44.152   2.914  11.194  0.00  0.00    +0.000 C 
ATOM     11  N   UNL     1      44.770   2.376  10.097  0.00  0.00    +0.000 N 
ATOM     12  O   UNL     1      42.989   2.647  11.474  0.00  0.00    +0.000 OA
ATOM     13  H   UNL     1      45.711   2.672   9.864  0.00  0.00    +0.000 HD
ATOM     14  H   UNL     1      44.240   1.795   9.466  0.00  0.00    +0.000 HD
ENDBRANCH   6  10
BRANCH   1  15
ATOM     15  C   UNL     1      48.653   6.433  14.577  0.00  0.00    +0.000 C 
BRANCH  15  19
ATOM     16  C   UNL     1      49.047   6.468  18.889  0.00  0.00    +0.000 C 
ATOM     17  C   UNL     1      48.309   5.319  18.187  0.00  0.00    +0.000 C 
ATOM     18  C   UNL     1      48.563   5.286  16.677  0.00  0.00    +0.000 C 
ATOM     19  N   UNL     1      48.282   6.568  16.003  0.00  0.00    +0.000 NA
ATOM     20  C   UNL     1      48.971   7.695  16.663  0.00  0.00    +0.000 C 
ATOM     21  C   UNL     1      48.680   7.766  18.165  0.00  0.00    +0.000 C 
BRANCH  16  22
ATOM     22  C   UNL     1      50.574   6.206  18.957  0.00  0.00    +0.000 C 
BRANCH  22  24
ATOM     23  C   UNL     1      51.787   4.174  18.364  0.00  0.00    +0.000 C 
ATOM     24  N   UNL     1      50.956   4.841  19.368  0.00  0.00    +0.000 NA
ATOM     25  C   UNL     1      51.677   4.884  20.646  0.00  0.00    +0.000 C 
ENDBRANCH  22  24
ENDBRANCH  16  22
ENDBRANCH  15  19
ENDBRANCH   1  15
TORSDOF 5
ENDMDL
MODEL 5
REMARK VINA RESULT:    -5.974      2.864      4.926
REMARK INTER + INTRA:          -7.586
REMARK INTER:                  -7.116
REMARK INTRA:                  -0.470
REMARK UNBOUND:                 0.134
REMARK  Name = 
REMARK  7 active torsions:
REMARK  status: ('A' for Active; 'I' for Inactive)
REMARK    1  A    between atoms: C_1  and  N_2
REMARK    2  A    between atoms: N_2  and  C_3
REMARK    3  A    between atoms: N_2  and  C_4
REMARK    4  A    between atoms: C_4  and  C_5
REMARK    5  A    between atoms: N_8  and  C_9
REMARK    6  A    between atoms: C_9  and  N_10
REMARK    7  A    between atoms: C_15  and  C_16
REMARK                            x       y       z     vdW  Elec       q    Type
REMARK                         _______ _______ _______ _____ _____    ______ ____
ROOT
ATOM      1  N   UNL     1      47.164   6.303  13.649  0.00  0.00    +0.000 N 
ATOM      2  C   UNL     1      47.545   5.426  14.629  0.00  0.00    +0.000 A 
ATOM      3  N   UNL     1      47.032   4.233  14.435  0.00  0.00    +0.000 NA
ATOM      4  C   UNL     1      46.303   4.335  13.275  0.00  0.00    +0.000 A 
ATOM      5  C   UNL     1      45.505   3.380  12.647  0.00  0.00    +0.000 A 
ATOM      6  C   UNL     1      44.881   3.802  11.482  0.00  0.00    +0.000 A 
ATOM      7  N   UNL     1      45.039   5.031  10.904  0.00  0.00    +0.000 NA
ATOM      8  C   UNL     1      45.822   5.944  11.519  0.00  0.00    +0.000 A 
ATOM      9  C   UNL     1      46.420   5.606  12.724  0.00  0.00    +0.000 A 
ENDROOT
BRANCH   6  10
ATOM     10  C   UNL     1      43.907   2.883  10.805  0.00  0.00    +0.000 C 
ATOM     11  N   UNL     1      44.097   2.720   9.460  0.00  0.00    +0.000 N 
ATOM     12  O   UNL     1      42.984   2.335  11.397  0.00  0.00    +0.000 OA
ATOM     13  H   UNL     1      44.833   3.240   8.997  0.00  0.00    +0.000 HD
ATOM     14  H   UNL     1      43.427   2.188   8.926  0.00  0.00    +0.000 HD
ENDBRANCH   6  10
BRANCH   1  15
ATOM     15  C   UNL     1      47.467   7.728  13.624  0.00  0.00    +0.000 C 
BRANCH  15  19
ATOM     16  C   UNL     1      50.800   9.257  11.323  0.00  0.00    +0.000 C 
ATOM     17  C   UNL     1      49.456   9.999  11.327  0.00  0.00    +0.000 C 
ATOM     18  C   UNL     1      48.521   9.524  12.444  0.00  0.00    +0.000 C 
ATOM     19  N   UNL     1      48.305   8.065  12.453  0.00  0.00    +0.000 NA
ATOM     20  C   UNL     1      49.582   7.324  12.438  0.00  0.00    +0.000 C 
ATOM     21  C   UNL     1      50.501   7.756  11.292  0.00  0.00    +0.000 C 
BRANCH  16  22
ATOM     22  C   UNL     1      51.693   9.687  12.516  0.00  0.00    +0.000 C 
BRANCH  22  24
ATOM     23  C   UNL     1      54.110   9.360  12.466  0.00  0.00    +0.000 C 
ATOM     24  N   UNL     1      52.814   8.777  12.817  0.00  0.00    +0.000 NA
ATOM     25  C   UNL     1      52.808   8.426  14.243  0.00  0.00    +0.000 C 
ENDBRANCH  22  24
ENDBRANCH  16  22
ENDBRANCH  15  19
ENDBRANCH   1  15
TORSDOF 5
ENDMDL
MODEL 6
REMARK VINA RESULT:    -5.958      4.559      8.715
REMARK INTER + INTRA:          -7.566
REMARK INTER:                  -7.107
REMARK INTRA:                  -0.459
REMARK UNBOUND:                 0.134
REMARK  Name = 
REMARK  7 active torsions:
REMARK  status: ('A' for Active; 'I' for Inactive)
REMARK    1  A    between atoms: C_1  and  N_2
REMARK    2  A    between atoms: N_2  and  C_3
REMARK    3  A    between atoms: N_2  and  C_4
REMARK    4  A    between atoms: C_4  and  C_5
REMARK    5  A    between atoms: N_8  and  C_9
REMARK    6  A    between atoms: C_9  and  N_10
REMARK    7  A    between atoms: C_15  and  C_16
REMARK                            x       y       z     vdW  Elec       q    Type
REMARK                         _______ _______ _______ _____ _____    ______ ____
ROOT
ATOM      1  N   UNL     1      48.762   7.106  15.015  0.00  0.00    +0.000 N 
ATOM      2  C   UNL     1      49.183   8.372  15.320  0.00  0.00    +0.000 A 
ATOM      3  N   UNL     1      49.263   8.555  16.619  0.00  0.00    +0.000 NA
ATOM      4  C   UNL     1      48.894   7.356  17.178  0.00  0.00    +0.000 A 
ATOM      5  C   UNL     1      48.746   7.017  18.521  0.00  0.00    +0.000 A 
ATOM      6  C   UNL     1      48.343   5.712  18.763  0.00  0.00    +0.000 A 
ATOM      7  N   UNL     1      48.144   4.758  17.804  0.00  0.00    +0.000 NA
ATOM      8  C   UNL     1      48.301   5.098  16.505  0.00  0.00    +0.000 A 
ATOM      9  C   UNL     1      48.637   6.407  16.194  0.00  0.00    +0.000 A 
ENDROOT
BRANCH   6  10
ATOM     10  C   UNL     1      48.039   5.294  20.172  0.00  0.00    +0.000 C 
ATOM     11  N   UNL     1      48.574   4.094  20.552  0.00  0.00    +0.000 N 
ATOM     12  O   UNL     1      47.336   5.956  20.928  0.00  0.00    +0.000 OA
ATOM     13  H   UNL     1      49.096   3.547  19.877  0.00  0.00    +0.000 HD
ATOM     14  H   UNL     1      48.337   3.709  21.454  0.00  0.00    +0.000 HD
ENDBRANCH   6  10
BRANCH   1  15
ATOM     15  C   UNL     1      48.463   6.612  13.678  0.00  0.00    +0.000 C 
BRANCH  15  19
ATOM     16  C   UNL     1      44.677   6.018  11.663  0.00  0.00    +0.000 C 
ATOM     17  C   UNL     1      45.355   7.395  11.649  0.00  0.00    +0.000 C 
ATOM     18  C   UNL     1      46.819   7.340  12.097  0.00  0.00    +0.000 C 
ATOM     19  N   UNL     1      47.011   6.684  13.404  0.00  0.00    +0.000 NA
ATOM     20  C   UNL     1      46.360   5.360  13.452  0.00  0.00    +0.000 C 
ATOM     21  C   UNL     1      44.882   5.415  13.055  0.00  0.00    +0.000 C 
BRANCH  16  22
ATOM     22  C   UNL     1      45.197   5.115  10.513  0.00  0.00    +0.000 C 
BRANCH  22  24
ATOM     23  C   UNL     1      44.503   3.959   8.479  0.00  0.00    +0.000 C 
ATOM     24  N   UNL     1      44.170   4.272   9.871  0.00  0.00    +0.000 NA
ATOM     25  C   UNL     1      44.003   3.022  10.623  0.00  0.00    +0.000 C 
ENDBRANCH  22  24
ENDBRANCH  16  22
ENDBRANCH  15  19
ENDBRANCH   1  15
TORSDOF 5
ENDMDL
MODEL 7
REMARK VINA RESULT:    -5.883      2.931      5.222
REMARK INTER + INTRA:          -7.469
REMARK INTER:                  -6.896
REMARK INTRA:                  -0.572
REMARK UNBOUND:                 0.134
REMARK  Name = 
REMARK  7 active torsions:
REMARK  status: ('A' for Active; 'I' for Inactive)
REMARK    1  A    between atoms: C_1  and  N_2
REMARK    2  A    between atoms: N_2  and  C_3
REMARK    3  A    between atoms: N_2  and  C_4
REMARK    4  A    between atoms: C_4  and  C_5
REMARK    5  A    between atoms: N_8  and  C_9
REMARK    6  A    between atoms: C_9  and  N_10
REMARK    7  A    between atoms: C_15  and  C_16
REMARK                            x       y       z     vdW  Elec       q    Type
REMARK                         _______ _______ _______ _____ _____    ______ ____
ROOT
ATOM      1  N   UNL     1      46.053   7.752  12.531  0.00  0.00    +0.000 N 
ATOM      2  C   UNL     1      45.128   8.553  11.918  0.00  0.00    +0.000 A 
ATOM      3  N   UNL     1      44.179   7.846  11.347  0.00  0.00    +0.000 NA
ATOM      4  C   UNL     1      44.493   6.535  11.614  0.00  0.00    +0.000 A 
ATOM      5  C   UNL     1      43.854   5.371  11.191  0.00  0.00    +0.000 A 
ATOM      6  C   UNL     1      44.431   4.186  11.625  0.00  0.00    +0.000 A 
ATOM      7  N   UNL     1      45.513   4.095  12.456  0.00  0.00    +0.000 NA
ATOM      8  C   UNL     1      46.118   5.232  12.866  0.00  0.00    +0.000 A 
ATOM      9  C   UNL     1      45.629   6.448  12.411  0.00  0.00    +0.000 A 
ENDROOT
BRANCH   6  10
ATOM     10  C   UNL     1      43.884   2.884  11.120  0.00  0.00    +0.000 C 
ATOM     11  N   UNL     1      44.500   2.387  10.003  0.00  0.00    +0.000 N 
ATOM     12  O   UNL     1      42.934   2.311  11.641  0.00  0.00    +0.000 OA
ATOM     13  H   UNL     1      45.240   2.924   9.565  0.00  0.00    +0.000 HD
ATOM     14  H   UNL     1      44.127   1.563   9.558  0.00  0.00    +0.000 HD
ENDBRANCH   6  10
BRANCH   1  15
ATOM     15  C   UNL     1      47.285   8.210  13.159  0.00  0.00    +0.000 C 
BRANCH  15  19
ATOM     16  C   UNL     1      51.162   9.139  11.471  0.00  0.00    +0.000 C 
ATOM     17  C   UNL     1      50.006  10.143  11.356  0.00  0.00    +0.000 C 
ATOM     18  C   UNL     1      48.839   9.811  12.291  0.00  0.00    +0.000 C 
ATOM     19  N   UNL     1      48.340   8.431  12.146  0.00  0.00    +0.000 NA
ATOM     20  C   UNL     1      49.433   7.443  12.242  0.00  0.00    +0.000 C 
ATOM     21  C   UNL     1      50.582   7.737  11.272  0.00  0.00    +0.000 C 
BRANCH  16  22
ATOM     22  C   UNL     1      51.932   9.308  12.807  0.00  0.00    +0.000 C 
BRANCH  22  24
ATOM     23  C   UNL     1      53.998   8.011  12.886  0.00  0.00    +0.000 C 
ATOM     24  N   UNL     1      53.402   9.333  12.681  0.00  0.00    +0.000 NA
ATOM     25  C   UNL     1      53.785   9.839  11.357  0.00  0.00    +0.000 C 
ENDBRANCH  22  24
ENDBRANCH  16  22
ENDBRANCH  15  19
ENDBRANCH   1  15
TORSDOF 5
ENDMDL
MODEL 8
REMARK VINA RESULT:    -5.678      2.728      6.277
REMARK INTER + INTRA:          -7.205
REMARK INTER:                  -7.275
REMARK INTRA:                   0.071
REMARK UNBOUND:                 0.134
REMARK  Name = 
REMARK  7 active torsions:
REMARK  status: ('A' for Active; 'I' for Inactive)
REMARK    1  A    between atoms: C_1  and  N_2
REMARK    2  A    between atoms: N_2  and  C_3
REMARK    3  A    between atoms: N_2  and  C_4
REMARK    4  A    between atoms: C_4  and  C_5
REMARK    5  A    between atoms: N_8  and  C_9
REMARK    6  A    between atoms: C_9  and  N_10
REMARK    7  A    between atoms: C_15  and  C_16
REMARK                            x       y       z     vdW  Elec       q    Type
REMARK                         _______ _______ _______ _____ _____    ______ ____
ROOT
ATOM      1  N   UNL     1      44.965   4.340  12.656  0.00  0.00    +0.000 N 
ATOM      2  C   UNL     1      45.981   3.478  12.971  0.00  0.00    +0.000 A 
ATOM      3  N   UNL     1      47.124   4.110  13.113  0.00  0.00    +0.000 NA
ATOM      4  C   UNL     1      46.835   5.436  12.897  0.00  0.00    +0.000 A 
ATOM      5  C   UNL     1      47.694   6.532  12.865  0.00  0.00    +0.000 A 
ATOM      6  C   UNL     1      47.089   7.753  12.606  0.00  0.00    +0.000 A 
ATOM      7  N   UNL     1      45.746   7.948  12.441  0.00  0.00    +0.000 NA
ATOM      8  C   UNL     1      44.922   6.876  12.484  0.00  0.00    +0.000 A 
ATOM      9  C   UNL     1      45.475   5.618  12.672  0.00  0.00    +0.000 A 
ENDROOT
BRANCH   6  10
ATOM     10  C   UNL     1      47.950   8.969  12.431  0.00  0.00    +0.000 C 
ATOM     11  N   UNL     1      49.260   8.718  12.127  0.00  0.00    +0.000 N 
ATOM     12  O   UNL     1      47.530  10.112  12.578  0.00  0.00    +0.000 OA
ATOM     13  H   UNL     1      49.582   7.757  12.077  0.00  0.00    +0.000 HD
ATOM     14  H   UNL     1      49.915   9.484  12.084  0.00  0.00    +0.000 HD
ENDBRANCH   6  10
BRANCH   1  15
ATOM     15  C   UNL     1      43.600   3.954  12.325  0.00  0.00    +0.000 C 
BRANCH  15  19
ATOM     16  C   UNL     1      44.833   2.902   8.310  0.00  0.00    +0.000 C 
ATOM     17  C   UNL     1      44.098   4.224   8.574  0.00  0.00    +0.000 C 
ATOM     18  C   UNL     1      44.051   4.589  10.061  0.00  0.00    +0.000 C 
ATOM     19  N   UNL     1      43.506   3.517  10.915  0.00  0.00    +0.000 NA
ATOM     20  C   UNL     1      44.187   2.229  10.675  0.00  0.00    +0.000 C 
ATOM     21  C   UNL     1      44.193   1.830   9.196  0.00  0.00    +0.000 C 
BRANCH  16  22
ATOM     22  C   UNL     1      46.363   3.049   8.521  0.00  0.00    +0.000 C 
BRANCH  22  24
ATOM     23  C   UNL     1      47.249   1.124   7.311  0.00  0.00    +0.000 C 
ATOM     24  N   UNL     1      47.195   2.585   7.394  0.00  0.00    +0.000 NA
ATOM     25  C   UNL     1      46.677   3.125   6.131  0.00  0.00    +0.000 C 
ENDBRANCH  22  24
ENDBRANCH  16  22
ENDBRANCH  15  19
ENDBRANCH   1  15
TORSDOF 5
ENDMDL
MODEL 9
REMARK VINA RESULT:    -5.646      3.788      6.198
REMARK INTER + INTRA:          -7.162
REMARK INTER:                  -6.623
REMARK INTRA:                  -0.539
REMARK UNBOUND:                 0.134
REMARK  Name = 
REMARK  7 active torsions:
REMARK  status: ('A' for Active; 'I' for Inactive)
REMARK    1  A    between atoms: C_1  and  N_2
REMARK    2  A    between atoms: N_2  and  C_3
REMARK    3  A    between atoms: N_2  and  C_4
REMARK    4  A    between atoms: C_4  and  C_5
REMARK    5  A    between atoms: N_8  and  C_9
REMARK    6  A    between atoms: C_9  and  N_10
REMARK    7  A    between atoms: C_15  and  C_16
REMARK                            x       y       z     vdW  Elec       q    Type
REMARK                         _______ _______ _______ _____ _____    ______ ____
ROOT
ATOM      1  N   UNL     1      48.018   6.707  13.416  0.00  0.00    +0.000 N 
ATOM      2  C   UNL     1      47.957   7.604  12.384  0.00  0.00    +0.000 A 
ATOM      3  N   UNL     1      46.993   7.307  11.542  0.00  0.00    +0.000 NA
ATOM      4  C   UNL     1      46.394   6.183  12.058  0.00  0.00    +0.000 A 
ATOM      5  C   UNL     1      45.358   5.414  11.532  0.00  0.00    +0.000 A 
ATOM      6  C   UNL     1      44.984   4.319  12.296  0.00  0.00    +0.000 A 
ATOM      7  N   UNL     1      45.511   3.991  13.514  0.00  0.00    +0.000 NA
ATOM      8  C   UNL     1      46.510   4.750  14.017  0.00  0.00    +0.000 A 
ATOM      9  C   UNL     1      46.976   5.821  13.269  0.00  0.00    +0.000 A 
ENDROOT
BRANCH   6  10
ATOM     10  C   UNL     1      43.962   3.366  11.750  0.00  0.00    +0.000 C 
ATOM     11  N   UNL     1      43.731   2.257  12.516  0.00  0.00    +0.000 N 
ATOM     12  O   UNL     1      43.391   3.541  10.679  0.00  0.00    +0.000 OA
ATOM     13  H   UNL     1      44.270   2.118  13.364  0.00  0.00    +0.000 HD
ATOM     14  H   UNL     1      43.123   1.531  12.167  0.00  0.00    +0.000 HD
ENDBRANCH   6  10
BRANCH   1  15
ATOM     15  C   UNL     1      49.037   6.684  14.457  0.00  0.00    +0.000 C 
BRANCH  15  19
ATOM     16  C   UNL     1      48.794   7.619  18.678  0.00  0.00    +0.000 C 
ATOM     17  C   UNL     1      48.397   6.226  18.168  0.00  0.00    +0.000 C 
ATOM     18  C   UNL     1      48.867   5.964  16.734  0.00  0.00    +0.000 C 
ATOM     19  N   UNL     1      48.446   7.003  15.776  0.00  0.00    +0.000 NA
ATOM     20  C   UNL     1      48.806   8.356  16.245  0.00  0.00    +0.000 C 
ATOM     21  C   UNL     1      48.294   8.646  17.658  0.00  0.00    +0.000 C 
BRANCH  16  22
ATOM     22  C   UNL     1      50.318   7.711  18.955  0.00  0.00    +0.000 C 
BRANCH  22  24
ATOM     23  C   UNL     1      51.115   9.776  19.983  0.00  0.00    +0.000 C 
ATOM     24  N   UNL     1      50.683   8.395  20.210  0.00  0.00    +0.000 NA
ATOM     25  C   UNL     1      49.543   8.388  21.136  0.00  0.00    +0.000 C 
ENDBRANCH  22  24
ENDBRANCH  16  22
ENDBRANCH  15  19
ENDBRANCH   1  15
TORSDOF 5
ENDMDL
