MODEL 1
REMARK VINA RESULT:    -8.418      0.000      0.000
REMARK INTER + INTRA:         -12.365
REMARK INTER:                 -11.371
REMARK INTRA:                  -0.994
REMARK UNBOUND:                -0.994
REMARK  Name = 
REMARK  6 active torsions:
REMARK  status: ('A' for Active; 'I' for Inactive)
REMARK    1  A    between atoms: C_2  and  C_19
REMARK    2  A    between atoms: N_3  and  C_4
REMARK    3  A    between atoms: C_4  and  C_5
REMARK    4  A    between atoms: C_8  and  O_9
REMARK    5  A    between atoms: O_9  and  C_10
REMARK    6  A    between atoms: C_10  and  C_11
REMARK                            x       y       z     vdW  Elec       q    Type
REMARK                         _______ _______ _______ _____ _____    ______ ____
ROOT
ATOM      1  O   UNL     1      49.764   6.996  14.131  0.00  0.00    +0.000 OA
ATOM      2  C   UNL     1      48.825   6.806  14.899  0.00  0.00    +0.000 C 
ATOM      3  N   UNL     1      47.521   6.980  14.519  0.00  0.00    +0.000 N 
ATOM      4  H   UNL     1      46.790   6.990  15.223  0.00  0.00    +0.000 HD
ENDROOT
BRANCH   2   5
ATOM      5  C   UNL     1      49.043   6.309  16.262  0.00  0.00    +0.000 A 
ATOM      6  C   UNL     1      49.706   7.107  17.183  0.00  0.00    +0.000 A 
ATOM      7  S   UNL     1      49.902   6.373  18.709  0.00  0.00    +0.000 S 
ATOM      8  C   UNL     1      49.063   4.981  18.206  0.00  0.00    +0.000 A 
ATOM      9  N   UNL     1      48.843   3.950  19.066  0.00  0.00    +0.000 NA
ATOM     10  C   UNL     1      48.152   2.979  18.569  0.00  0.00    +0.000 A 
ATOM     11  N   UNL     1      47.676   2.937  17.285  0.00  0.00    +0.000 N 
ATOM     12  C   UNL     1      47.945   3.914  16.357  0.00  0.00    +0.000 A 
ATOM     13  O   UNL     1      47.627   3.780  15.181  0.00  0.00    +0.000 OA
ATOM     14  C   UNL     1      48.669   5.059  16.883  0.00  0.00    +0.000 A 
ATOM     15  H   UNL     1      47.169   2.131  16.950  0.00  0.00    +0.000 HD
ENDBRANCH   2   5
BRANCH   3  16
ATOM     16  C   UNL     1      47.159   7.445  13.207  0.00  0.00    +0.000 C 
BRANCH  16  17
ATOM     17  C   UNL     1      46.350   6.422  12.458  0.00  0.00    +0.000 A 
ATOM     18  C   UNL     1      46.079   6.585  11.093  0.00  0.00    +0.000 A 
ATOM     19  C   UNL     1      45.397   5.594  10.385  0.00  0.00    +0.000 A 
ATOM     20  C   UNL     1      44.978   4.430  11.031  0.00  0.00    +0.000 A 
ATOM     21  C   UNL     1      45.166   4.305  12.409  0.00  0.00    +0.000 A 
ATOM     22  C   UNL     1      45.852   5.293  13.117  0.00  0.00    +0.000 A 
BRANCH  20  23
ATOM     23  O   UNL     1      44.406   3.477  10.230  0.00  0.00    +0.000 OA
BRANCH  23  24
ATOM     24  C   UNL     1      44.449   3.767   8.830  0.00  0.00    +0.000 C 
BRANCH  24  25
ATOM     25  C   UNL     1      45.495   2.921   8.162  0.00  0.00    +0.000 A 
ATOM     26  C   UNL     1      46.406   3.472   7.256  0.00  0.00    +0.000 A 
ATOM     27  C   UNL     1      47.409   2.676   6.716  0.00  0.00    +0.000 A 
ATOM     28  C   UNL     1      47.471   1.348   7.105  0.00  0.00    +0.000 A 
ATOM     29  N   UNL     1      46.612   0.779   7.978  0.00  0.00    +0.000 NA
ATOM     30  C   UNL     1      45.646   1.578   8.484  0.00  0.00    +0.000 A 
ENDBRANCH  24  25
ENDBRANCH  23  24
ENDBRANCH  20  23
ENDBRANCH  16  17
ENDBRANCH   3  16
TORSDOF 6
ENDMDL
MODEL 2
REMARK VINA RESULT:    -8.137      1.314      1.503
REMARK INTER + INTRA:         -11.986
REMARK INTER:                 -11.100
REMARK INTRA:                  -0.886
REMARK UNBOUND:                -0.994
REMARK  Name = 
REMARK  6 active torsions:
REMARK  status: ('A' for Active; 'I' for Inactive)
REMARK    1  A    between atoms: C_2  and  C_19
REMARK    2  A    between atoms: N_3  and  C_4
REMARK    3  A    between atoms: C_4  and  C_5
REMARK    4  A    between atoms: C_8  and  O_9
REMARK    5  A    between atoms: O_9  and  C_10
REMARK    6  A    between atoms: C_10  and  C_11
REMARK                            x       y       z     vdW  Elec       q    Type
REMARK                         _______ _______ _______ _____ _____    ______ ____
ROOT
ATOM      1  O   UNL     1      50.319   6.572  15.470  0.00  0.00    +0.000 OA
ATOM      2  C   UNL     1      49.165   6.768  15.839  0.00  0.00    +0.000 C 
ATOM      3  N   UNL     1      48.121   6.870  14.958  0.00  0.00    +0.000 N 
ATOM      4  H   UNL     1      47.222   7.209  15.283  0.00  0.00    +0.000 HD
ENDROOT
BRANCH   2   5
ATOM      5  C   UNL     1      48.821   6.835  17.263  0.00  0.00    +0.000 A 
ATOM      6  C   UNL     1      48.358   8.030  17.799  0.00  0.00    +0.000 A 
ATOM      7  S   UNL     1      48.031   7.948  19.470  0.00  0.00    +0.000 S 
ATOM      8  C   UNL     1      48.449   6.301  19.526  0.00  0.00    +0.000 A 
ATOM      9  N   UNL     1      48.355   5.596  20.686  0.00  0.00    +0.000 NA
ATOM     10  C   UNL     1      48.657   4.345  20.576  0.00  0.00    +0.000 A 
ATOM     11  N   UNL     1      49.058   3.738  19.415  0.00  0.00    +0.000 N 
ATOM     12  C   UNL     1      49.248   4.425  18.241  0.00  0.00    +0.000 A 
ATOM     13  O   UNL     1      49.744   3.883  17.260  0.00  0.00    +0.000 OA
ATOM     14  C   UNL     1      48.866   5.825  18.296  0.00  0.00    +0.000 A 
ATOM     15  H   UNL     1      49.310   2.761  19.406  0.00  0.00    +0.000 HD
ENDBRANCH   2   5
BRANCH   3  16
ATOM     16  C   UNL     1      48.308   6.803  13.534  0.00  0.00    +0.000 C 
BRANCH  16  17
ATOM     17  C   UNL     1      47.196   6.046  12.862  0.00  0.00    +0.000 A 
ATOM     18  C   UNL     1      46.629   6.517  11.670  0.00  0.00    +0.000 A 
ATOM     19  C   UNL     1      45.654   5.769  11.009  0.00  0.00    +0.000 A 
ATOM     20  C   UNL     1      45.234   4.543  11.528  0.00  0.00    +0.000 A 
ATOM     21  C   UNL     1      45.731   4.115  12.761  0.00  0.00    +0.000 A 
ATOM     22  C   UNL     1      46.709   4.859  13.421  0.00  0.00    +0.000 A 
BRANCH  20  23
ATOM     23  O   UNL     1      44.347   3.841  10.756  0.00  0.00    +0.000 OA
BRANCH  23  24
ATOM     24  C   UNL     1      44.344   4.199   9.371  0.00  0.00    +0.000 C 
BRANCH  24  25
ATOM     25  C   UNL     1      45.230   3.266   8.597  0.00  0.00    +0.000 A 
ATOM     26  C   UNL     1      46.097   3.739   7.608  0.00  0.00    +0.000 A 
ATOM     27  C   UNL     1      46.958   2.857   6.965  0.00  0.00    +0.000 A 
ATOM     28  C   UNL     1      46.927   1.523   7.339  0.00  0.00    +0.000 A 
ATOM     29  N   UNL     1      46.107   1.028   8.291  0.00  0.00    +0.000 NA
ATOM     30  C   UNL     1      45.280   1.909   8.895  0.00  0.00    +0.000 A 
ENDBRANCH  24  25
ENDBRANCH  23  24
ENDBRANCH  20  23
ENDBRANCH  16  17
ENDBRANCH   3  16
TORSDOF 6
ENDMDL
MODEL 3
REMARK VINA RESULT:    -8.123      1.528      2.376
REMARK INTER + INTRA:         -11.967
REMARK INTER:                 -11.181
REMARK INTRA:                  -0.786
REMARK UNBOUND:                -0.994
REMARK  Name = 
REMARK  6 active torsions:
REMARK  status: ('A' for Active; 'I' for Inactive)
REMARK    1  A    between atoms: C_2  and  C_19
REMARK    2  A    between atoms: N_3  and  C_4
REMARK    3  A    between atoms: C_4  and  C_5
REMARK    4  A    between atoms: C_8  and  O_9
REMARK    5  A    between atoms: O_9  and  C_10
REMARK    6  A    between atoms: C_10  and  C_11
REMARK                            x       y       z     vdW  Elec       q    Type
REMARK                         _______ _______ _______ _____ _____    ______ ____
ROOT
ATOM      1  O   UNL     1      48.931   6.257  14.393  0.00  0.00    +0.000 OA
ATOM      2  C   UNL     1      47.929   5.765  14.902  0.00  0.00    +0.000 C 
ATOM      3  N   UNL     1      46.698   5.824  14.302  0.00  0.00    +0.000 N 
ATOM      4  H   UNL     1      45.870   5.569  14.831  0.00  0.00    +0.000 HD
ENDROOT
BRANCH   2   5
ATOM      5  C   UNL     1      48.002   5.016  16.161  0.00  0.00    +0.000 A 
ATOM      6  C   UNL     1      47.607   3.686  16.188  0.00  0.00    +0.000 A 
ATOM      7  S   UNL     1      47.726   2.970  17.731  0.00  0.00    +0.000 S 
ATOM      8  C   UNL     1      48.356   4.399  18.405  0.00  0.00    +0.000 A 
ATOM      9  N   UNL     1      48.713   4.453  19.717  0.00  0.00    +0.000 NA
ATOM     10  C   UNL     1      49.221   5.582  20.085  0.00  0.00    +0.000 A 
ATOM     11  N   UNL     1      49.390   6.667  19.264  0.00  0.00    +0.000 N 
ATOM     12  C   UNL     1      48.968   6.686  17.957  0.00  0.00    +0.000 A 
ATOM     13  O   UNL     1      49.002   7.715  17.293  0.00  0.00    +0.000 OA
ATOM     14  C   UNL     1      48.443   5.420  17.476  0.00  0.00    +0.000 A 
ATOM     15  H   UNL     1      49.765   7.531  19.625  0.00  0.00    +0.000 HD
ENDBRANCH   2   5
BRANCH   3  16
ATOM     16  C   UNL     1      46.482   6.509  13.057  0.00  0.00    +0.000 C 
BRANCH  16  17
ATOM     17  C   UNL     1      45.990   5.575  11.986  0.00  0.00    +0.000 A 
ATOM     18  C   UNL     1      45.524   4.295  12.314  0.00  0.00    +0.000 A 
ATOM     19  C   UNL     1      44.994   3.462  11.327  0.00  0.00    +0.000 A 
ATOM     20  C   UNL     1      44.923   3.898  10.002  0.00  0.00    +0.000 A 
ATOM     21  C   UNL     1      45.469   5.135   9.658  0.00  0.00    +0.000 A 
ATOM     22  C   UNL     1      45.994   5.970  10.644  0.00  0.00    +0.000 A 
BRANCH  20  23
ATOM     23  O   UNL     1      44.298   3.047   9.129  0.00  0.00    +0.000 OA
BRANCH  23  24
ATOM     24  C   UNL     1      44.984   1.814   8.898  0.00  0.00    +0.000 C 
BRANCH  24  25
ATOM     25  C   UNL     1      45.964   1.975   7.771  0.00  0.00    +0.000 A 
ATOM     26  C   UNL     1      45.857   3.030   6.860  0.00  0.00    +0.000 A 
ATOM     27  C   UNL     1      46.826   3.192   5.876  0.00  0.00    +0.000 A 
ATOM     28  C   UNL     1      47.876   2.290   5.837  0.00  0.00    +0.000 A 
ATOM     29  N   UNL     1      48.015   1.260   6.699  0.00  0.00    +0.000 NA
ATOM     30  C   UNL     1      47.057   1.127   7.643  0.00  0.00    +0.000 A 
ENDBRANCH  24  25
ENDBRANCH  23  24
ENDBRANCH  20  23
ENDBRANCH  16  17
ENDBRANCH   3  16
TORSDOF 6
ENDMDL
MODEL 4
REMARK VINA RESULT:    -7.748      2.081      2.789
REMARK INTER + INTRA:         -11.460
REMARK INTER:                 -10.332
REMARK INTRA:                  -1.129
REMARK UNBOUND:                -0.994
REMARK  Name = 
REMARK  6 active torsions:
REMARK  status: ('A' for Active; 'I' for Inactive)
REMARK    1  A    between atoms: C_2  and  C_19
REMARK    2  A    between atoms: N_3  and  C_4
REMARK    3  A    between atoms: C_4  and  C_5
REMARK    4  A    between atoms: C_8  and  O_9
REMARK    5  A    between atoms: O_9  and  C_10
REMARK    6  A    between atoms: C_10  and  C_11
REMARK                            x       y       z     vdW  Elec       q    Type
REMARK                         _______ _______ _______ _____ _____    ______ ____
ROOT
ATOM      1  O   UNL     1      50.260   6.140  15.839  0.00  0.00    +0.000 OA
ATOM      2  C   UNL     1      49.127   6.268  16.292  0.00  0.00    +0.000 C 
ATOM      3  N   UNL     1      48.059   6.614  15.506  0.00  0.00    +0.000 N 
ATOM      4  H   UNL     1      47.183   6.884  15.941  0.00  0.00    +0.000 HD
ENDROOT
BRANCH   2   5
ATOM      5  C   UNL     1      48.831   5.987  17.700  0.00  0.00    +0.000 A 
ATOM      6  C   UNL     1      49.075   4.719  18.210  0.00  0.00    +0.000 A 
ATOM      7  S   UNL     1      48.651   4.550  19.853  0.00  0.00    +0.000 S 
ATOM      8  C   UNL     1      48.174   6.179  19.953  0.00  0.00    +0.000 A 
ATOM      9  N   UNL     1      47.729   6.705  21.126  0.00  0.00    +0.000 NA
ATOM     10  C   UNL     1      47.446   7.964  21.073  0.00  0.00    +0.000 A 
ATOM     11  N   UNL     1      47.552   8.742  19.950  0.00  0.00    +0.000 N 
ATOM     12  C   UNL     1      47.915   8.236  18.725  0.00  0.00    +0.000 A 
ATOM     13  O   UNL     1      47.862   8.924  17.712  0.00  0.00    +0.000 OA
ATOM     14  C   UNL     1      48.302   6.836  18.743  0.00  0.00    +0.000 A 
ATOM     15  H   UNL     1      47.283   9.714  19.969  0.00  0.00    +0.000 HD
ENDBRANCH   2   5
BRANCH   3  16
ATOM     16  C   UNL     1      48.198   6.900  14.104  0.00  0.00    +0.000 C 
BRANCH  16  17
ATOM     17  C   UNL     1      47.244   6.086  13.273  0.00  0.00    +0.000 A 
ATOM     18  C   UNL     1      46.922   4.772  13.637  0.00  0.00    +0.000 A 
ATOM     19  C   UNL     1      45.976   4.049  12.908  0.00  0.00    +0.000 A 
ATOM     20  C   UNL     1      45.340   4.630  11.809  0.00  0.00    +0.000 A 
ATOM     21  C   UNL     1      45.725   5.904  11.390  0.00  0.00    +0.000 A 
ATOM     22  C   UNL     1      46.667   6.630  12.121  0.00  0.00    +0.000 A 
BRANCH  20  23
ATOM     23  O   UNL     1      44.359   3.875  11.222  0.00  0.00    +0.000 OA
BRANCH  23  24
ATOM     24  C   UNL     1      44.103   4.187   9.850  0.00  0.00    +0.000 C 
BRANCH  24  25
ATOM     25  C   UNL     1      45.024   3.400   8.963  0.00  0.00    +0.000 A 
ATOM     26  C   UNL     1      45.841   4.031   8.020  0.00  0.00    +0.000 A 
ATOM     27  C   UNL     1      46.737   3.278   7.269  0.00  0.00    +0.000 A 
ATOM     28  C   UNL     1      46.789   1.911   7.491  0.00  0.00    +0.000 A 
ATOM     29  N   UNL     1      46.019   1.266   8.393  0.00  0.00    +0.000 NA
ATOM     30  C   UNL     1      45.156   2.024   9.105  0.00  0.00    +0.000 A 
ENDBRANCH  24  25
ENDBRANCH  23  24
ENDBRANCH  20  23
ENDBRANCH  16  17
ENDBRANCH   3  16
TORSDOF 6
ENDMDL
MODEL 5
REMARK VINA RESULT:    -7.412      1.510      1.768
REMARK INTER + INTRA:         -11.006
REMARK INTER:                  -9.910
REMARK INTRA:                  -1.096
REMARK UNBOUND:                -0.994
REMARK  Name = 
REMARK  6 active torsions:
REMARK  status: ('A' for Active; 'I' for Inactive)
REMARK    1  A    between atoms: C_2  and  C_19
REMARK    2  A    between atoms: N_3  and  C_4
REMARK    3  A    between atoms: C_4  and  C_5
REMARK    4  A    between atoms: C_8  and  O_9
REMARK    5  A    between atoms: O_9  and  C_10
REMARK    6  A    between atoms: C_10  and  C_11
REMARK                            x       y       z     vdW  Elec       q    Type
REMARK                         _______ _______ _______ _____ _____    ______ ____
ROOT
ATOM      1  O   UNL     1      48.351   7.898  16.602  0.00  0.00    +0.000 OA
ATOM      2  C   UNL     1      48.921   7.009  15.976  0.00  0.00    +0.000 C 
ATOM      3  N   UNL     1      48.584   6.689  14.687  0.00  0.00    +0.000 N 
ATOM      4  H   UNL     1      48.948   5.839  14.270  0.00  0.00    +0.000 HD
ENDROOT
BRANCH   2   5
ATOM      5  C   UNL     1      50.054   6.277  16.551  0.00  0.00    +0.000 A 
ATOM      6  C   UNL     1      51.231   6.954  16.837  0.00  0.00    +0.000 A 
ATOM      7  S   UNL     1      52.458   5.955  17.472  0.00  0.00    +0.000 S 
ATOM      8  C   UNL     1      51.441   4.592  17.434  0.00  0.00    +0.000 A 
ATOM      9  N   UNL     1      51.876   3.384  17.886  0.00  0.00    +0.000 NA
ATOM     10  C   UNL     1      50.988   2.448  17.844  0.00  0.00    +0.000 A 
ATOM     11  N   UNL     1      49.709   2.605  17.378  0.00  0.00    +0.000 N 
ATOM     12  C   UNL     1      49.253   3.782  16.835  0.00  0.00    +0.000 A 
ATOM     13  O   UNL     1      48.154   3.850  16.296  0.00  0.00    +0.000 OA
ATOM     14  C   UNL     1      50.195   4.885  16.912  0.00  0.00    +0.000 A 
ATOM     15  H   UNL     1      49.074   1.822  17.343  0.00  0.00    +0.000 HD
ENDBRANCH   2   5
BRANCH   3  16
ATOM     16  C   UNL     1      47.505   7.337  13.992  0.00  0.00    +0.000 C 
BRANCH  16  17
ATOM     17  C   UNL     1      46.803   6.395  13.053  0.00  0.00    +0.000 A 
ATOM     18  C   UNL     1      46.328   5.157  13.507  0.00  0.00    +0.000 A 
ATOM     19  C   UNL     1      45.607   4.322  12.652  0.00  0.00    +0.000 A 
ATOM     20  C   UNL     1      45.351   4.712  11.336  0.00  0.00    +0.000 A 
ATOM     21  C   UNL     1      45.899   5.902  10.856  0.00  0.00    +0.000 A 
ATOM     22  C   UNL     1      46.616   6.741  11.711  0.00  0.00    +0.000 A 
BRANCH  20  23
ATOM     23  O   UNL     1      44.553   3.868  10.610  0.00  0.00    +0.000 OA
BRANCH  23  24
ATOM     24  C   UNL     1      44.509   4.144   9.207  0.00  0.00    +0.000 C 
BRANCH  24  25
ATOM     25  C   UNL     1      45.405   3.191   8.468  0.00  0.00    +0.000 A 
ATOM     26  C   UNL     1      46.291   3.640   7.485  0.00  0.00    +0.000 A 
ATOM     27  C   UNL     1      47.160   2.741   6.876  0.00  0.00    +0.000 A 
ATOM     28  C   UNL     1      47.116   1.416   7.277  0.00  0.00    +0.000 A 
ATOM     29  N   UNL     1      46.277   0.944   8.224  0.00  0.00    +0.000 NA
ATOM     30  C   UNL     1      45.443   1.841   8.795  0.00  0.00    +0.000 A 
ENDBRANCH  24  25
ENDBRANCH  23  24
ENDBRANCH  20  23
ENDBRANCH  16  17
ENDBRANCH   3  16
TORSDOF 6
ENDMDL
MODEL 6
REMARK VINA RESULT:    -7.023      3.364      8.039
REMARK INTER + INTRA:         -10.481
REMARK INTER:                  -9.476
REMARK INTRA:                  -1.005
REMARK UNBOUND:                -0.994
REMARK  Name = 
REMARK  6 active torsions:
REMARK  status: ('A' for Active; 'I' for Inactive)
REMARK    1  A    between atoms: C_2  and  C_19
REMARK    2  A    between atoms: N_3  and  C_4
REMARK    3  A    between atoms: C_4  and  C_5
REMARK    4  A    between atoms: C_8  and  O_9
REMARK    5  A    between atoms: O_9  and  C_10
REMARK    6  A    between atoms: C_10  and  C_11
REMARK                            x       y       z     vdW  Elec       q    Type
REMARK                         _______ _______ _______ _____ _____    ______ ____
ROOT
ATOM      1  O   UNL     1      45.615   7.843  11.783  0.00  0.00    +0.000 OA
ATOM      2  C   UNL     1      46.261   6.837  11.503  0.00  0.00    +0.000 C 
ATOM      3  N   UNL     1      47.579   6.693  11.847  0.00  0.00    +0.000 N 
ATOM      4  H   UNL     1      48.123   5.936  11.445  0.00  0.00    +0.000 HD
ENDROOT
BRANCH   2   5
ATOM      5  C   UNL     1      45.635   5.689  10.840  0.00  0.00    +0.000 A 
ATOM      6  C   UNL     1      45.809   5.510   9.474  0.00  0.00    +0.000 A 
ATOM      7  S   UNL     1      44.994   4.148   8.853  0.00  0.00    +0.000 S 
ATOM      8  C   UNL     1      44.421   3.720  10.397  0.00  0.00    +0.000 A 
ATOM      9  N   UNL     1      43.667   2.602  10.577  0.00  0.00    +0.000 NA
ATOM     10  C   UNL     1      43.340   2.370  11.805  0.00  0.00    +0.000 A 
ATOM     11  N   UNL     1      43.686   3.164  12.867  0.00  0.00    +0.000 N 
ATOM     12  C   UNL     1      44.373   4.345  12.724  0.00  0.00    +0.000 A 
ATOM     13  O   UNL     1      44.541   5.103  13.673  0.00  0.00    +0.000 OA
ATOM     14  C   UNL     1      44.815   4.622  11.368  0.00  0.00    +0.000 A 
ATOM     15  H   UNL     1      43.370   2.942  13.799  0.00  0.00    +0.000 HD
ENDBRANCH   2   5
BRANCH   3  16
ATOM     16  C   UNL     1      48.316   7.730  12.518  0.00  0.00    +0.000 C 
BRANCH  16  17
ATOM     17  C   UNL     1      48.882   7.252  13.827  0.00  0.00    +0.000 A 
ATOM     18  C   UNL     1      50.150   7.669  14.252  0.00  0.00    +0.000 A 
ATOM     19  C   UNL     1      50.636   7.288  15.504  0.00  0.00    +0.000 A 
ATOM     20  C   UNL     1      49.862   6.486  16.345  0.00  0.00    +0.000 A 
ATOM     21  C   UNL     1      48.638   5.994  15.888  0.00  0.00    +0.000 A 
ATOM     22  C   UNL     1      48.149   6.379  14.638  0.00  0.00    +0.000 A 
BRANCH  20  23
ATOM     23  O   UNL     1      50.386   6.248  17.588  0.00  0.00    +0.000 OA
BRANCH  23  24
ATOM     24  C   UNL     1      49.797   5.148  18.287  0.00  0.00    +0.000 C 
BRANCH  24  25
ATOM     25  C   UNL     1      50.491   3.870  17.910  0.00  0.00    +0.000 A 
ATOM     26  C   UNL     1      51.841   3.660  18.209  0.00  0.00    +0.000 A 
ATOM     27  C   UNL     1      52.430   2.436  17.914  0.00  0.00    +0.000 A 
ATOM     28  C   UNL     1      51.644   1.455  17.331  0.00  0.00    +0.000 A 
ATOM     29  N   UNL     1      50.338   1.618  17.029  0.00  0.00    +0.000 NA
ATOM     30  C   UNL     1      49.795   2.820  17.325  0.00  0.00    +0.000 A 
ENDBRANCH  24  25
ENDBRANCH  23  24
ENDBRANCH  20  23
ENDBRANCH  16  17
ENDBRANCH   3  16
TORSDOF 6
ENDMDL
MODEL 7
REMARK VINA RESULT:    -6.768      2.820      8.236
REMARK INTER + INTRA:         -10.136
REMARK INTER:                  -8.866
REMARK INTRA:                  -1.269
REMARK UNBOUND:                -0.994
REMARK  Name = 
REMARK  6 active torsions:
REMARK  status: ('A' for Active; 'I' for Inactive)
REMARK    1  A    between atoms: C_2  and  C_19
REMARK    2  A    between atoms: N_3  and  C_4
REMARK    3  A    between atoms: C_4  and  C_5
REMARK    4  A    between atoms: C_8  and  O_9
REMARK    5  A    between atoms: O_9  and  C_10
REMARK    6  A    between atoms: C_10  and  C_11
REMARK                            x       y       z     vdW  Elec       q    Type
REMARK                         _______ _______ _______ _____ _____    ______ ____
ROOT
ATOM      1  O   UNL     1      44.612   7.608  11.799  0.00  0.00    +0.000 OA
ATOM      2  C   UNL     1      45.336   6.632  11.626  0.00  0.00    +0.000 C 
ATOM      3  N   UNL     1      46.702   6.711  11.700  0.00  0.00    +0.000 N 
ATOM      4  H   UNL     1      47.267   5.933  11.375  0.00  0.00    +0.000 HD
ENDROOT
BRANCH   2   5
ATOM      5  C   UNL     1      44.775   5.297  11.397  0.00  0.00    +0.000 A 
ATOM      6  C   UNL     1      43.994   4.705  12.381  0.00  0.00    +0.000 A 
ATOM      7  S   UNL     1      43.444   3.145  11.970  0.00  0.00    +0.000 S 
ATOM      8  C   UNL     1      44.187   3.226  10.443  0.00  0.00    +0.000 A 
ATOM      9  N   UNL     1      44.072   2.201   9.555  0.00  0.00    +0.000 NA
ATOM     10  C   UNL     1      44.644   2.414   8.417  0.00  0.00    +0.000 A 
ATOM     11  N   UNL     1      45.335   3.552   8.091  0.00  0.00    +0.000 N 
ATOM     12  C   UNL     1      45.550   4.575   8.983  0.00  0.00    +0.000 A 
ATOM     13  O   UNL     1      46.292   5.512   8.710  0.00  0.00    +0.000 OA
ATOM     14  C   UNL     1      44.876   4.411  10.259  0.00  0.00    +0.000 A 
ATOM     15  H   UNL     1      45.787   3.641   7.194  0.00  0.00    +0.000 HD
ENDBRANCH   2   5
BRANCH   3  16
ATOM     16  C   UNL     1      47.388   7.952  11.937  0.00  0.00    +0.000 C 
BRANCH  16  17
ATOM     17  C   UNL     1      48.091   7.953  13.267  0.00  0.00    +0.000 A 
ATOM     18  C   UNL     1      47.717   8.855  14.272  0.00  0.00    +0.000 A 
ATOM     19  C   UNL     1      48.318   8.798  15.530  0.00  0.00    +0.000 A 
ATOM     20  C   UNL     1      49.297   7.841  15.801  0.00  0.00    +0.000 A 
ATOM     21  C   UNL     1      49.736   7.001  14.775  0.00  0.00    +0.000 A 
ATOM     22  C   UNL     1      49.133   7.054  13.518  0.00  0.00    +0.000 A 
BRANCH  20  23
ATOM     23  O   UNL     1      49.754   7.804  17.092  0.00  0.00    +0.000 OA
BRANCH  23  24
ATOM     24  C   UNL     1      48.881   7.152  18.018  0.00  0.00    +0.000 C 
BRANCH  24  25
ATOM     25  C   UNL     1      48.932   5.665  17.812  0.00  0.00    +0.000 A 
ATOM     26  C   UNL     1      47.821   4.956  17.347  0.00  0.00    +0.000 A 
ATOM     27  C   UNL     1      47.927   3.593  17.095  0.00  0.00    +0.000 A 
ATOM     28  C   UNL     1      49.150   2.981  17.314  0.00  0.00    +0.000 A 
ATOM     29  N   UNL     1      50.246   3.630  17.761  0.00  0.00    +0.000 NA
ATOM     30  C   UNL     1      50.111   4.954  17.999  0.00  0.00    +0.000 A 
ENDBRANCH  24  25
ENDBRANCH  23  24
ENDBRANCH  20  23
ENDBRANCH  16  17
ENDBRANCH   3  16
TORSDOF 6
ENDMDL
MODEL 8
REMARK VINA RESULT:    -6.609      3.894      8.604
REMARK INTER + INTRA:          -9.921
REMARK INTER:                  -8.934
REMARK INTRA:                  -0.987
REMARK UNBOUND:                -0.994
REMARK  Name = 
REMARK  6 active torsions:
REMARK  status: ('A' for Active; 'I' for Inactive)
REMARK    1  A    between atoms: C_2  and  C_19
REMARK    2  A    between atoms: N_3  and  C_4
REMARK    3  A    between atoms: C_4  and  C_5
REMARK    4  A    between atoms: C_8  and  O_9
REMARK    5  A    between atoms: O_9  and  C_10
REMARK    6  A    between atoms: C_10  and  C_11
REMARK                            x       y       z     vdW  Elec       q    Type
REMARK                         _______ _______ _______ _____ _____    ______ ____
ROOT
ATOM      1  O   UNL     1      47.324   3.253  13.711  0.00  0.00    +0.000 OA
ATOM      2  C   UNL     1      46.779   4.211  14.251  0.00  0.00    +0.000 C 
ATOM      3  N   UNL     1      46.791   4.392  15.609  0.00  0.00    +0.000 N 
ATOM      4  H   UNL     1      46.182   5.088  16.027  0.00  0.00    +0.000 HD
ENDROOT
BRANCH   2   5
ATOM      5  C   UNL     1      46.135   5.267  13.461  0.00  0.00    +0.000 A 
ATOM      6  C   UNL     1      46.804   6.464  13.246  0.00  0.00    +0.000 A 
ATOM      7  S   UNL     1      45.909   7.594  12.336  0.00  0.00    +0.000 S 
ATOM      8  C   UNL     1      44.616   6.503  12.156  0.00  0.00    +0.000 A 
ATOM      9  N   UNL     1      43.513   6.842  11.434  0.00  0.00    +0.000 NA
ATOM     10  C   UNL     1      42.630   5.905  11.337  0.00  0.00    +0.000 A 
ATOM     11  N   UNL     1      42.742   4.665  11.910  0.00  0.00    +0.000 N 
ATOM     12  C   UNL     1      43.796   4.308  12.716  0.00  0.00    +0.000 A 
ATOM     13  O   UNL     1      43.797   3.246  13.328  0.00  0.00    +0.000 OA
ATOM     14  C   UNL     1      44.846   5.306  12.809  0.00  0.00    +0.000 A 
ATOM     15  H   UNL     1      41.999   3.988  11.822  0.00  0.00    +0.000 HD
ENDBRANCH   2   5
BRANCH   3  16
ATOM     16  C   UNL     1      47.401   3.447  16.504  0.00  0.00    +0.000 C 
BRANCH  16  17
ATOM     17  C   UNL     1      48.734   3.934  17.002  0.00  0.00    +0.000 A 
ATOM     18  C   UNL     1      49.741   3.026  17.356  0.00  0.00    +0.000 A 
ATOM     19  C   UNL     1      51.002   3.483  17.740  0.00  0.00    +0.000 A 
ATOM     20  C   UNL     1      51.273   4.853  17.776  0.00  0.00    +0.000 A 
ATOM     21  C   UNL     1      50.247   5.762  17.512  0.00  0.00    +0.000 A 
ATOM     22  C   UNL     1      48.987   5.305  17.123  0.00  0.00    +0.000 A 
BRANCH  20  23
ATOM     23  O   UNL     1      52.566   5.196  18.070  0.00  0.00    +0.000 OA
BRANCH  23  24
ATOM     24  C   UNL     1      52.984   6.461  17.552  0.00  0.00    +0.000 C 
BRANCH  24  25
ATOM     25  C   UNL     1      53.961   6.259  16.429  0.00  0.00    +0.000 A 
ATOM     26  C   UNL     1      54.937   5.260  16.485  0.00  0.00    +0.000 A 
ATOM     27  C   UNL     1      55.775   5.051  15.396  0.00  0.00    +0.000 A 
ATOM     28  C   UNL     1      55.605   5.852  14.278  0.00  0.00    +0.000 A 
ATOM     29  N   UNL     1      54.674   6.825  14.184  0.00  0.00    +0.000 NA
ATOM     30  C   UNL     1      53.876   7.005  15.260  0.00  0.00    +0.000 A 
ENDBRANCH  24  25
ENDBRANCH  23  24
ENDBRANCH  20  23
ENDBRANCH  16  17
ENDBRANCH   3  16
TORSDOF 6
ENDMDL
