MODEL 1
REMARK VINA RESULT:    -8.002      0.000      0.000
REMARK INTER + INTRA:         -10.503
REMARK INTER:                 -10.575
REMARK INTRA:                   0.072
REMARK UNBOUND:                 0.072
REMARK  Name = 
REMARK  8 active torsions:
REMARK  status: ('A' for Active; 'I' for Inactive)
REMARK    1  A    between atoms: C_1  and  C_2
REMARK    2  A    between atoms: C_2  and  C_3
REMARK    3  A    between atoms: C_2  and  N_4
REMARK    4  A    between atoms: C_2  and  C_5
REMARK    5  A    between atoms: C_8  and  C_9
REMARK    6  A    between atoms: C_9  and  N_10
REMARK    7  A    between atoms: N_10  and  C_11
REMARK    8  A    between atoms: C_14  and  C_15
REMARK                            x       y       z     vdW  Elec       q    Type
REMARK                         _______ _______ _______ _____ _____    ______ ____
ROOT
ATOM      1  C   UNL     1      43.934   4.950  11.183  0.00  0.00    +0.000 C 
ENDROOT
BRANCH   1   5
ATOM      2  C   UNL     1      47.292   6.517  13.339  0.00  0.00    +0.000 A 
ATOM      3  N   UNL     1      46.589   5.457  13.831  0.00  0.00    +0.000 NA
ATOM      4  C   UNL     1      45.550   4.989  13.099  0.00  0.00    +0.000 A 
ATOM      5  C   UNL     1      45.151   5.510  11.872  0.00  0.00    +0.000 A 
ATOM      6  C   UNL     1      45.870   6.605  11.390  0.00  0.00    +0.000 A 
ATOM      7  C   UNL     1      46.947   7.102  12.119  0.00  0.00    +0.000 A 
ATOM      8  F   UNL     1      47.625   8.144  11.620  0.00  0.00    +0.000 F 
BRANCH   2  10
ATOM      9  C   UNL     1      48.582   6.272  15.496  0.00  0.00    +0.000 C 
ATOM     10  C   UNL     1      48.458   7.060  14.180  0.00  0.00    +0.000 C 
ATOM     11  C   UNL     1      48.259   8.550  14.538  0.00  0.00    +0.000 C 
BRANCH  10  12
ATOM     12  N   UNL     1      49.736   6.967  13.444  0.00  0.00    +0.000 NA
ATOM     13  H   UNL     1      49.551   6.796  12.458  0.00  0.00    +0.000 HD
ATOM     14  H   UNL     1      50.246   6.150  13.783  0.00  0.00    +0.000 HD
ENDBRANCH  10  12
ENDBRANCH   2  10
ENDBRANCH   1   5
BRANCH   1  15
ATOM     15  N   UNL     1      44.036   5.065   9.731  0.00  0.00    +0.000 N 
ATOM     16  H   UNL     1      44.364   5.982   9.434  0.00  0.00    +0.000 HD
BRANCH  15  17
ATOM     17  C   UNL     1      44.830   4.068   9.131  0.00  0.00    +0.000 A 
ATOM     18  N   UNL     1      45.689   4.416   8.140  0.00  0.00    +0.000 NA
ATOM     19  C   UNL     1      46.419   3.415   7.582  0.00  0.00    +0.000 A 
ATOM     20  C   UNL     1      46.316   2.098   8.001  0.00  0.00    +0.000 A 
ATOM     21  N   UNL     1      45.492   1.710   9.011  0.00  0.00    +0.000 NA
ATOM     22  C   UNL     1      44.772   2.720   9.556  0.00  0.00    +0.000 A 
ATOM     23 CL   UNL     1      43.718   2.201  10.814  0.00  0.00    +0.000 Cl
BRANCH  20  24
ATOM     24  C   UNL     1      47.098   1.040   7.310  0.00  0.00    +0.000 C 
ATOM     25  N   UNL     1      46.774  -0.247   7.643  0.00  0.00    +0.000 N 
ATOM     26  O   UNL     1      47.964   1.302   6.487  0.00  0.00    +0.000 OA
ATOM     27  H   UNL     1      46.038  -0.432   8.317  0.00  0.00    +0.000 HD
ATOM     28  H   UNL     1      47.246  -1.015   7.185  0.00  0.00    +0.000 HD
ENDBRANCH  20  24
ENDBRANCH  15  17
ENDBRANCH   1  15
TORSDOF 6
ENDMDL
MODEL 2
REMARK VINA RESULT:    -7.980      3.188      6.823
REMARK INTER + INTRA:         -10.473
REMARK INTER:                 -10.733
REMARK INTRA:                   0.260
REMARK UNBOUND:                 0.072
REMARK  Name = 
REMARK  8 active torsions:
REMARK  status: ('A' for Active; 'I' for Inactive)
REMARK    1  A    between atoms: C_1  and  C_2
REMARK    2  A    between atoms: C_2  and  C_3
REMARK    3  A    between atoms: C_2  and  N_4
REMARK    4  A    between atoms: C_2  and  C_5
REMARK    5  A    between atoms: C_8  and  C_9
REMARK    6  A    between atoms: C_9  and  N_10
REMARK    7  A    between atoms: N_10  and  C_11
REMARK    8  A    between atoms: C_14  and  C_15
REMARK                            x       y       z     vdW  Elec       q    Type
REMARK                         _______ _______ _______ _____ _____    ______ ____
ROOT
ATOM      1  C   UNL     1      43.815   5.099  10.329  0.00  0.00    +0.000 C 
ENDROOT
BRANCH   1   5
ATOM      2  C   UNL     1      46.377   2.942   7.652  0.00  0.00    +0.000 A 
ATOM      3  N   UNL     1      46.417   4.304   7.698  0.00  0.00    +0.000 NA
ATOM      4  C   UNL     1      45.601   4.934   8.577  0.00  0.00    +0.000 A 
ATOM      5  C   UNL     1      44.726   4.287   9.445  0.00  0.00    +0.000 A 
ATOM      6  C   UNL     1      44.685   2.894   9.374  0.00  0.00    +0.000 A 
ATOM      7  C   UNL     1      45.518   2.221   8.484  0.00  0.00    +0.000 A 
ATOM      8  F   UNL     1      45.464   0.883   8.453  0.00  0.00    +0.000 F 
BRANCH   2  10
ATOM      9  C   UNL     1      46.749   2.414   5.210  0.00  0.00    +0.000 C 
ATOM     10  C   UNL     1      47.287   2.229   6.640  0.00  0.00    +0.000 C 
ATOM     11  C   UNL     1      47.376   0.712   6.920  0.00  0.00    +0.000 C 
BRANCH  10  12
ATOM     12  N   UNL     1      48.668   2.754   6.702  0.00  0.00    +0.000 NA
ATOM     13  H   UNL     1      48.715   3.513   7.379  0.00  0.00    +0.000 HD
ATOM     14  H   UNL     1      48.898   3.166   5.797  0.00  0.00    +0.000 HD
ENDBRANCH  10  12
ENDBRANCH   2  10
ENDBRANCH   1   5
BRANCH   1  15
ATOM     15  N   UNL     1      44.548   6.133  11.053  0.00  0.00    +0.000 N 
ATOM     16  H   UNL     1      43.946   6.892  11.366  0.00  0.00    +0.000 HD
BRANCH  15  17
ATOM     17  C   UNL     1      45.296   5.648  12.145  0.00  0.00    +0.000 A 
ATOM     18  N   UNL     1      46.617   5.947  12.224  0.00  0.00    +0.000 NA
ATOM     19  C   UNL     1      47.296   5.440  13.286  0.00  0.00    +0.000 A 
ATOM     20  C   UNL     1      46.684   4.667  14.259  0.00  0.00    +0.000 A 
ATOM     21  N   UNL     1      45.358   4.369  14.236  0.00  0.00    +0.000 NA
ATOM     22  C   UNL     1      44.695   4.882  13.171  0.00  0.00    +0.000 A 
ATOM     23 CL   UNL     1      43.023   4.471  13.148  0.00  0.00    +0.000 Cl
BRANCH  20  24
ATOM     24  C   UNL     1      47.496   4.093  15.365  0.00  0.00    +0.000 C 
ATOM     25  N   UNL     1      47.588   4.864  16.492  0.00  0.00    +0.000 N 
ATOM     26  O   UNL     1      48.034   2.998  15.279  0.00  0.00    +0.000 OA
ATOM     27  H   UNL     1      47.115   5.761  16.539  0.00  0.00    +0.000 HD
ATOM     28  H   UNL     1      48.097   4.518  17.293  0.00  0.00    +0.000 HD
ENDBRANCH  20  24
ENDBRANCH  15  17
ENDBRANCH   1  15
TORSDOF 6
ENDMDL
MODEL 3
REMARK VINA RESULT:    -7.889      1.793      2.111
REMARK INTER + INTRA:         -10.354
REMARK INTER:                 -10.001
REMARK INTRA:                  -0.352
REMARK UNBOUND:                 0.072
REMARK  Name = 
REMARK  8 active torsions:
REMARK  status: ('A' for Active; 'I' for Inactive)
REMARK    1  A    between atoms: C_1  and  C_2
REMARK    2  A    between atoms: C_2  and  C_3
REMARK    3  A    between atoms: C_2  and  N_4
REMARK    4  A    between atoms: C_2  and  C_5
REMARK    5  A    between atoms: C_8  and  C_9
REMARK    6  A    between atoms: C_9  and  N_10
REMARK    7  A    between atoms: N_10  and  C_11
REMARK    8  A    between atoms: C_14  and  C_15
REMARK                            x       y       z     vdW  Elec       q    Type
REMARK                         _______ _______ _______ _____ _____    ______ ____
ROOT
ATOM      1  C   UNL     1      44.091   4.997  11.229  0.00  0.00    +0.000 C 
ENDROOT
BRANCH   1   5
ATOM      2  C   UNL     1      46.801   8.149  12.278  0.00  0.00    +0.000 A 
ATOM      3  N   UNL     1      45.525   8.435  11.892  0.00  0.00    +0.000 NA
ATOM      4  C   UNL     1      44.705   7.400  11.592  0.00  0.00    +0.000 A 
ATOM      5  C   UNL     1      45.070   6.059  11.656  0.00  0.00    +0.000 A 
ATOM      6  C   UNL     1      46.384   5.783  12.037  0.00  0.00    +0.000 A 
ATOM      7  C   UNL     1      47.246   6.827  12.358  0.00  0.00    +0.000 A 
ATOM      8  F   UNL     1      48.496   6.526  12.734  0.00  0.00    +0.000 F 
BRANCH   2  10
ATOM      9  C   UNL     1      48.927   9.344  11.623  0.00  0.00    +0.000 C 
ATOM     10  C   UNL     1      47.737   9.324  12.599  0.00  0.00    +0.000 C 
ATOM     11  C   UNL     1      48.304   9.229  14.033  0.00  0.00    +0.000 C 
BRANCH  10  12
ATOM     12  N   UNL     1      47.024  10.615  12.509  0.00  0.00    +0.000 NA
ATOM     13  H   UNL     1      47.432  11.180  11.766  0.00  0.00    +0.000 HD
ATOM     14  H   UNL     1      47.179  11.132  13.375  0.00  0.00    +0.000 HD
ENDBRANCH  10  12
ENDBRANCH   2  10
ENDBRANCH   1   5
BRANCH   1  15
ATOM     15  N   UNL     1      43.894   4.996   9.782  0.00  0.00    +0.000 N 
ATOM     16  H   UNL     1      43.906   5.933   9.386  0.00  0.00    +0.000 HD
BRANCH  15  17
ATOM     17  C   UNL     1      44.805   4.181   9.081  0.00  0.00    +0.000 A 
ATOM     18  N   UNL     1      45.650   4.754   8.187  0.00  0.00    +0.000 NA
ATOM     19  C   UNL     1      46.496   3.922   7.524  0.00  0.00    +0.000 A 
ATOM     20  C   UNL     1      46.519   2.555   7.746  0.00  0.00    +0.000 A 
ATOM     21  N   UNL     1      45.712   1.943   8.653  0.00  0.00    +0.000 NA
ATOM     22  C   UNL     1      44.875   2.786   9.305  0.00  0.00    +0.000 A 
ATOM     23 CL   UNL     1      43.846   1.986  10.430  0.00  0.00    +0.000 Cl
BRANCH  20  24
ATOM     24  C   UNL     1      47.427   1.692   6.944  0.00  0.00    +0.000 C 
ATOM     25  N   UNL     1      48.516   2.321   6.406  0.00  0.00    +0.000 N 
ATOM     26  O   UNL     1      47.221   0.497   6.788  0.00  0.00    +0.000 OA
ATOM     27  H   UNL     1      48.669   3.311   6.569  0.00  0.00    +0.000 HD
ATOM     28  H   UNL     1      49.191   1.785   5.878  0.00  0.00    +0.000 HD
ENDBRANCH  20  24
ENDBRANCH  15  17
ENDBRANCH   1  15
TORSDOF 6
ENDMDL
MODEL 4
REMARK VINA RESULT:    -7.594      3.233      6.859
REMARK INTER + INTRA:          -9.964
REMARK INTER:                  -9.710
REMARK INTRA:                  -0.253
REMARK UNBOUND:                 0.072
REMARK  Name = 
REMARK  8 active torsions:
REMARK  status: ('A' for Active; 'I' for Inactive)
REMARK    1  A    between atoms: C_1  and  C_2
REMARK    2  A    between atoms: C_2  and  C_3
REMARK    3  A    between atoms: C_2  and  N_4
REMARK    4  A    between atoms: C_2  and  C_5
REMARK    5  A    between atoms: C_8  and  C_9
REMARK    6  A    between atoms: C_9  and  N_10
REMARK    7  A    between atoms: N_10  and  C_11
REMARK    8  A    between atoms: C_14  and  C_15
REMARK                            x       y       z     vdW  Elec       q    Type
REMARK                         _______ _______ _______ _____ _____    ______ ____
ROOT
ATOM      1  C   UNL     1      43.925   5.234  10.782  0.00  0.00    +0.000 C 
ENDROOT
BRANCH   1   5
ATOM      2  C   UNL     1      46.261   3.074   7.907  0.00  0.00    +0.000 A 
ATOM      3  N   UNL     1      46.367   4.430   8.005  0.00  0.00    +0.000 NA
ATOM      4  C   UNL     1      45.622   5.059   8.944  0.00  0.00    +0.000 A 
ATOM      5  C   UNL     1      44.757   4.418   9.825  0.00  0.00    +0.000 A 
ATOM      6  C   UNL     1      44.646   3.033   9.702  0.00  0.00    +0.000 A 
ATOM      7  C   UNL     1      45.406   2.360   8.750  0.00  0.00    +0.000 A 
ATOM      8  F   UNL     1      45.287   1.028   8.668  0.00  0.00    +0.000 F 
BRANCH   2  10
ATOM      9  C   UNL     1      46.436   2.538   5.446  0.00  0.00    +0.000 C 
ATOM     10  C   UNL     1      47.091   2.363   6.828  0.00  0.00    +0.000 C 
ATOM     11  C   UNL     1      47.212   0.848   7.106  0.00  0.00    +0.000 C 
BRANCH  10  12
ATOM     12  N   UNL     1      48.468   2.897   6.775  0.00  0.00    +0.000 NA
ATOM     13  H   UNL     1      48.908   2.797   7.688  0.00  0.00    +0.000 HD
ATOM     14  H   UNL     1      48.420   3.900   6.591  0.00  0.00    +0.000 HD
ENDBRANCH  10  12
ENDBRANCH   2  10
ENDBRANCH   1   5
BRANCH   1  15
ATOM     15  N   UNL     1      44.353   5.044  12.164  0.00  0.00    +0.000 N 
ATOM     16  H   UNL     1      44.378   4.063  12.434  0.00  0.00    +0.000 HD
BRANCH  15  17
ATOM     17  C   UNL     1      45.591   5.644  12.469  0.00  0.00    +0.000 A 
ATOM     18  N   UNL     1      45.756   6.971  12.237  0.00  0.00    +0.000 NA
ATOM     19  C   UNL     1      46.974   7.497  12.531  0.00  0.00    +0.000 A 
ATOM     20  C   UNL     1      48.005   6.735  13.055  0.00  0.00    +0.000 A 
ATOM     21  N   UNL     1      47.875   5.411  13.331  0.00  0.00    +0.000 NA
ATOM     22  C   UNL     1      46.655   4.902  13.032  0.00  0.00    +0.000 A 
ATOM     23 CL   UNL     1      46.521   3.218  13.366  0.00  0.00    +0.000 Cl
BRANCH  20  24
ATOM     24  C   UNL     1      49.333   7.359  13.298  0.00  0.00    +0.000 C 
ATOM     25  N   UNL     1      50.231   7.256  12.271  0.00  0.00    +0.000 N 
ATOM     26  O   UNL     1      49.600   7.937  14.342  0.00  0.00    +0.000 OA
ATOM     27  H   UNL     1      49.973   6.785  11.409  0.00  0.00    +0.000 HD
ATOM     28  H   UNL     1      51.141   7.687  12.358  0.00  0.00    +0.000 HD
ENDBRANCH  20  24
ENDBRANCH  15  17
ENDBRANCH   1  15
TORSDOF 6
ENDMDL
MODEL 5
REMARK VINA RESULT:    -7.516      3.009      7.037
REMARK INTER + INTRA:          -9.860
REMARK INTER:                  -9.290
REMARK INTRA:                  -0.569
REMARK UNBOUND:                 0.072
REMARK  Name = 
REMARK  8 active torsions:
REMARK  status: ('A' for Active; 'I' for Inactive)
REMARK    1  A    between atoms: C_1  and  C_2
REMARK    2  A    between atoms: C_2  and  C_3
REMARK    3  A    between atoms: C_2  and  N_4
REMARK    4  A    between atoms: C_2  and  C_5
REMARK    5  A    between atoms: C_8  and  C_9
REMARK    6  A    between atoms: C_9  and  N_10
REMARK    7  A    between atoms: N_10  and  C_11
REMARK    8  A    between atoms: C_14  and  C_15
REMARK                            x       y       z     vdW  Elec       q    Type
REMARK                         _______ _______ _______ _____ _____    ______ ____
ROOT
ATOM      1  C   UNL     1      43.575   4.012  10.978  0.00  0.00    +0.000 C 
ENDROOT
BRANCH   1   5
ATOM      2  C   UNL     1      46.079   2.540   7.824  0.00  0.00    +0.000 A 
ATOM      3  N   UNL     1      45.376   1.674   8.609  0.00  0.00    +0.000 NA
ATOM      4  C   UNL     1      44.585   2.194   9.577  0.00  0.00    +0.000 A 
ATOM      5  C   UNL     1      44.431   3.555   9.824  0.00  0.00    +0.000 A 
ATOM      6  C   UNL     1      45.169   4.427   9.023  0.00  0.00    +0.000 A 
ATOM      7  C   UNL     1      45.985   3.920   8.016  0.00  0.00    +0.000 A 
ATOM      8  F   UNL     1      46.668   4.786   7.256  0.00  0.00    +0.000 F 
BRANCH   2  10
ATOM      9  C   UNL     1      48.433   2.462   6.914  0.00  0.00    +0.000 C 
ATOM     10  C   UNL     1      46.992   1.949   6.739  0.00  0.00    +0.000 C 
ATOM     11  C   UNL     1      46.521   2.337   5.320  0.00  0.00    +0.000 C 
BRANCH  10  12
ATOM     12  N   UNL     1      47.002   0.472   6.795  0.00  0.00    +0.000 NA
ATOM     13  H   UNL     1      46.684   0.163   7.712  0.00  0.00    +0.000 HD
ATOM     14  H   UNL     1      47.966   0.150   6.705  0.00  0.00    +0.000 HD
ENDBRANCH  10  12
ENDBRANCH   2  10
ENDBRANCH   1   5
BRANCH   1  15
ATOM     15  N   UNL     1      44.302   3.957  12.242  0.00  0.00    +0.000 N 
ATOM     16  H   UNL     1      44.940   3.166  12.292  0.00  0.00    +0.000 HD
BRANCH  15  17
ATOM     17  C   UNL     1      45.000   5.141  12.554  0.00  0.00    +0.000 A 
ATOM     18  N   UNL     1      44.468   6.335  12.192  0.00  0.00    +0.000 NA
ATOM     19  C   UNL     1      45.190   7.445  12.500  0.00  0.00    +0.000 A 
ATOM     20  C   UNL     1      46.404   7.381  13.164  0.00  0.00    +0.000 A 
ATOM     21  N   UNL     1      46.959   6.209  13.572  0.00  0.00    +0.000 NA
ATOM     22  C   UNL     1      46.227   5.112  13.258  0.00  0.00    +0.000 A 
ATOM     23 CL   UNL     1      46.960   3.638  13.762  0.00  0.00    +0.000 Cl
BRANCH  20  24
ATOM     24  C   UNL     1      47.173   8.628  13.419  0.00  0.00    +0.000 C 
ATOM     25  N   UNL     1      47.404   8.920  14.735  0.00  0.00    +0.000 N 
ATOM     26  O   UNL     1      47.584   9.337  12.511  0.00  0.00    +0.000 OA
ATOM     27  H   UNL     1      47.066   8.302  15.465  0.00  0.00    +0.000 HD
ATOM     28  H   UNL     1      47.950   9.737  14.976  0.00  0.00    +0.000 HD
ENDBRANCH  20  24
ENDBRANCH  15  17
ENDBRANCH   1  15
TORSDOF 6
ENDMDL
MODEL 6
REMARK VINA RESULT:    -7.334      2.913      6.879
REMARK INTER + INTRA:          -9.620
REMARK INTER:                  -9.665
REMARK INTRA:                   0.045
REMARK UNBOUND:                 0.072
REMARK  Name = 
REMARK  8 active torsions:
REMARK  status: ('A' for Active; 'I' for Inactive)
REMARK    1  A    between atoms: C_1  and  C_2
REMARK    2  A    between atoms: C_2  and  C_3
REMARK    3  A    between atoms: C_2  and  N_4
REMARK    4  A    between atoms: C_2  and  C_5
REMARK    5  A    between atoms: C_8  and  C_9
REMARK    6  A    between atoms: C_9  and  N_10
REMARK    7  A    between atoms: N_10  and  C_11
REMARK    8  A    between atoms: C_14  and  C_15
REMARK                            x       y       z     vdW  Elec       q    Type
REMARK                         _______ _______ _______ _____ _____    ______ ____
ROOT
ATOM      1  C   UNL     1      43.594   4.370  10.693  0.00  0.00    +0.000 C 
ENDROOT
BRANCH   1   5
ATOM      2  C   UNL     1      46.168   2.583   7.765  0.00  0.00    +0.000 A 
ATOM      3  N   UNL     1      45.327   1.810   8.511  0.00  0.00    +0.000 NA
ATOM      4  C   UNL     1      44.521   2.428   9.406  0.00  0.00    +0.000 A 
ATOM      5  C   UNL     1      44.483   3.803   9.616  0.00  0.00    +0.000 A 
ATOM      6  C   UNL     1      45.360   4.580   8.858  0.00  0.00    +0.000 A 
ATOM      7  C   UNL     1      46.195   3.970   7.925  0.00  0.00    +0.000 A 
ATOM      8  F   UNL     1      47.014   4.747   7.203  0.00  0.00    +0.000 F 
BRANCH   2  10
ATOM      9  C   UNL     1      46.708   2.249   5.322  0.00  0.00    +0.000 C 
ATOM     10  C   UNL     1      47.096   1.879   6.765  0.00  0.00    +0.000 C 
ATOM     11  C   UNL     1      47.018   0.342   6.896  0.00  0.00    +0.000 C 
BRANCH  10  12
ATOM     12  N   UNL     1      48.508   2.254   6.990  0.00  0.00    +0.000 NA
ATOM     13  H   UNL     1      48.597   2.723   7.890  0.00  0.00    +0.000 HD
ATOM     14  H   UNL     1      48.777   2.941   6.285  0.00  0.00    +0.000 HD
ENDBRANCH  10  12
ENDBRANCH   2  10
ENDBRANCH   1   5
BRANCH   1  15
ATOM     15  N   UNL     1      43.886   3.783  11.997  0.00  0.00    +0.000 N 
ATOM     16  H   UNL     1      44.006   2.774  11.953  0.00  0.00    +0.000 HD
BRANCH  15  17
ATOM     17  C   UNL     1      44.996   4.358  12.648  0.00  0.00    +0.000 A 
ATOM     18  N   UNL     1      45.841   3.554  13.342  0.00  0.00    +0.000 NA
ATOM     19  C   UNL     1      46.886   4.159  13.967  0.00  0.00    +0.000 A 
ATOM     20  C   UNL     1      47.102   5.526  13.898  0.00  0.00    +0.000 A 
ATOM     21  N   UNL     1      46.299   6.363  13.189  0.00  0.00    +0.000 NA
ATOM     22  C   UNL     1      45.263   5.744  12.573  0.00  0.00    +0.000 A 
ATOM     23 CL   UNL     1      44.245   6.827  11.702  0.00  0.00    +0.000 Cl
BRANCH  20  24
ATOM     24  C   UNL     1      48.230   6.134  14.653  0.00  0.00    +0.000 C 
ATOM     25  N   UNL     1      48.135   6.060  16.016  0.00  0.00    +0.000 N 
ATOM     26  O   UNL     1      49.185   6.653  14.092  0.00  0.00    +0.000 OA
ATOM     27  H   UNL     1      47.338   5.607  16.451  0.00  0.00    +0.000 HD
ATOM     28  H   UNL     1      48.884   6.425  16.588  0.00  0.00    +0.000 HD
ENDBRANCH  20  24
ENDBRANCH  15  17
ENDBRANCH   1  15
TORSDOF 6
ENDMDL
MODEL 7
REMARK VINA RESULT:    -7.140      4.364      7.903
REMARK INTER + INTRA:          -9.364
REMARK INTER:                  -8.830
REMARK INTRA:                  -0.533
REMARK UNBOUND:                 0.072
REMARK  Name = 
REMARK  8 active torsions:
REMARK  status: ('A' for Active; 'I' for Inactive)
REMARK    1  A    between atoms: C_1  and  C_2
REMARK    2  A    between atoms: C_2  and  C_3
REMARK    3  A    between atoms: C_2  and  N_4
REMARK    4  A    between atoms: C_2  and  C_5
REMARK    5  A    between atoms: C_8  and  C_9
REMARK    6  A    between atoms: C_9  and  N_10
REMARK    7  A    between atoms: N_10  and  C_11
REMARK    8  A    between atoms: C_14  and  C_15
REMARK                            x       y       z     vdW  Elec       q    Type
REMARK                         _______ _______ _______ _____ _____    ______ ____
ROOT
ATOM      1  C   UNL     1      48.138   6.287  14.609  0.00  0.00    +0.000 C 
ENDROOT
BRANCH   1   5
ATOM      2  C   UNL     1      45.225   4.664  11.914  0.00  0.00    +0.000 A 
ATOM      3  N   UNL     1      45.372   4.146  13.167  0.00  0.00    +0.000 NA
ATOM      4  C   UNL     1      46.293   4.710  13.984  0.00  0.00    +0.000 A 
ATOM      5  C   UNL     1      47.098   5.790  13.638  0.00  0.00    +0.000 A 
ATOM      6  C   UNL     1      46.948   6.299  12.348  0.00  0.00    +0.000 A 
ATOM      7  C   UNL     1      46.004   5.743  11.489  0.00  0.00    +0.000 A 
ATOM      8  F   UNL     1      45.875   6.265  10.262  0.00  0.00    +0.000 F 
BRANCH   2  10
ATOM      9  C   UNL     1      43.349   2.981  11.752  0.00  0.00    +0.000 C 
ATOM     10  C   UNL     1      44.195   4.011  10.980  0.00  0.00    +0.000 C 
ATOM     11  C   UNL     1      44.874   3.278   9.803  0.00  0.00    +0.000 C 
BRANCH  10  12
ATOM     12  N   UNL     1      43.293   5.022  10.388  0.00  0.00    +0.000 NA
ATOM     13  H   UNL     1      43.324   4.954   9.373  0.00  0.00    +0.000 HD
ATOM     14  H   UNL     1      43.649   5.949  10.622  0.00  0.00    +0.000 HD
ENDBRANCH  10  12
ENDBRANCH   2  10
ENDBRANCH   1   5
BRANCH   1  15
ATOM     15  N   UNL     1      47.848   5.861  15.974  0.00  0.00    +0.000 N 
ATOM     16  H   UNL     1      46.997   5.305  16.038  0.00  0.00    +0.000 HD
BRANCH  15  17
ATOM     17  C   UNL     1      48.906   5.167  16.596  0.00  0.00    +0.000 A 
ATOM     18  N   UNL     1      50.140   5.730  16.618  0.00  0.00    +0.000 NA
ATOM     19  C   UNL     1      51.130   5.013  17.213  0.00  0.00    +0.000 A 
ATOM     20  C   UNL     1      50.905   3.772  17.788  0.00  0.00    +0.000 A 
ATOM     21  N   UNL     1      49.679   3.185  17.815  0.00  0.00    +0.000 NA
ATOM     22  C   UNL     1      48.705   3.913  17.218  0.00  0.00    +0.000 A 
ATOM     23 CL   UNL     1      47.167   3.139  17.243  0.00  0.00    +0.000 Cl
BRANCH  20  24
ATOM     24  C   UNL     1      52.042   3.012  18.371  0.00  0.00    +0.000 C 
ATOM     25  N   UNL     1      51.987   1.654  18.213  0.00  0.00    +0.000 N 
ATOM     26  O   UNL     1      52.972   3.566  18.940  0.00  0.00    +0.000 OA
ATOM     27  H   UNL     1      51.210   1.226  17.719  0.00  0.00    +0.000 HD
ATOM     28  H   UNL     1      52.745   1.081  18.556  0.00  0.00    +0.000 HD
ENDBRANCH  20  24
ENDBRANCH  15  17
ENDBRANCH   1  15
TORSDOF 6
ENDMDL
MODEL 8
REMARK VINA RESULT:    -6.645      4.583      8.261
REMARK INTER + INTRA:          -8.709
REMARK INTER:                  -8.374
REMARK INTRA:                  -0.335
REMARK UNBOUND:                 0.072
REMARK  Name = 
REMARK  8 active torsions:
REMARK  status: ('A' for Active; 'I' for Inactive)
REMARK    1  A    between atoms: C_1  and  C_2
REMARK    2  A    between atoms: C_2  and  C_3
REMARK    3  A    between atoms: C_2  and  N_4
REMARK    4  A    between atoms: C_2  and  C_5
REMARK    5  A    between atoms: C_8  and  C_9
REMARK    6  A    between atoms: C_9  and  N_10
REMARK    7  A    between atoms: N_10  and  C_11
REMARK    8  A    between atoms: C_14  and  C_15
REMARK                            x       y       z     vdW  Elec       q    Type
REMARK                         _______ _______ _______ _____ _____    ______ ____
ROOT
ATOM      1  C   UNL     1      48.406   6.518  14.555  0.00  0.00    +0.000 C 
ENDROOT
BRANCH   1   5
ATOM      2  C   UNL     1      45.326   4.420  12.435  0.00  0.00    +0.000 A 
ATOM      3  N   UNL     1      45.759   3.970  13.647  0.00  0.00    +0.000 NA
ATOM      4  C   UNL     1      46.720   4.683  14.283  0.00  0.00    +0.000 A 
ATOM      5  C   UNL     1      47.293   5.851  13.789  0.00  0.00    +0.000 A 
ATOM      6  C   UNL     1      46.850   6.290  12.540  0.00  0.00    +0.000 A 
ATOM      7  C   UNL     1      45.859   5.580  11.869  0.00  0.00    +0.000 A 
ATOM      8  F   UNL     1      45.447   6.037  10.679  0.00  0.00    +0.000 F 
BRANCH   2  10
ATOM      9  C   UNL     1      44.792   3.083  10.360  0.00  0.00    +0.000 C 
ATOM     10  C   UNL     1      44.251   3.600  11.705  0.00  0.00    +0.000 C 
ATOM     11  C   UNL     1      42.988   4.442  11.415  0.00  0.00    +0.000 C 
BRANCH  10  12
ATOM     12  N   UNL     1      43.815   2.446  12.520  0.00  0.00    +0.000 NA
ATOM     13  H   UNL     1      44.629   1.981  12.916  0.00  0.00    +0.000 HD
ATOM     14  H   UNL     1      43.371   1.764  11.903  0.00  0.00    +0.000 HD
ENDBRANCH  10  12
ENDBRANCH   2  10
ENDBRANCH   1   5
BRANCH   1  15
ATOM     15  N   UNL     1      48.253   6.336  15.995  0.00  0.00    +0.000 N 
ATOM     16  H   UNL     1      47.344   5.953  16.246  0.00  0.00    +0.000 HD
BRANCH  15  17
ATOM     17  C   UNL     1      49.268   5.556  16.585  0.00  0.00    +0.000 A 
ATOM     18  N   UNL     1      49.026   4.246  16.844  0.00  0.00    +0.000 NA
ATOM     19  C   UNL     1      50.030   3.543  17.430  0.00  0.00    +0.000 A 
ATOM     20  C   UNL     1      51.253   4.114  17.742  0.00  0.00    +0.000 A 
ATOM     21  N   UNL     1      51.549   5.413  17.473  0.00  0.00    +0.000 NA
ATOM     22  C   UNL     1      50.537   6.100  16.889  0.00  0.00    +0.000 A 
ATOM     23 CL   UNL     1      50.925   7.749  16.580  0.00  0.00    +0.000 Cl
BRANCH  20  24
ATOM     24  C   UNL     1      52.290   3.305  18.437  0.00  0.00    +0.000 C 
ATOM     25  N   UNL     1      52.619   3.725  19.697  0.00  0.00    +0.000 N 
ATOM     26  O   UNL     1      52.803   2.322  17.922  0.00  0.00    +0.000 OA
ATOM     27  H   UNL     1      52.162   4.534  20.104  0.00  0.00    +0.000 HD
ATOM     28  H   UNL     1      53.293   3.199  20.237  0.00  0.00    +0.000 HD
ENDBRANCH  20  24
ENDBRANCH  15  17
ENDBRANCH   1  15
TORSDOF 6
ENDMDL
MODEL 9
REMARK VINA RESULT:    -6.453      4.029      5.779
REMARK INTER + INTRA:          -8.455
REMARK INTER:                  -8.058
REMARK INTRA:                  -0.398
REMARK UNBOUND:                 0.072
REMARK  Name = 
REMARK  8 active torsions:
REMARK  status: ('A' for Active; 'I' for Inactive)
REMARK    1  A    between atoms: C_1  and  C_2
REMARK    2  A    between atoms: C_2  and  C_3
REMARK    3  A    between atoms: C_2  and  N_4
REMARK    4  A    between atoms: C_2  and  C_5
REMARK    5  A    between atoms: C_8  and  C_9
REMARK    6  A    between atoms: C_9  and  N_10
REMARK    7  A    between atoms: N_10  and  C_11
REMARK    8  A    between atoms: C_14  and  C_15
REMARK                            x       y       z     vdW  Elec       q    Type
REMARK                         _______ _______ _______ _____ _____    ______ ____
ROOT
ATOM      1  C   UNL     1      47.160   4.179  15.420  0.00  0.00    +0.000 C 
ENDROOT
BRANCH   1   5
ATOM      2  C   UNL     1      49.364   5.732  18.754  0.00  0.00    +0.000 A 
ATOM      3  N   UNL     1      49.411   6.358  17.544  0.00  0.00    +0.000 NA
ATOM      4  C   UNL     1      48.679   5.836  16.530  0.00  0.00    +0.000 A 
ATOM      5  C   UNL     1      47.873   4.707  16.638  0.00  0.00    +0.000 A 
ATOM      6  C   UNL     1      47.848   4.069  17.879  0.00  0.00    +0.000 A 
ATOM      7  C   UNL     1      48.586   4.587  18.939  0.00  0.00    +0.000 A 
ATOM      8  F   UNL     1      48.528   3.958  20.121  0.00  0.00    +0.000 F 
BRANCH   2  10
ATOM      9  C   UNL     1      50.923   7.597  19.438  0.00  0.00    +0.000 C 
ATOM     10  C   UNL     1      50.210   6.312  19.897  0.00  0.00    +0.000 C 
ATOM     11  C   UNL     1      51.292   5.315  20.371  0.00  0.00    +0.000 C 
BRANCH  10  12
ATOM     12  N   UNL     1      49.375   6.625  21.076  0.00  0.00    +0.000 NA
ATOM     13  H   UNL     1      48.881   7.502  20.921  0.00  0.00    +0.000 HD
ATOM     14  H   UNL     1      49.989   6.782  21.876  0.00  0.00    +0.000 HD
ENDBRANCH  10  12
ENDBRANCH   2  10
ENDBRANCH   1   5
BRANCH   1  15
ATOM     15  N   UNL     1      46.896   5.237  14.450  0.00  0.00    +0.000 N 
ATOM     16  H   UNL     1      47.738   5.743  14.185  0.00  0.00    +0.000 HD
BRANCH  15  17
ATOM     17  C   UNL     1      46.230   4.797  13.288  0.00  0.00    +0.000 A 
ATOM     18  N   UNL     1      45.805   3.510  13.220  0.00  0.00    +0.000 NA
ATOM     19  C   UNL     1      45.186   3.130  12.071  0.00  0.00    +0.000 A 
ATOM     20  C   UNL     1      44.976   4.004  11.017  0.00  0.00    +0.000 A 
ATOM     21  N   UNL     1      45.358   5.308  11.054  0.00  0.00    +0.000 NA
ATOM     22  C   UNL     1      45.974   5.670  12.206  0.00  0.00    +0.000 A 
ATOM     23 CL   UNL     1      46.471   7.318  12.221  0.00  0.00    +0.000 Cl
BRANCH  20  24
ATOM     24  C   UNL     1      44.345   3.510   9.764  0.00  0.00    +0.000 C 
ATOM     25  N   UNL     1      44.136   4.455   8.797  0.00  0.00    +0.000 N 
ATOM     26  O   UNL     1      44.046   2.335   9.603  0.00  0.00    +0.000 OA
ATOM     27  H   UNL     1      44.411   5.420   8.953  0.00  0.00    +0.000 HD
ATOM     28  H   UNL     1      43.741   4.180   7.908  0.00  0.00    +0.000 HD
ENDBRANCH  20  24
ENDBRANCH  15  17
ENDBRANCH   1  15
TORSDOF 6
ENDMDL
