MODEL 1
REMARK VINA RESULT:    -8.016      0.000      0.000
REMARK INTER + INTRA:         -10.732
REMARK INTER:                 -10.125
REMARK INTRA:                  -0.607
REMARK UNBOUND:                -0.607
REMARK  Name = 
REMARK  6 active torsions:
REMARK  status: ('A' for Active; 'I' for Inactive)
REMARK    1  A    between atoms: C_1  and  O_2
REMARK    2  A    between atoms: O_2  and  C_3
REMARK    3  A    between atoms: N_11  and  C_12
REMARK    4  A    between atoms: C_12  and  C_13
REMARK    5  A    between atoms: C_16  and  C_17
REMARK    6  A    between atoms: C_17  and  N_18
REMARK                            x       y       z     vdW  Elec       q    Type
REMARK                         _______ _______ _______ _____ _____    ______ ____
ROOT
ATOM      1  C   UNL     1      47.418   6.199  13.588  0.00  0.00    +0.000 A 
ATOM      2  C   UNL     1      47.413   7.471  12.997  0.00  0.00    +0.000 A 
ATOM      3  C   UNL     1      46.497   7.799  12.013  0.00  0.00    +0.000 A 
ATOM      4  C   UNL     1      45.582   6.858  11.529  0.00  0.00    +0.000 A 
ATOM      5  C   UNL     1      45.654   5.547  12.029  0.00  0.00    +0.000 A 
ATOM      6  C   UNL     1      46.543   5.211  13.066  0.00  0.00    +0.000 A 
ATOM      7  C   UNL     1      46.324   3.836  13.369  0.00  0.00    +0.000 A 
ATOM      8  C   UNL     1      45.363   3.360  12.502  0.00  0.00    +0.000 A 
ATOM      9  N   UNL     1      44.979   4.388  11.674  0.00  0.00    +0.000 N 
ENDROOT
BRANCH   1  11
ATOM     10  C   UNL     1      48.981   6.986  15.160  0.00  0.00    +0.000 C 
ATOM     11  O   UNL     1      48.266   5.870  14.624  0.00  0.00    +0.000 OA
ENDBRANCH   1  11
BRANCH   9  12
ATOM     12  C   UNL     1      44.106   4.197  10.508  0.00  0.00    +0.000 C 
BRANCH  12  13
ATOM     13  C   UNL     1      44.833   3.547   9.358  0.00  0.00    +0.000 A 
ATOM     14  C   UNL     1      44.914   2.153   9.270  0.00  0.00    +0.000 A 
ATOM     15  C   UNL     1      45.783   1.551   8.358  0.00  0.00    +0.000 A 
ATOM     16  C   UNL     1      46.576   2.328   7.503  0.00  0.00    +0.000 A 
ATOM     17  C   UNL     1      46.392   3.716   7.500  0.00  0.00    +0.000 A 
ATOM     18  C   UNL     1      45.522   4.321   8.413  0.00  0.00    +0.000 A 
BRANCH  16  19
ATOM     19  C   UNL     1      47.720   1.673   6.765  0.00  0.00    +0.000 C 
BRANCH  19  20
ATOM     20  N   UNL     1      48.734   2.606   6.290  0.00  0.00    +0.000 NA
ATOM     21  H   UNL     1      48.269   3.420   5.898  0.00  0.00    +0.000 HD
ATOM     22  H   UNL     1      49.248   2.165   5.528  0.00  0.00    +0.000 HD
ENDBRANCH  19  20
ENDBRANCH  16  19
ENDBRANCH  12  13
ENDBRANCH   9  12
TORSDOF 5
ENDMDL
MODEL 2
REMARK VINA RESULT:    -7.463      0.805      1.981
REMARK INTER + INTRA:         -10.034
REMARK INTER:                  -9.326
REMARK INTRA:                  -0.708
REMARK UNBOUND:                -0.607
REMARK  Name = 
REMARK  6 active torsions:
REMARK  status: ('A' for Active; 'I' for Inactive)
REMARK    1  A    between atoms: C_1  and  O_2
REMARK    2  A    between atoms: O_2  and  C_3
REMARK    3  A    between atoms: N_11  and  C_12
REMARK    4  A    between atoms: C_12  and  C_13
REMARK    5  A    between atoms: C_16  and  C_17
REMARK    6  A    between atoms: C_17  and  N_18
REMARK                            x       y       z     vdW  Elec       q    Type
REMARK                         _______ _______ _______ _____ _____    ______ ____
ROOT
ATOM      1  C   UNL     1      47.276   6.022  13.955  0.00  0.00    +0.000 A 
ATOM      2  C   UNL     1      47.389   4.746  14.527  0.00  0.00    +0.000 A 
ATOM      3  C   UNL     1      46.825   3.638  13.920  0.00  0.00    +0.000 A 
ATOM      4  C   UNL     1      46.073   3.757  12.747  0.00  0.00    +0.000 A 
ATOM      5  C   UNL     1      45.853   5.043  12.229  0.00  0.00    +0.000 A 
ATOM      6  C   UNL     1      46.461   6.174  12.803  0.00  0.00    +0.000 A 
ATOM      7  C   UNL     1      46.079   7.296  12.012  0.00  0.00    +0.000 A 
ATOM      8  C   UNL     1      45.230   6.847  11.023  0.00  0.00    +0.000 A 
ATOM      9  N   UNL     1      45.071   5.489  11.172  0.00  0.00    +0.000 N 
ENDROOT
BRANCH   1  11
ATOM     10  C   UNL     1      49.255   7.286  14.093  0.00  0.00    +0.000 C 
ATOM     11  O   UNL     1      47.893   7.130  14.496  0.00  0.00    +0.000 OA
ENDBRANCH   1  11
BRANCH   9  12
ATOM     12  C   UNL     1      44.092   4.706  10.407  0.00  0.00    +0.000 C 
BRANCH  12  13
ATOM     13  C   UNL     1      44.753   3.821   9.380  0.00  0.00    +0.000 A 
ATOM     14  C   UNL     1      44.652   2.429   9.475  0.00  0.00    +0.000 A 
ATOM     15  C   UNL     1      45.456   1.606   8.684  0.00  0.00    +0.000 A 
ATOM     16  C   UNL     1      46.364   2.155   7.768  0.00  0.00    +0.000 A 
ATOM     17  C   UNL     1      46.364   3.543   7.580  0.00  0.00    +0.000 A 
ATOM     18  C   UNL     1      45.560   4.369   8.372  0.00  0.00    +0.000 A 
BRANCH  16  19
ATOM     19  C   UNL     1      47.428   1.268   7.167  0.00  0.00    +0.000 C 
BRANCH  19  20
ATOM     20  N   UNL     1      48.257   1.927   6.166  0.00  0.00    +0.000 NA
ATOM     21  H   UNL     1      47.665   2.526   5.597  0.00  0.00    +0.000 HD
ATOM     22  H   UNL     1      48.639   1.216   5.544  0.00  0.00    +0.000 HD
ENDBRANCH  19  20
ENDBRANCH  16  19
ENDBRANCH  12  13
ENDBRANCH   9  12
TORSDOF 5
ENDMDL
MODEL 3
REMARK VINA RESULT:    -6.085      2.597      6.728
REMARK INTER + INTRA:          -8.293
REMARK INTER:                  -7.774
REMARK INTRA:                  -0.519
REMARK UNBOUND:                -0.607
REMARK  Name = 
REMARK  6 active torsions:
REMARK  status: ('A' for Active; 'I' for Inactive)
REMARK    1  A    between atoms: C_1  and  O_2
REMARK    2  A    between atoms: O_2  and  C_3
REMARK    3  A    between atoms: N_11  and  C_12
REMARK    4  A    between atoms: C_12  and  C_13
REMARK    5  A    between atoms: C_16  and  C_17
REMARK    6  A    between atoms: C_17  and  N_18
REMARK                            x       y       z     vdW  Elec       q    Type
REMARK                         _______ _______ _______ _____ _____    ______ ____
ROOT
ATOM      1  C   UNL     1      47.265   1.782   7.138  0.00  0.00    +0.000 A 
ATOM      2  C   UNL     1      46.809   0.511   7.520  0.00  0.00    +0.000 A 
ATOM      3  C   UNL     1      45.677   0.363   8.301  0.00  0.00    +0.000 A 
ATOM      4  C   UNL     1      44.978   1.473   8.787  0.00  0.00    +0.000 A 
ATOM      5  C   UNL     1      45.491   2.750   8.510  0.00  0.00    +0.000 A 
ATOM      6  C   UNL     1      46.611   2.921   7.675  0.00  0.00    +0.000 A 
ATOM      7  C   UNL     1      46.830   4.324   7.559  0.00  0.00    +0.000 A 
ATOM      8  C   UNL     1      45.894   4.965   8.342  0.00  0.00    +0.000 A 
ATOM      9  N   UNL     1      45.102   4.012   8.938  0.00  0.00    +0.000 N 
ENDROOT
BRANCH   1  11
ATOM     10  C   UNL     1      47.986   2.399   4.986  0.00  0.00    +0.000 C 
ATOM     11  O   UNL     1      48.344   1.957   6.297  0.00  0.00    +0.000 OA
ENDBRANCH   1  11
BRANCH   9  12
ATOM     12  C   UNL     1      44.117   4.324   9.982  0.00  0.00    +0.000 C 
BRANCH  12  13
ATOM     13  C   UNL     1      44.774   4.652  11.299  0.00  0.00    +0.000 A 
ATOM     14  C   UNL     1      45.000   5.984  11.665  0.00  0.00    +0.000 A 
ATOM     15  C   UNL     1      45.819   6.290  12.753  0.00  0.00    +0.000 A 
ATOM     16  C   UNL     1      46.417   5.273  13.510  0.00  0.00    +0.000 A 
ATOM     17  C   UNL     1      46.080   3.944  13.224  0.00  0.00    +0.000 A 
ATOM     18  C   UNL     1      45.259   3.636  12.135  0.00  0.00    +0.000 A 
BRANCH  16  19
ATOM     19  C   UNL     1      47.533   5.626  14.463  0.00  0.00    +0.000 C 
BRANCH  19  20
ATOM     20  N   UNL     1      47.416   5.002  15.775  0.00  0.00    +0.000 NA
ATOM     21  H   UNL     1      48.131   5.389  16.385  0.00  0.00    +0.000 HD
ATOM     22  H   UNL     1      47.619   4.007  15.680  0.00  0.00    +0.000 HD
ENDBRANCH  19  20
ENDBRANCH  16  19
ENDBRANCH  12  13
ENDBRANCH   9  12
TORSDOF 5
ENDMDL
MODEL 4
REMARK VINA RESULT:    -5.482      3.005      6.200
REMARK INTER + INTRA:          -7.531
REMARK INTER:                  -7.160
REMARK INTRA:                  -0.371
REMARK UNBOUND:                -0.607
REMARK  Name = 
REMARK  6 active torsions:
REMARK  status: ('A' for Active; 'I' for Inactive)
REMARK    1  A    between atoms: C_1  and  O_2
REMARK    2  A    between atoms: O_2  and  C_3
REMARK    3  A    between atoms: N_11  and  C_12
REMARK    4  A    between atoms: C_12  and  C_13
REMARK    5  A    between atoms: C_16  and  C_17
REMARK    6  A    between atoms: C_17  and  N_18
REMARK                            x       y       z     vdW  Elec       q    Type
REMARK                         _______ _______ _______ _____ _____    ______ ____
ROOT
ATOM      1  C   UNL     1      44.218   3.077  10.200  0.00  0.00    +0.000 A 
ATOM      2  C   UNL     1      43.573   2.487  11.298  0.00  0.00    +0.000 A 
ATOM      3  C   UNL     1      43.430   3.168  12.493  0.00  0.00    +0.000 A 
ATOM      4  C   UNL     1      43.973   4.445  12.672  0.00  0.00    +0.000 A 
ATOM      5  C   UNL     1      44.722   4.998  11.622  0.00  0.00    +0.000 A 
ATOM      6  C   UNL     1      44.833   4.343  10.381  0.00  0.00    +0.000 A 
ATOM      7  C   UNL     1      45.603   5.191   9.534  0.00  0.00    +0.000 A 
ATOM      8  C   UNL     1      45.976   6.297  10.267  0.00  0.00    +0.000 A 
ATOM      9  N   UNL     1      45.466   6.167  11.537  0.00  0.00    +0.000 N 
ENDROOT
BRANCH   1  11
ATOM     10  C   UNL     1      45.538   1.761   8.767  0.00  0.00    +0.000 C 
ATOM     11  O   UNL     1      44.306   2.454   8.973  0.00  0.00    +0.000 OA
ENDBRANCH   1  11
BRANCH   9  12
ATOM     12  C   UNL     1      45.818   7.070  12.641  0.00  0.00    +0.000 C 
BRANCH  12  13
ATOM     13  C   UNL     1      47.245   7.547  12.548  0.00  0.00    +0.000 A 
ATOM     14  C   UNL     1      47.532   8.835  12.082  0.00  0.00    +0.000 A 
ATOM     15  C   UNL     1      48.841   9.196  11.761  0.00  0.00    +0.000 A 
ATOM     16  C   UNL     1      49.895   8.286  11.914  0.00  0.00    +0.000 A 
ATOM     17  C   UNL     1      49.624   7.046  12.507  0.00  0.00    +0.000 A 
ATOM     18  C   UNL     1      48.313   6.683  12.830  0.00  0.00    +0.000 A 
BRANCH  16  19
ATOM     19  C   UNL     1      51.227   8.588  11.270  0.00  0.00    +0.000 C 
BRANCH  19  20
ATOM     20  N   UNL     1      52.024   7.406  10.966  0.00  0.00    +0.000 NA
ATOM     21  H   UNL     1      51.839   6.698  11.672  0.00  0.00    +0.000 HD
ATOM     22  H   UNL     1      53.010   7.651  11.046  0.00  0.00    +0.000 HD
ENDBRANCH  19  20
ENDBRANCH  16  19
ENDBRANCH  12  13
ENDBRANCH   9  12
TORSDOF 5
ENDMDL
MODEL 5
REMARK VINA RESULT:    -5.279      3.169      6.197
REMARK INTER + INTRA:          -7.276
REMARK INTER:                  -6.641
REMARK INTRA:                  -0.635
REMARK UNBOUND:                -0.607
REMARK  Name = 
REMARK  6 active torsions:
REMARK  status: ('A' for Active; 'I' for Inactive)
REMARK    1  A    between atoms: C_1  and  O_2
REMARK    2  A    between atoms: O_2  and  C_3
REMARK    3  A    between atoms: N_11  and  C_12
REMARK    4  A    between atoms: C_12  and  C_13
REMARK    5  A    between atoms: C_16  and  C_17
REMARK    6  A    between atoms: C_17  and  N_18
REMARK                            x       y       z     vdW  Elec       q    Type
REMARK                         _______ _______ _______ _____ _____    ______ ____
ROOT
ATOM      1  C   UNL     1      44.781   4.044  11.746  0.00  0.00    +0.000 A 
ATOM      2  C   UNL     1      45.592   3.215  12.537  0.00  0.00    +0.000 A 
ATOM      3  C   UNL     1      46.437   3.746  13.494  0.00  0.00    +0.000 A 
ATOM      4  C   UNL     1      46.560   5.128  13.670  0.00  0.00    +0.000 A 
ATOM      5  C   UNL     1      45.843   5.971  12.806  0.00  0.00    +0.000 A 
ATOM      6  C   UNL     1      44.939   5.449  11.862  0.00  0.00    +0.000 A 
ATOM      7  C   UNL     1      44.347   6.562  11.197  0.00  0.00    +0.000 A 
ATOM      8  C   UNL     1      44.919   7.710  11.702  0.00  0.00    +0.000 A 
ATOM      9  N   UNL     1      45.843   7.351  12.654  0.00  0.00    +0.000 N 
ENDROOT
BRANCH   1  11
ATOM     10  C   UNL     1      44.472   2.791   9.780  0.00  0.00    +0.000 C 
ATOM     11  O   UNL     1      43.873   3.539  10.840  0.00  0.00    +0.000 OA
ENDBRANCH   1  11
BRANCH   9  12
ATOM     12  C   UNL     1      46.774   8.305  13.271  0.00  0.00    +0.000 C 
BRANCH  12  13
ATOM     13  C   UNL     1      47.979   8.562  12.401  0.00  0.00    +0.000 A 
ATOM     14  C   UNL     1      48.914   7.548  12.170  0.00  0.00    +0.000 A 
ATOM     15  C   UNL     1      50.144   7.841  11.579  0.00  0.00    +0.000 A 
ATOM     16  C   UNL     1      50.460   9.150  11.189  0.00  0.00    +0.000 A 
ATOM     17  C   UNL     1      49.470  10.135  11.298  0.00  0.00    +0.000 A 
ATOM     18  C   UNL     1      48.237   9.843  11.890  0.00  0.00    +0.000 A 
BRANCH  16  19
ATOM     19  C   UNL     1      51.892   9.491  10.853  0.00  0.00    +0.000 C 
BRANCH  19  20
ATOM     20  N   UNL     1      52.436   8.739   9.730  0.00  0.00    +0.000 NA
ATOM     21  H   UNL     1      51.743   8.718   8.986  0.00  0.00    +0.000 HD
ATOM     22  H   UNL     1      52.578   7.774  10.026  0.00  0.00    +0.000 HD
ENDBRANCH  19  20
ENDBRANCH  16  19
ENDBRANCH  12  13
ENDBRANCH   9  12
TORSDOF 5
ENDMDL
MODEL 6
REMARK VINA RESULT:    -5.217      3.032      5.004
REMARK INTER + INTRA:          -7.197
REMARK INTER:                  -6.611
REMARK INTRA:                  -0.586
REMARK UNBOUND:                -0.607
REMARK  Name = 
REMARK  6 active torsions:
REMARK  status: ('A' for Active; 'I' for Inactive)
REMARK    1  A    between atoms: C_1  and  O_2
REMARK    2  A    between atoms: O_2  and  C_3
REMARK    3  A    between atoms: N_11  and  C_12
REMARK    4  A    between atoms: C_12  and  C_13
REMARK    5  A    between atoms: C_16  and  C_17
REMARK    6  A    between atoms: C_17  and  N_18
REMARK                            x       y       z     vdW  Elec       q    Type
REMARK                         _______ _______ _______ _____ _____    ______ ____
ROOT
ATOM      1  C   UNL     1      51.183   7.752  14.580  0.00  0.00    +0.000 A 
ATOM      2  C   UNL     1      50.930   7.184  15.838  0.00  0.00    +0.000 A 
ATOM      3  C   UNL     1      49.698   6.631  16.139  0.00  0.00    +0.000 A 
ATOM      4  C   UNL     1      48.641   6.671  15.223  0.00  0.00    +0.000 A 
ATOM      5  C   UNL     1      48.845   7.341  14.006  0.00  0.00    +0.000 A 
ATOM      6  C   UNL     1      50.106   7.862  13.663  0.00  0.00    +0.000 A 
ATOM      7  C   UNL     1      49.981   8.419  12.357  0.00  0.00    +0.000 A 
ATOM      8  C   UNL     1      48.670   8.272  11.957  0.00  0.00    +0.000 A 
ATOM      9  N   UNL     1      47.977   7.645  12.966  0.00  0.00    +0.000 N 
ENDROOT
BRANCH   1  11
ATOM     10  C   UNL     1      53.498   7.687  14.989  0.00  0.00    +0.000 C 
ATOM     11  O   UNL     1      52.423   8.239  14.226  0.00  0.00    +0.000 OA
ENDBRANCH   1  11
BRANCH   9  12
ATOM     12  C   UNL     1      46.517   7.490  12.962  0.00  0.00    +0.000 C 
BRANCH  12  13
ATOM     13  C   UNL     1      46.088   6.186  12.337  0.00  0.00    +0.000 A 
ATOM     14  C   UNL     1      45.859   6.103  10.959  0.00  0.00    +0.000 A 
ATOM     15  C   UNL     1      45.231   4.983  10.412  0.00  0.00    +0.000 A 
ATOM     16  C   UNL     1      44.835   3.913  11.226  0.00  0.00    +0.000 A 
ATOM     17  C   UNL     1      45.188   3.941  12.581  0.00  0.00    +0.000 A 
ATOM     18  C   UNL     1      45.817   5.062  13.131  0.00  0.00    +0.000 A 
BRANCH  16  19
ATOM     19  C   UNL     1      43.890   2.876  10.669  0.00  0.00    +0.000 C 
BRANCH  19  20
ATOM     20  N   UNL     1      43.101   2.184  11.680  0.00  0.00    +0.000 NA
ATOM     21  H   UNL     1      42.307   2.767  11.930  0.00  0.00    +0.000 HD
ATOM     22  H   UNL     1      43.669   2.086  12.522  0.00  0.00    +0.000 HD
ENDBRANCH  19  20
ENDBRANCH  16  19
ENDBRANCH  12  13
ENDBRANCH   9  12
TORSDOF 5
ENDMDL
MODEL 7
REMARK VINA RESULT:    -5.031      4.821      8.123
REMARK INTER + INTRA:          -6.962
REMARK INTER:                  -6.277
REMARK INTRA:                  -0.686
REMARK UNBOUND:                -0.607
REMARK  Name = 
REMARK  6 active torsions:
REMARK  status: ('A' for Active; 'I' for Inactive)
REMARK    1  A    between atoms: C_1  and  O_2
REMARK    2  A    between atoms: O_2  and  C_3
REMARK    3  A    between atoms: N_11  and  C_12
REMARK    4  A    between atoms: C_12  and  C_13
REMARK    5  A    between atoms: C_16  and  C_17
REMARK    6  A    between atoms: C_17  and  N_18
REMARK                            x       y       z     vdW  Elec       q    Type
REMARK                         _______ _______ _______ _____ _____    ______ ____
ROOT
ATOM      1  C   UNL     1      47.683   6.471  13.646  0.00  0.00    +0.000 A 
ATOM      2  C   UNL     1      46.964   5.345  13.216  0.00  0.00    +0.000 A 
ATOM      3  C   UNL     1      46.702   4.293  14.075  0.00  0.00    +0.000 A 
ATOM      4  C   UNL     1      47.193   4.285  15.385  0.00  0.00    +0.000 A 
ATOM      5  C   UNL     1      48.013   5.350  15.791  0.00  0.00    +0.000 A 
ATOM      6  C   UNL     1      48.246   6.453  14.948  0.00  0.00    +0.000 A 
ATOM      7  C   UNL     1      49.062   7.365  15.678  0.00  0.00    +0.000 A 
ATOM      8  C   UNL     1      49.342   6.798  16.902  0.00  0.00    +0.000 A 
ATOM      9  N   UNL     1      48.731   5.567  16.959  0.00  0.00    +0.000 N 
ENDROOT
BRANCH   1  11
ATOM     10  C   UNL     1      49.024   7.439  11.974  0.00  0.00    +0.000 C 
ATOM     11  O   UNL     1      47.891   7.567  12.836  0.00  0.00    +0.000 OA
ENDBRANCH   1  11
BRANCH   9  12
ATOM     12  C   UNL     1      48.963   4.603  18.043  0.00  0.00    +0.000 C 
BRANCH  12  13
ATOM     13  C   UNL     1      50.136   3.700  17.753  0.00  0.00    +0.000 A 
ATOM     14  C   UNL     1      49.932   2.433  17.195  0.00  0.00    +0.000 A 
ATOM     15  C   UNL     1      50.973   1.503  17.154  0.00  0.00    +0.000 A 
ATOM     16  C   UNL     1      52.243   1.824  17.651  0.00  0.00    +0.000 A 
ATOM     17  C   UNL     1      52.478   3.136  18.083  0.00  0.00    +0.000 A 
ATOM     18  C   UNL     1      51.437   4.068  18.125  0.00  0.00    +0.000 A 
BRANCH  16  19
ATOM     19  C   UNL     1      53.243   0.716  17.883  0.00  0.00    +0.000 C 
BRANCH  19  20
ATOM     20  N   UNL     1      52.671  -0.489  18.469  0.00  0.00    +0.000 NA
ATOM     21  H   UNL     1      53.146  -1.298  18.078  0.00  0.00    +0.000 HD
ATOM     22  H   UNL     1      51.694  -0.556  18.184  0.00  0.00    +0.000 HD
ENDBRANCH  19  20
ENDBRANCH  16  19
ENDBRANCH  12  13
ENDBRANCH   9  12
TORSDOF 5
ENDMDL
MODEL 8
REMARK VINA RESULT:    -5.025      3.625      6.060
REMARK INTER + INTRA:          -6.954
REMARK INTER:                  -6.366
REMARK INTRA:                  -0.588
REMARK UNBOUND:                -0.607
REMARK  Name = 
REMARK  6 active torsions:
REMARK  status: ('A' for Active; 'I' for Inactive)
REMARK    1  A    between atoms: C_1  and  O_2
REMARK    2  A    between atoms: O_2  and  C_3
REMARK    3  A    between atoms: N_11  and  C_12
REMARK    4  A    between atoms: C_12  and  C_13
REMARK    5  A    between atoms: C_16  and  C_17
REMARK    6  A    between atoms: C_17  and  N_18
REMARK                            x       y       z     vdW  Elec       q    Type
REMARK                         _______ _______ _______ _____ _____    ______ ____
ROOT
ATOM      1  C   UNL     1      44.556   4.555  12.529  0.00  0.00    +0.000 A 
ATOM      2  C   UNL     1      43.741   5.391  11.750  0.00  0.00    +0.000 A 
ATOM      3  C   UNL     1      44.114   6.693  11.469  0.00  0.00    +0.000 A 
ATOM      4  C   UNL     1      45.286   7.244  11.998  0.00  0.00    +0.000 A 
ATOM      5  C   UNL     1      46.050   6.457  12.874  0.00  0.00    +0.000 A 
ATOM      6  C   UNL     1      45.714   5.115  13.129  0.00  0.00    +0.000 A 
ATOM      7  C   UNL     1      46.713   4.598  14.005  0.00  0.00    +0.000 A 
ATOM      8  C   UNL     1      47.591   5.620  14.296  0.00  0.00    +0.000 A 
ATOM      9  N   UNL     1      47.174   6.751  13.634  0.00  0.00    +0.000 N 
ENDROOT
BRANCH   1  11
ATOM     10  C   UNL     1      43.344   2.675  11.804  0.00  0.00    +0.000 C 
ATOM     11  O   UNL     1      44.249   3.232  12.760  0.00  0.00    +0.000 OA
ENDBRANCH   1  11
BRANCH   9  12
ATOM     12  C   UNL     1      47.765   8.077  13.858  0.00  0.00    +0.000 C 
BRANCH  12  13
ATOM     13  C   UNL     1      49.025   8.277  13.054  0.00  0.00    +0.000 A 
ATOM     14  C   UNL     1      49.115   7.787  11.746  0.00  0.00    +0.000 A 
ATOM     15  C   UNL     1      50.347   7.748  11.089  0.00  0.00    +0.000 A 
ATOM     16  C   UNL     1      51.510   8.213  11.716  0.00  0.00    +0.000 A 
ATOM     17  C   UNL     1      51.392   8.826  12.970  0.00  0.00    +0.000 A 
ATOM     18  C   UNL     1      50.160   8.867  13.629  0.00  0.00    +0.000 A 
BRANCH  16  19
ATOM     19  C   UNL     1      52.854   7.871  11.118  0.00  0.00    +0.000 C 
BRANCH  19  20
ATOM     20  N   UNL     1      52.865   6.636  10.344  0.00  0.00    +0.000 NA
ATOM     21  H   UNL     1      52.289   6.766   9.516  0.00  0.00    +0.000 HD
ATOM     22  H   UNL     1      52.422   5.904  10.898  0.00  0.00    +0.000 HD
ENDBRANCH  19  20
ENDBRANCH  16  19
ENDBRANCH  12  13
ENDBRANCH   9  12
TORSDOF 5
ENDMDL
