MODEL 1
REMARK VINA RESULT:    -8.754      0.000      0.000
REMARK INTER + INTRA:         -12.152
REMARK INTER:                 -11.313
REMARK INTRA:                  -0.839
REMARK UNBOUND:                -0.839
REMARK  Name = 
REMARK  5 active torsions:
REMARK  status: ('A' for Active; 'I' for Inactive)
REMARK    1  A    between atoms: C_2  and  C_4
REMARK    2  A    between atoms: C_7  and  C_8
REMARK    3  A    between atoms: C_8  and  O_9
REMARK    4  A    between atoms: O_9  and  C_10
REMARK    5  A    between atoms: C_14  and  C_15
REMARK                            x       y       z     vdW  Elec       q    Type
REMARK                         _______ _______ _______ _____ _____    ______ ____
ROOT
ATOM      1  O   UNL     1      44.120   4.156  11.773  0.00  0.00    +0.000 OA
ENDROOT
BRANCH   1   2
ATOM      2  C   UNL     1      45.250   4.767  12.239  0.00  0.00    +0.000 A 
ATOM      3  C   UNL     1      46.032   4.028  13.114  0.00  0.00    +0.000 A 
ATOM      4  N   UNL     1      47.180   4.475  13.668  0.00  0.00    +0.000 NA
ATOM      5  C   UNL     1      47.565   5.727  13.325  0.00  0.00    +0.000 A 
ATOM      6  C   UNL     1      46.867   6.579  12.463  0.00  0.00    +0.000 A 
ATOM      7  C   UNL     1      45.681   6.058  11.922  0.00  0.00    +0.000 A 
BRANCH   6   8
ATOM      8  C   UNL     1      47.354   7.934  12.134  0.00  0.00    +0.000 A 
ATOM      9  C   UNL     1      46.509   9.058  12.232  0.00  0.00    +0.000 A 
ATOM     10  C   UNL     1      46.973  10.352  11.972  0.00  0.00    +0.000 A 
ATOM     11  C   UNL     1      48.296  10.551  11.591  0.00  0.00    +0.000 A 
ATOM     12  C   UNL     1      49.135   9.455  11.462  0.00  0.00    +0.000 A 
ATOM     13  F   UNL     1      50.407   9.638  11.085  0.00  0.00    +0.000 F 
ATOM     14  C   UNL     1      48.682   8.164  11.729  0.00  0.00    +0.000 A 
ENDBRANCH   6   8
ENDBRANCH   1   2
BRANCH   1  15
ATOM     15  C   UNL     1      43.740   4.470  10.434  0.00  0.00    +0.000 C 
BRANCH  15  19
ATOM     16  C   UNL     1      46.446   2.481   7.719  0.00  0.00    +0.000 A 
ATOM     17  C   UNL     1      46.313   3.873   7.666  0.00  0.00    +0.000 A 
ATOM     18  C   UNL     1      45.424   4.522   8.529  0.00  0.00    +0.000 A 
ATOM     19  C   UNL     1      44.649   3.788   9.437  0.00  0.00    +0.000 A 
ATOM     20  C   UNL     1      44.783   2.391   9.477  0.00  0.00    +0.000 A 
ATOM     21  C   UNL     1      45.669   1.742   8.616  0.00  0.00    +0.000 A 
BRANCH  16  23
ATOM     22  N   UNL     1      48.503   2.431   6.421  0.00  0.00    +0.000 N 
ATOM     23  C   UNL     1      47.395   1.752   6.843  0.00  0.00    +0.000 C 
ATOM     24  O   UNL     1      47.227   0.578   6.545  0.00  0.00    +0.000 OA
ATOM     25  H   UNL     1      49.199   1.888   5.928  0.00  0.00    +0.000 HD
ATOM     26  H   UNL     1      48.803   3.293   6.857  0.00  0.00    +0.000 HD
ENDBRANCH  16  23
ENDBRANCH  15  19
ENDBRANCH   1  15
TORSDOF 5
ENDMDL
MODEL 2
REMARK VINA RESULT:    -8.590      1.460      1.801
REMARK INTER + INTRA:         -11.940
REMARK INTER:                 -11.233
REMARK INTRA:                  -0.708
REMARK UNBOUND:                -0.839
REMARK  Name = 
REMARK  5 active torsions:
REMARK  status: ('A' for Active; 'I' for Inactive)
REMARK    1  A    between atoms: C_2  and  C_4
REMARK    2  A    between atoms: C_7  and  C_8
REMARK    3  A    between atoms: C_8  and  O_9
REMARK    4  A    between atoms: O_9  and  C_10
REMARK    5  A    between atoms: C_14  and  C_15
REMARK                            x       y       z     vdW  Elec       q    Type
REMARK                         _______ _______ _______ _____ _____    ______ ____
ROOT
ATOM      1  O   UNL     1      44.331   5.686  10.916  0.00  0.00    +0.000 OA
ENDROOT
BRANCH   1   2
ATOM      2  C   UNL     1      45.275   5.578  11.898  0.00  0.00    +0.000 A 
ATOM      3  C   UNL     1      45.027   4.638  12.888  0.00  0.00    +0.000 A 
ATOM      4  N   UNL     1      45.852   4.399  13.930  0.00  0.00    +0.000 NA
ATOM      5  C   UNL     1      46.986   5.136  13.981  0.00  0.00    +0.000 A 
ATOM      6  C   UNL     1      47.353   6.118  13.055  0.00  0.00    +0.000 A 
ATOM      7  C   UNL     1      46.453   6.323  11.996  0.00  0.00    +0.000 A 
BRANCH   6   8
ATOM      8  C   UNL     1      48.612   6.881  13.177  0.00  0.00    +0.000 A 
ATOM      9  C   UNL     1      49.208   7.112  14.433  0.00  0.00    +0.000 A 
ATOM     10  C   UNL     1      50.426   7.789  14.556  0.00  0.00    +0.000 A 
ATOM     11  C   UNL     1      51.071   8.267  13.420  0.00  0.00    +0.000 A 
ATOM     12  C   UNL     1      50.486   8.075  12.178  0.00  0.00    +0.000 A 
ATOM     13  F   UNL     1      51.097   8.542  11.082  0.00  0.00    +0.000 F 
ATOM     14  C   UNL     1      49.278   7.393  12.048  0.00  0.00    +0.000 A 
ENDBRANCH   6   8
ENDBRANCH   1   2
BRANCH   1  15
ATOM     15  C   UNL     1      43.753   4.464  10.459  0.00  0.00    +0.000 C 
BRANCH  15  19
ATOM     16  C   UNL     1      46.445   2.459   7.742  0.00  0.00    +0.000 A 
ATOM     17  C   UNL     1      46.310   3.850   7.681  0.00  0.00    +0.000 A 
ATOM     18  C   UNL     1      45.425   4.504   8.544  0.00  0.00    +0.000 A 
ATOM     19  C   UNL     1      44.656   3.776   9.462  0.00  0.00    +0.000 A 
ATOM     20  C   UNL     1      44.793   2.380   9.510  0.00  0.00    +0.000 A 
ATOM     21  C   UNL     1      45.673   1.726   8.649  0.00  0.00    +0.000 A 
BRANCH  16  23
ATOM     22  N   UNL     1      48.489   2.405   6.424  0.00  0.00    +0.000 N 
ATOM     23  C   UNL     1      47.390   1.725   6.866  0.00  0.00    +0.000 C 
ATOM     24  O   UNL     1      47.225   0.546   6.584  0.00  0.00    +0.000 OA
ATOM     25  H   UNL     1      49.184   1.860   5.930  0.00  0.00    +0.000 HD
ATOM     26  H   UNL     1      48.788   3.274   6.846  0.00  0.00    +0.000 HD
ENDBRANCH  16  23
ENDBRANCH  15  19
ENDBRANCH   1  15
TORSDOF 5
ENDMDL
MODEL 3
REMARK VINA RESULT:    -8.289      2.885      4.187
REMARK INTER + INTRA:         -11.551
REMARK INTER:                 -11.040
REMARK INTRA:                  -0.512
REMARK UNBOUND:                -0.839
REMARK  Name = 
REMARK  5 active torsions:
REMARK  status: ('A' for Active; 'I' for Inactive)
REMARK    1  A    between atoms: C_2  and  C_4
REMARK    2  A    between atoms: C_7  and  C_8
REMARK    3  A    between atoms: C_8  and  O_9
REMARK    4  A    between atoms: O_9  and  C_10
REMARK    5  A    between atoms: C_14  and  C_15
REMARK                            x       y       z     vdW  Elec       q    Type
REMARK                         _______ _______ _______ _____ _____    ______ ____
ROOT
ATOM      1  O   UNL     1      44.146   4.375  11.610  0.00  0.00    +0.000 OA
ENDROOT
BRANCH   1   2
ATOM      2  C   UNL     1      45.168   5.019  12.247  0.00  0.00    +0.000 A 
ATOM      3  C   UNL     1      45.647   6.168  11.635  0.00  0.00    +0.000 A 
ATOM      4  N   UNL     1      46.651   6.928  12.126  0.00  0.00    +0.000 NA
ATOM      5  C   UNL     1      47.200   6.516  13.293  0.00  0.00    +0.000 A 
ATOM      6  C   UNL     1      46.818   5.376  14.007  0.00  0.00    +0.000 A 
ATOM      7  C   UNL     1      45.773   4.627  13.444  0.00  0.00    +0.000 A 
BRANCH   6   8
ATOM      8  C   UNL     1      47.466   4.993  15.279  0.00  0.00    +0.000 A 
ATOM      9  C   UNL     1      48.491   5.779  15.843  0.00  0.00    +0.000 A 
ATOM     10  C   UNL     1      49.076   5.454  17.071  0.00  0.00    +0.000 A 
ATOM     11  C   UNL     1      48.658   4.319  17.760  0.00  0.00    +0.000 A 
ATOM     12  C   UNL     1      47.671   3.518  17.207  0.00  0.00    +0.000 A 
ATOM     13  F   UNL     1      47.272   2.418  17.859  0.00  0.00    +0.000 F 
ATOM     14  C   UNL     1      47.077   3.842  15.988  0.00  0.00    +0.000 A 
ENDBRANCH   6   8
ENDBRANCH   1   2
BRANCH   1  15
ATOM     15  C   UNL     1      43.921   4.740  10.249  0.00  0.00    +0.000 C 
BRANCH  15  19
ATOM     16  C   UNL     1      46.478   2.345   7.723  0.00  0.00    +0.000 A 
ATOM     17  C   UNL     1      46.453   3.735   7.563  0.00  0.00    +0.000 A 
ATOM     18  C   UNL     1      45.613   4.515   8.364  0.00  0.00    +0.000 A 
ATOM     19  C   UNL     1      44.779   3.915   9.317  0.00  0.00    +0.000 A 
ATOM     20  C   UNL     1      44.804   2.519   9.464  0.00  0.00    +0.000 A 
ATOM     21  C   UNL     1      45.640   1.740   8.665  0.00  0.00    +0.000 A 
BRANCH  16  23
ATOM     22  N   UNL     1      48.427   2.082   6.292  0.00  0.00    +0.000 N 
ATOM     23  C   UNL     1      47.371   1.480   6.916  0.00  0.00    +0.000 C 
ATOM     24  O   UNL     1      47.206   0.270   6.844  0.00  0.00    +0.000 OA
ATOM     25  H   UNL     1      49.095   1.466   5.847  0.00  0.00    +0.000 HD
ATOM     26  H   UNL     1      48.741   3.010   6.543  0.00  0.00    +0.000 HD
ENDBRANCH  16  23
ENDBRANCH  15  19
ENDBRANCH   1  15
TORSDOF 5
ENDMDL
MODEL 4
REMARK VINA RESULT:    -8.232      3.589      6.933
REMARK INTER + INTRA:         -11.478
REMARK INTER:                 -10.633
REMARK INTRA:                  -0.845
REMARK UNBOUND:                -0.839
REMARK  Name = 
REMARK  5 active torsions:
REMARK  status: ('A' for Active; 'I' for Inactive)
REMARK    1  A    between atoms: C_2  and  C_4
REMARK    2  A    between atoms: C_7  and  C_8
REMARK    3  A    between atoms: C_8  and  O_9
REMARK    4  A    between atoms: O_9  and  C_10
REMARK    5  A    between atoms: C_14  and  C_15
REMARK                            x       y       z     vdW  Elec       q    Type
REMARK                         _______ _______ _______ _____ _____    ______ ____
ROOT
ATOM      1  O   UNL     1      44.047   6.497  11.533  0.00  0.00    +0.000 OA
ENDROOT
BRANCH   1   2
ATOM      2  C   UNL     1      44.062   5.207  11.085  0.00  0.00    +0.000 A 
ATOM      3  C   UNL     1      43.215   4.321  11.734  0.00  0.00    +0.000 A 
ATOM      4  N   UNL     1      43.102   3.011  11.421  0.00  0.00    +0.000 NA
ATOM      5  C   UNL     1      43.875   2.568  10.402  0.00  0.00    +0.000 A 
ATOM      6  C   UNL     1      44.774   3.351   9.671  0.00  0.00    +0.000 A 
ATOM      7  C   UNL     1      44.849   4.703  10.046  0.00  0.00    +0.000 A 
BRANCH   6   8
ATOM      8  C   UNL     1      45.584   2.794   8.568  0.00  0.00    +0.000 A 
ATOM      9  C   UNL     1      46.077   3.617   7.535  0.00  0.00    +0.000 A 
ATOM     10  C   UNL     1      46.887   3.110   6.514  0.00  0.00    +0.000 A 
ATOM     11  C   UNL     1      47.210   1.757   6.492  0.00  0.00    +0.000 A 
ATOM     12  C   UNL     1      46.711   0.926   7.484  0.00  0.00    +0.000 A 
ATOM     13  F   UNL     1      47.009  -0.379   7.462  0.00  0.00    +0.000 F 
ATOM     14  C   UNL     1      45.911   1.427   8.510  0.00  0.00    +0.000 A 
ENDBRANCH   6   8
ENDBRANCH   1   2
BRANCH   1  15
ATOM     15  C   UNL     1      44.712   6.743  12.771  0.00  0.00    +0.000 C 
BRANCH  15  19
ATOM     16  C   UNL     1      48.920   7.603  12.317  0.00  0.00    +0.000 A 
ATOM     17  C   UNL     1      47.974   8.576  11.975  0.00  0.00    +0.000 A 
ATOM     18  C   UNL     1      46.610   8.297  12.100  0.00  0.00    +0.000 A 
ATOM     19  C   UNL     1      46.177   7.042  12.550  0.00  0.00    +0.000 A 
ATOM     20  C   UNL     1      47.133   6.070  12.883  0.00  0.00    +0.000 A 
ATOM     21  C   UNL     1      48.494   6.346  12.757  0.00  0.00    +0.000 A 
BRANCH  16  23
ATOM     22  N   UNL     1      51.051   8.055  13.399  0.00  0.00    +0.000 N 
ATOM     23  C   UNL     1      50.377   7.862  12.227  0.00  0.00    +0.000 C 
ATOM     24  O   UNL     1      50.968   7.858  11.156  0.00  0.00    +0.000 OA
ATOM     25  H   UNL     1      52.059   8.109  13.331  0.00  0.00    +0.000 HD
ATOM     26  H   UNL     1      50.654   7.804  14.295  0.00  0.00    +0.000 HD
ENDBRANCH  16  23
ENDBRANCH  15  19
ENDBRANCH   1  15
TORSDOF 5
ENDMDL
MODEL 5
REMARK VINA RESULT:    -8.167      3.278      6.931
REMARK INTER + INTRA:         -11.394
REMARK INTER:                 -10.565
REMARK INTRA:                  -0.829
REMARK UNBOUND:                -0.839
REMARK  Name = 
REMARK  5 active torsions:
REMARK  status: ('A' for Active; 'I' for Inactive)
REMARK    1  A    between atoms: C_2  and  C_4
REMARK    2  A    between atoms: C_7  and  C_8
REMARK    3  A    between atoms: C_8  and  O_9
REMARK    4  A    between atoms: O_9  and  C_10
REMARK    5  A    between atoms: C_14  and  C_15
REMARK                            x       y       z     vdW  Elec       q    Type
REMARK                         _______ _______ _______ _____ _____    ______ ____
ROOT
ATOM      1  O   UNL     1      44.130   6.429  11.353  0.00  0.00    +0.000 OA
ENDROOT
BRANCH   1   2
ATOM      2  C   UNL     1      44.173   5.140  10.905  0.00  0.00    +0.000 A 
ATOM      3  C   UNL     1      43.360   4.231  11.568  0.00  0.00    +0.000 A 
ATOM      4  N   UNL     1      43.277   2.919  11.257  0.00  0.00    +0.000 NA
ATOM      5  C   UNL     1      44.045   2.497  10.225  0.00  0.00    +0.000 A 
ATOM      6  C   UNL     1      44.912   3.303   9.480  0.00  0.00    +0.000 A 
ATOM      7  C   UNL     1      44.956   4.656   9.854  0.00  0.00    +0.000 A 
BRANCH   6   8
ATOM      8  C   UNL     1      45.718   2.767   8.364  0.00  0.00    +0.000 A 
ATOM      9  C   UNL     1      46.200   1.443   8.381  0.00  0.00    +0.000 A 
ATOM     10  C   UNL     1      46.921   0.909   7.308  0.00  0.00    +0.000 A 
ATOM     11  C   UNL     1      47.192   1.697   6.194  0.00  0.00    +0.000 A 
ATOM     12  C   UNL     1      46.751   3.011   6.172  0.00  0.00    +0.000 A 
ATOM     13  F   UNL     1      47.018   3.778   5.107  0.00  0.00    +0.000 F 
ATOM     14  C   UNL     1      46.024   3.546   7.234  0.00  0.00    +0.000 A 
ENDBRANCH   6   8
ENDBRANCH   1   2
BRANCH   1  15
ATOM     15  C   UNL     1      44.662   6.662  12.656  0.00  0.00    +0.000 C 
BRANCH  15  19
ATOM     16  C   UNL     1      48.840   7.688  12.286  0.00  0.00    +0.000 A 
ATOM     17  C   UNL     1      48.478   6.409  12.724  0.00  0.00    +0.000 A 
ATOM     18  C   UNL     1      47.127   6.077  12.865  0.00  0.00    +0.000 A 
ATOM     19  C   UNL     1      46.129   7.020  12.588  0.00  0.00    +0.000 A 
ATOM     20  C   UNL     1      46.502   8.303  12.158  0.00  0.00    +0.000 A 
ATOM     21  C   UNL     1      47.849   8.637  12.018  0.00  0.00    +0.000 A 
BRANCH  16  23
ATOM     22  N   UNL     1      51.004   7.320  11.236  0.00  0.00    +0.000 N 
ATOM     23  C   UNL     1      50.258   8.077  12.095  0.00  0.00    +0.000 C 
ATOM     24  O   UNL     1      50.737   9.061  12.643  0.00  0.00    +0.000 OA
ATOM     25  H   UNL     1      51.930   7.668  11.023  0.00  0.00    +0.000 HD
ATOM     26  H   UNL     1      50.580   6.681  10.578  0.00  0.00    +0.000 HD
ENDBRANCH  16  23
ENDBRANCH  15  19
ENDBRANCH   1  15
TORSDOF 5
ENDMDL
MODEL 6
REMARK VINA RESULT:    -7.733      3.732      7.398
REMARK INTER + INTRA:         -10.833
REMARK INTER:                 -10.825
REMARK INTRA:                  -0.008
REMARK UNBOUND:                -0.839
REMARK  Name = 
REMARK  5 active torsions:
REMARK  status: ('A' for Active; 'I' for Inactive)
REMARK    1  A    between atoms: C_2  and  C_4
REMARK    2  A    between atoms: C_7  and  C_8
REMARK    3  A    between atoms: C_8  and  O_9
REMARK    4  A    between atoms: O_9  and  C_10
REMARK    5  A    between atoms: C_14  and  C_15
REMARK                            x       y       z     vdW  Elec       q    Type
REMARK                         _______ _______ _______ _____ _____    ______ ____
ROOT
ATOM      1  O   UNL     1      44.839   6.676  11.507  0.00  0.00    +0.000 OA
ENDROOT
BRANCH   1   2
ATOM      2  C   UNL     1      44.613   5.437  10.978  0.00  0.00    +0.000 A 
ATOM      3  C   UNL     1      43.562   4.716  11.526  0.00  0.00    +0.000 A 
ATOM      4  N   UNL     1      43.199   3.479  11.124  0.00  0.00    +0.000 NA
ATOM      5  C   UNL     1      43.925   2.937  10.117  0.00  0.00    +0.000 A 
ATOM      6  C   UNL     1      45.010   3.550   9.484  0.00  0.00    +0.000 A 
ATOM      7  C   UNL     1      45.341   4.834   9.949  0.00  0.00    +0.000 A 
BRANCH   6   8
ATOM      8  C   UNL     1      45.753   2.894   8.388  0.00  0.00    +0.000 A 
ATOM      9  C   UNL     1      46.249   3.634   7.296  0.00  0.00    +0.000 A 
ATOM     10  C   UNL     1      46.998   3.032   6.279  0.00  0.00    +0.000 A 
ATOM     11  C   UNL     1      47.254   1.665   6.323  0.00  0.00    +0.000 A 
ATOM     12  C   UNL     1      46.750   0.916   7.374  0.00  0.00    +0.000 A 
ATOM     13  F   UNL     1      46.984  -0.402   7.417  0.00  0.00    +0.000 F 
ATOM     14  C   UNL     1      46.012   1.511   8.396  0.00  0.00    +0.000 A 
ENDBRANCH   6   8
ENDBRANCH   1   2
BRANCH   1  15
ATOM     15  C   UNL     1      46.205   7.053  11.669  0.00  0.00    +0.000 C 
BRANCH  15  19
ATOM     16  C   UNL     1      47.729   5.373  15.344  0.00  0.00    +0.000 A 
ATOM     17  C   UNL     1      48.304   6.539  14.825  0.00  0.00    +0.000 A 
ATOM     18  C   UNL     1      47.829   7.077  13.626  0.00  0.00    +0.000 A 
ATOM     19  C   UNL     1      46.790   6.449  12.925  0.00  0.00    +0.000 A 
ATOM     20  C   UNL     1      46.226   5.275  13.448  0.00  0.00    +0.000 A 
ATOM     21  C   UNL     1      46.700   4.736  14.644  0.00  0.00    +0.000 A 
BRANCH  16  23
ATOM     22  N   UNL     1      47.343   4.899  17.698  0.00  0.00    +0.000 N 
ATOM     23  C   UNL     1      48.181   4.781  16.625  0.00  0.00    +0.000 C 
ATOM     24  O   UNL     1      49.237   4.170  16.718  0.00  0.00    +0.000 OA
ATOM     25  H   UNL     1      47.608   4.387  18.530  0.00  0.00    +0.000 HD
ATOM     26  H   UNL     1      46.370   5.154  17.594  0.00  0.00    +0.000 HD
ENDBRANCH  16  23
ENDBRANCH  15  19
ENDBRANCH   1  15
TORSDOF 5
ENDMDL
MODEL 7
REMARK VINA RESULT:    -7.479      1.546      2.051
REMARK INTER + INTRA:         -10.504
REMARK INTER:                  -9.999
REMARK INTRA:                  -0.505
REMARK UNBOUND:                -0.839
REMARK  Name = 
REMARK  5 active torsions:
REMARK  status: ('A' for Active; 'I' for Inactive)
REMARK    1  A    between atoms: C_2  and  C_4
REMARK    2  A    between atoms: C_7  and  C_8
REMARK    3  A    between atoms: C_8  and  O_9
REMARK    4  A    between atoms: O_9  and  C_10
REMARK    5  A    between atoms: C_14  and  C_15
REMARK                            x       y       z     vdW  Elec       q    Type
REMARK                         _______ _______ _______ _____ _____    ______ ____
ROOT
ATOM      1  O   UNL     1      43.403   3.857  10.215  0.00  0.00    +0.000 OA
ENDROOT
BRANCH   1   2
ATOM      2  C   UNL     1      43.854   4.735  11.158  0.00  0.00    +0.000 A 
ATOM      3  C   UNL     1      43.179   4.735  12.371  0.00  0.00    +0.000 A 
ATOM      4  N   UNL     1      43.491   5.536  13.413  0.00  0.00    +0.000 NA
ATOM      5  C   UNL     1      44.535   6.378  13.232  0.00  0.00    +0.000 A 
ATOM      6  C   UNL     1      45.293   6.485  12.062  0.00  0.00    +0.000 A 
ATOM      7  C   UNL     1      44.918   5.629  11.014  0.00  0.00    +0.000 A 
BRANCH   6   8
ATOM      8  C   UNL     1      46.423   7.429  11.941  0.00  0.00    +0.000 A 
ATOM      9  C   UNL     1      46.241   8.814  12.131  0.00  0.00    +0.000 A 
ATOM     10  C   UNL     1      47.313   9.712  12.070  0.00  0.00    +0.000 A 
ATOM     11  C   UNL     1      48.595   9.244  11.800  0.00  0.00    +0.000 A 
ATOM     12  C   UNL     1      48.788   7.888  11.583  0.00  0.00    +0.000 A 
ATOM     13  F   UNL     1      50.018   7.433  11.312  0.00  0.00    +0.000 F 
ATOM     14  C   UNL     1      47.727   6.987  11.652  0.00  0.00    +0.000 A 
ENDBRANCH   6   8
ENDBRANCH   1   2
BRANCH   1  15
ATOM     15  C   UNL     1      44.042   2.582  10.184  0.00  0.00    +0.000 C 
BRANCH  15  19
ATOM     16  C   UNL     1      46.792   2.380   6.861  0.00  0.00    +0.000 A 
ATOM     17  C   UNL     1      46.565   1.241   7.640  0.00  0.00    +0.000 A 
ATOM     18  C   UNL     1      45.691   1.304   8.730  0.00  0.00    +0.000 A 
ATOM     19  C   UNL     1      45.051   2.506   9.062  0.00  0.00    +0.000 A 
ATOM     20  C   UNL     1      45.293   3.646   8.279  0.00  0.00    +0.000 A 
ATOM     21  C   UNL     1      46.165   3.585   7.193  0.00  0.00    +0.000 A 
BRANCH  16  23
ATOM     22  N   UNL     1      47.469   3.289   4.708  0.00  0.00    +0.000 N 
ATOM     23  C   UNL     1      47.689   2.355   5.680  0.00  0.00    +0.000 C 
ATOM     24  O   UNL     1      48.619   1.565   5.592  0.00  0.00    +0.000 OA
ATOM     25  H   UNL     1      48.160   3.339   3.971  0.00  0.00    +0.000 HD
ATOM     26  H   UNL     1      46.896   4.107   4.869  0.00  0.00    +0.000 HD
ENDBRANCH  16  23
ENDBRANCH  15  19
ENDBRANCH   1  15
TORSDOF 5
ENDMDL
MODEL 8
REMARK VINA RESULT:    -6.819      1.888      2.413
REMARK INTER + INTRA:          -9.651
REMARK INTER:                  -9.401
REMARK INTRA:                  -0.251
REMARK UNBOUND:                -0.839
REMARK  Name = 
REMARK  5 active torsions:
REMARK  status: ('A' for Active; 'I' for Inactive)
REMARK    1  A    between atoms: C_2  and  C_4
REMARK    2  A    between atoms: C_7  and  C_8
REMARK    3  A    between atoms: C_8  and  O_9
REMARK    4  A    between atoms: O_9  and  C_10
REMARK    5  A    between atoms: C_14  and  C_15
REMARK                            x       y       z     vdW  Elec       q    Type
REMARK                         _______ _______ _______ _____ _____    ______ ____
ROOT
ATOM      1  O   UNL     1      43.387   5.163  10.644  0.00  0.00    +0.000 OA
ENDROOT
BRANCH   1   2
ATOM      2  C   UNL     1      44.070   6.268  11.067  0.00  0.00    +0.000 A 
ATOM      3  C   UNL     1      43.399   7.479  10.973  0.00  0.00    +0.000 A 
ATOM      4  N   UNL     1      43.922   8.667  11.346  0.00  0.00    +0.000 NA
ATOM      5  C   UNL     1      45.181   8.640  11.843  0.00  0.00    +0.000 A 
ATOM      6  C   UNL     1      45.969   7.494  11.984  0.00  0.00    +0.000 A 
ATOM      7  C   UNL     1      45.371   6.290  11.575  0.00  0.00    +0.000 A 
BRANCH   6   8
ATOM      8  C   UNL     1      47.338   7.545  12.538  0.00  0.00    +0.000 A 
ATOM      9  C   UNL     1      47.563   7.548  13.929  0.00  0.00    +0.000 A 
ATOM     10  C   UNL     1      48.856   7.545  14.465  0.00  0.00    +0.000 A 
ATOM     11  C   UNL     1      49.958   7.554  13.616  0.00  0.00    +0.000 A 
ATOM     12  C   UNL     1      49.756   7.580  12.245  0.00  0.00    +0.000 A 
ATOM     13  F   UNL     1      50.813   7.601  11.423  0.00  0.00    +0.000 F 
ATOM     14  C   UNL     1      48.471   7.574  11.705  0.00  0.00    +0.000 A 
ENDBRANCH   6   8
ENDBRANCH   1   2
BRANCH   1  15
ATOM     15  C   UNL     1      44.028   3.907  10.857  0.00  0.00    +0.000 C 
BRANCH  15  19
ATOM     16  C   UNL     1      46.421   2.661   7.484  0.00  0.00    +0.000 A 
ATOM     17  C   UNL     1      46.186   4.023   7.700  0.00  0.00    +0.000 A 
ATOM     18  C   UNL     1      45.396   4.433   8.779  0.00  0.00    +0.000 A 
ATOM     19  C   UNL     1      44.819   3.488   9.639  0.00  0.00    +0.000 A 
ATOM     20  C   UNL     1      45.053   2.124   9.408  0.00  0.00    +0.000 A 
ATOM     21  C   UNL     1      45.839   1.713   8.333  0.00  0.00    +0.000 A 
BRANCH  16  23
ATOM     22  N   UNL     1      47.051   2.721   5.136  0.00  0.00    +0.000 N 
ATOM     23  C   UNL     1      47.273   2.180   6.370  0.00  0.00    +0.000 C 
ATOM     24  O   UNL     1      48.171   1.370   6.548  0.00  0.00    +0.000 OA
ATOM     25  H   UNL     1      47.717   2.477   4.414  0.00  0.00    +0.000 HD
ATOM     26  H   UNL     1      46.513   3.568   5.009  0.00  0.00    +0.000 HD
ENDBRANCH  16  23
ENDBRANCH  15  19
ENDBRANCH   1  15
TORSDOF 5
ENDMDL
MODEL 9
REMARK VINA RESULT:    -6.511      3.943      5.993
REMARK INTER + INTRA:          -9.253
REMARK INTER:                  -8.407
REMARK INTRA:                  -0.846
REMARK UNBOUND:                -0.839
REMARK  Name = 
REMARK  5 active torsions:
REMARK  status: ('A' for Active; 'I' for Inactive)
REMARK    1  A    between atoms: C_2  and  C_4
REMARK    2  A    between atoms: C_7  and  C_8
REMARK    3  A    between atoms: C_8  and  O_9
REMARK    4  A    between atoms: O_9  and  C_10
REMARK    5  A    between atoms: C_14  and  C_15
REMARK                            x       y       z     vdW  Elec       q    Type
REMARK                         _______ _______ _______ _____ _____    ______ ____
ROOT
ATOM      1  O   UNL     1      47.459   7.883  12.430  0.00  0.00    +0.000 OA
ENDROOT
BRANCH   1   2
ATOM      2  C   UNL     1      48.168   7.739  13.589  0.00  0.00    +0.000 A 
ATOM      3  C   UNL     1      49.037   8.772  13.909  0.00  0.00    +0.000 A 
ATOM      4  N   UNL     1      49.812   8.795  15.016  0.00  0.00    +0.000 NA
ATOM      5  C   UNL     1      49.707   7.730  15.845  0.00  0.00    +0.000 A 
ATOM      6  C   UNL     1      48.879   6.623  15.637  0.00  0.00    +0.000 A 
ATOM      7  C   UNL     1      48.101   6.656  14.468  0.00  0.00    +0.000 A 
BRANCH   6   8
ATOM      8  C   UNL     1      48.818   5.497  16.592  0.00  0.00    +0.000 A 
ATOM      9  C   UNL     1      49.832   5.296  17.550  0.00  0.00    +0.000 A 
ATOM     10  C   UNL     1      49.760   4.264  18.492  0.00  0.00    +0.000 A 
ATOM     11  C   UNL     1      48.673   3.395  18.487  0.00  0.00    +0.000 A 
ATOM     12  C   UNL     1      47.680   3.560  17.534  0.00  0.00    +0.000 A 
ATOM     13  F   UNL     1      46.637   2.720  17.516  0.00  0.00    +0.000 F 
ATOM     14  C   UNL     1      47.741   4.592  16.599  0.00  0.00    +0.000 A 
ENDBRANCH   6   8
ENDBRANCH   1   2
BRANCH   1  15
ATOM     15  C   UNL     1      46.039   7.912  12.559  0.00  0.00    +0.000 C 
BRANCH  15  19
ATOM     16  C   UNL     1      44.379   4.120  11.328  0.00  0.00    +0.000 A 
ATOM     17  C   UNL     1      45.246   4.806  10.471  0.00  0.00    +0.000 A 
ATOM     18  C   UNL     1      45.771   6.044  10.855  0.00  0.00    +0.000 A 
ATOM     19  C   UNL     1      45.423   6.615  12.086  0.00  0.00    +0.000 A 
ATOM     20  C   UNL     1      44.546   5.923  12.935  0.00  0.00    +0.000 A 
ATOM     21  C   UNL     1      44.020   4.689  12.554  0.00  0.00    +0.000 A 
BRANCH  16  23
ATOM     22  N   UNL     1      44.353   2.157   9.892  0.00  0.00    +0.000 N 
ATOM     23  C   UNL     1      43.819   2.793  10.977  0.00  0.00    +0.000 C 
ATOM     24  O   UNL     1      42.949   2.260  11.651  0.00  0.00    +0.000 OA
ATOM     25  H   UNL     1      44.048   1.205   9.736  0.00  0.00    +0.000 HD
ATOM     26  H   UNL     1      45.234   2.439   9.483  0.00  0.00    +0.000 HD
ENDBRANCH  16  23
ENDBRANCH  15  19
ENDBRANCH   1  15
TORSDOF 5
ENDMDL
