MODEL 1
REMARK VINA RESULT:    -7.923      0.000      0.000
REMARK INTER + INTRA:         -11.330
REMARK INTER:                 -10.471
REMARK INTRA:                  -0.860
REMARK UNBOUND:                -0.860
REMARK  Name = 
REMARK  6 active torsions:
REMARK  status: ('A' for Active; 'I' for Inactive)
REMARK    1  A    between atoms: N_1  and  C_2
REMARK    2  A    between atoms: C_2  and  C_3
REMARK    3  A    between atoms: C_3  and  C_4
REMARK    4  A    between atoms: C_7  and  C_8
REMARK    5  A    between atoms: C_8  and  N_9
REMARK    6  A    between atoms: C_14  and  C_15
REMARK                            x       y       z     vdW  Elec       q    Type
REMARK                         _______ _______ _______ _____ _____    ______ ____
ROOT
ATOM      1  N   UNL     1      43.831   4.200  10.507  0.00  0.00    +0.000 N 
ATOM      2  N   UNL     1      43.239   3.166  11.150  0.00  0.00    +0.000 NA
ATOM      3  C   UNL     1      43.818   2.096  10.597  0.00  0.00    +0.000 A 
ATOM      4  C   UNL     1      44.706   2.437   9.554  0.00  0.00    +0.000 A 
ATOM      5  C   UNL     1      45.628   1.755   8.744  0.00  0.00    +0.000 A 
ATOM      6  C   UNL     1      46.352   2.475   7.774  0.00  0.00    +0.000 A 
ATOM      7  C   UNL     1      46.057   3.825   7.541  0.00  0.00    +0.000 A 
ATOM      8  C   UNL     1      45.156   4.522   8.356  0.00  0.00    +0.000 A 
ATOM      9  C   UNL     1      44.552   3.810   9.398  0.00  0.00    +0.000 A 
ENDROOT
BRANCH   6  10
ATOM     10  C   UNL     1      47.477   1.761   7.100  0.00  0.00    +0.000 C 
ATOM     11  N   UNL     1      48.426   2.492   6.445  0.00  0.00    +0.000 N 
ATOM     12  O   UNL     1      47.589   0.542   7.165  0.00  0.00    +0.000 OA
ATOM     13  H   UNL     1      48.429   3.493   6.338  0.00  0.00    +0.000 HD
ATOM     14  H   UNL     1      49.212   1.975   6.071  0.00  0.00    +0.000 HD
ENDBRANCH   6  10
BRANCH   1  15
ATOM     15  C   UNL     1      43.877   5.513  11.145  0.00  0.00    +0.000 C 
BRANCH  15  19
ATOM     16  C   UNL     1      47.730   6.332  13.018  0.00  0.00    +0.000 A 
ATOM     17  C   UNL     1      46.859   5.376  13.552  0.00  0.00    +0.000 A 
ATOM     18  C   UNL     1      45.636   5.086  12.933  0.00  0.00    +0.000 A 
ATOM     19  C   UNL     1      45.239   5.758  11.769  0.00  0.00    +0.000 A 
ATOM     20  C   UNL     1      46.102   6.724  11.234  0.00  0.00    +0.000 A 
ATOM     21  C   UNL     1      47.327   7.008  11.850  0.00  0.00    +0.000 A 
BRANCH  16  22
ATOM     22  C   UNL     1      49.025   6.745  13.685  0.00  0.00    +0.000 C 
BRANCH  22  23
ATOM     23  C   UNL     1      48.953   7.037  15.191  0.00  0.00    +0.000 C 
BRANCH  23  24
ATOM     24  N   UNL     1      49.478   5.915  15.975  0.00  0.00    +0.000 NA
ATOM     25  H   UNL     1      50.425   5.705  15.662  0.00  0.00    +0.000 HD
ATOM     26  H   UNL     1      48.923   5.079  15.790  0.00  0.00    +0.000 HD
ENDBRANCH  23  24
ENDBRANCH  22  23
ENDBRANCH  16  22
ENDBRANCH  15  19
ENDBRANCH   1  15
TORSDOF 6
ENDMDL
MODEL 2
REMARK VINA RESULT:    -7.750      2.505      6.481
REMARK INTER + INTRA:         -11.101
REMARK INTER:                 -10.347
REMARK INTRA:                  -0.754
REMARK UNBOUND:                -0.860
REMARK  Name = 
REMARK  6 active torsions:
REMARK  status: ('A' for Active; 'I' for Inactive)
REMARK    1  A    between atoms: N_1  and  C_2
REMARK    2  A    between atoms: C_2  and  C_3
REMARK    3  A    between atoms: C_3  and  C_4
REMARK    4  A    between atoms: C_7  and  C_8
REMARK    5  A    between atoms: C_8  and  N_9
REMARK    6  A    between atoms: C_14  and  C_15
REMARK                            x       y       z     vdW  Elec       q    Type
REMARK                         _______ _______ _______ _____ _____    ______ ____
ROOT
ATOM      1  N   UNL     1      43.851   5.921  11.580  0.00  0.00    +0.000 N 
ATOM      2  N   UNL     1      43.468   7.140  11.131  0.00  0.00    +0.000 NA
ATOM      3  C   UNL     1      44.524   7.910  11.410  0.00  0.00    +0.000 A 
ATOM      4  C   UNL     1      45.536   7.213  12.105  0.00  0.00    +0.000 A 
ATOM      5  C   UNL     1      46.847   7.484  12.527  0.00  0.00    +0.000 A 
ATOM      6  C   UNL     1      47.562   6.491  13.225  0.00  0.00    +0.000 A 
ATOM      7  C   UNL     1      46.921   5.302  13.601  0.00  0.00    +0.000 A 
ATOM      8  C   UNL     1      45.621   5.010  13.168  0.00  0.00    +0.000 A 
ATOM      9  C   UNL     1      44.986   5.962  12.362  0.00  0.00    +0.000 A 
ENDROOT
BRANCH   6  10
ATOM     10  C   UNL     1      49.017   6.734  13.448  0.00  0.00    +0.000 C 
ATOM     11  N   UNL     1      49.799   7.091  12.387  0.00  0.00    +0.000 N 
ATOM     12  O   UNL     1      49.512   6.666  14.568  0.00  0.00    +0.000 OA
ATOM     13  H   UNL     1      49.492   7.179  11.433  0.00  0.00    +0.000 HD
ATOM     14  H   UNL     1      50.762   7.323  12.597  0.00  0.00    +0.000 HD
ENDBRANCH   6  10
BRANCH   1  15
ATOM     15  C   UNL     1      43.234   4.722  11.019  0.00  0.00    +0.000 C 
BRANCH  15  19
ATOM     16  C   UNL     1      45.891   2.652   8.248  0.00  0.00    +0.000 A 
ATOM     17  C   UNL     1      45.808   4.049   8.258  0.00  0.00    +0.000 A 
ATOM     18  C   UNL     1      44.981   4.718   9.170  0.00  0.00    +0.000 A 
ATOM     19  C   UNL     1      44.198   4.008  10.090  0.00  0.00    +0.000 A 
ATOM     20  C   UNL     1      44.269   2.608  10.079  0.00  0.00    +0.000 A 
ATOM     21  C   UNL     1      45.101   1.941   9.172  0.00  0.00    +0.000 A 
BRANCH  16  22
ATOM     22  C   UNL     1      46.703   1.872   7.235  0.00  0.00    +0.000 C 
BRANCH  22  23
ATOM     23  C   UNL     1      47.849   2.632   6.551  0.00  0.00    +0.000 C 
BRANCH  23  24
ATOM     24  N   UNL     1      48.558   1.775   5.596  0.00  0.00    +0.000 NA
ATOM     25  H   UNL     1      48.426   0.800   5.862  0.00  0.00    +0.000 HD
ATOM     26  H   UNL     1      49.561   1.955   5.654  0.00  0.00    +0.000 HD
ENDBRANCH  23  24
ENDBRANCH  22  23
ENDBRANCH  16  22
ENDBRANCH  15  19
ENDBRANCH   1  15
TORSDOF 6
ENDMDL
MODEL 3
REMARK VINA RESULT:    -7.451      1.702      2.100
REMARK INTER + INTRA:         -10.706
REMARK INTER:                 -10.713
REMARK INTRA:                   0.007
REMARK UNBOUND:                -0.860
REMARK  Name = 
REMARK  6 active torsions:
REMARK  status: ('A' for Active; 'I' for Inactive)
REMARK    1  A    between atoms: N_1  and  C_2
REMARK    2  A    between atoms: C_2  and  C_3
REMARK    3  A    between atoms: C_3  and  C_4
REMARK    4  A    between atoms: C_7  and  C_8
REMARK    5  A    between atoms: C_8  and  N_9
REMARK    6  A    between atoms: C_14  and  C_15
REMARK                            x       y       z     vdW  Elec       q    Type
REMARK                         _______ _______ _______ _____ _____    ______ ____
ROOT
ATOM      1  N   UNL     1      44.616   4.975  10.398  0.00  0.00    +0.000 N 
ATOM      2  N   UNL     1      43.612   4.295  11.001  0.00  0.00    +0.000 NA
ATOM      3  C   UNL     1      43.729   3.068  10.487  0.00  0.00    +0.000 A 
ATOM      4  C   UNL     1      44.739   2.984   9.503  0.00  0.00    +0.000 A 
ATOM      5  C   UNL     1      45.342   1.962   8.754  0.00  0.00    +0.000 A 
ATOM      6  C   UNL     1      46.355   2.293   7.833  0.00  0.00    +0.000 A 
ATOM      7  C   UNL     1      46.659   3.638   7.582  0.00  0.00    +0.000 A 
ATOM      8  C   UNL     1      46.080   4.666   8.338  0.00  0.00    +0.000 A 
ATOM      9  C   UNL     1      45.175   4.294   9.339  0.00  0.00    +0.000 A 
ENDROOT
BRANCH   6  10
ATOM     10  C   UNL     1      47.122   1.162   7.234  0.00  0.00    +0.000 C 
ATOM     11  N   UNL     1      46.855  -0.113   7.647  0.00  0.00    +0.000 N 
ATOM     12  O   UNL     1      47.949   1.350   6.348  0.00  0.00    +0.000 OA
ATOM     13  H   UNL     1      46.195  -0.373   8.360  0.00  0.00    +0.000 HD
ATOM     14  H   UNL     1      47.341  -0.854   7.158  0.00  0.00    +0.000 HD
ENDBRANCH   6  10
BRANCH   1  15
ATOM     15  C   UNL     1      45.162   6.169  11.039  0.00  0.00    +0.000 C 
BRANCH  15  19
ATOM     16  C   UNL     1      47.213   5.030  14.715  0.00  0.00    +0.000 A 
ATOM     17  C   UNL     1      47.695   6.072  13.915  0.00  0.00    +0.000 A 
ATOM     18  C   UNL     1      47.020   6.462  12.752  0.00  0.00    +0.000 A 
ATOM     19  C   UNL     1      45.849   5.810  12.344  0.00  0.00    +0.000 A 
ATOM     20  C   UNL     1      45.365   4.760  13.135  0.00  0.00    +0.000 A 
ATOM     21  C   UNL     1      46.037   4.375  14.301  0.00  0.00    +0.000 A 
BRANCH  16  22
ATOM     22  C   UNL     1      47.941   4.510  15.937  0.00  0.00    +0.000 C 
BRANCH  22  23
ATOM     23  C   UNL     1      47.148   4.509  17.253  0.00  0.00    +0.000 C 
BRANCH  23  24
ATOM     24  N   UNL     1      46.761   3.148  17.636  0.00  0.00    +0.000 NA
ATOM     25  H   UNL     1      47.371   2.482  17.164  0.00  0.00    +0.000 HD
ATOM     26  H   UNL     1      45.815   2.955  17.305  0.00  0.00    +0.000 HD
ENDBRANCH  23  24
ENDBRANCH  22  23
ENDBRANCH  16  22
ENDBRANCH  15  19
ENDBRANCH   1  15
TORSDOF 6
ENDMDL
MODEL 4
REMARK VINA RESULT:    -7.020      2.969      7.055
REMARK INTER + INTRA:         -10.136
REMARK INTER:                  -9.528
REMARK INTRA:                  -0.608
REMARK UNBOUND:                -0.860
REMARK  Name = 
REMARK  6 active torsions:
REMARK  status: ('A' for Active; 'I' for Inactive)
REMARK    1  A    between atoms: N_1  and  C_2
REMARK    2  A    between atoms: C_2  and  C_3
REMARK    3  A    between atoms: C_3  and  C_4
REMARK    4  A    between atoms: C_7  and  C_8
REMARK    5  A    between atoms: C_8  and  N_9
REMARK    6  A    between atoms: C_14  and  C_15
REMARK                            x       y       z     vdW  Elec       q    Type
REMARK                         _______ _______ _______ _____ _____    ______ ____
ROOT
ATOM      1  N   UNL     1      45.870   4.785  12.429  0.00  0.00    +0.000 N 
ATOM      2  N   UNL     1      46.031   3.819  13.364  0.00  0.00    +0.000 NA
ATOM      3  C   UNL     1      46.829   4.400  14.264  0.00  0.00    +0.000 A 
ATOM      4  C   UNL     1      47.243   5.691  13.869  0.00  0.00    +0.000 A 
ATOM      5  C   UNL     1      47.957   6.750  14.453  0.00  0.00    +0.000 A 
ATOM      6  C   UNL     1      48.176   7.923  13.706  0.00  0.00    +0.000 A 
ATOM      7  C   UNL     1      47.796   7.975  12.358  0.00  0.00    +0.000 A 
ATOM      8  C   UNL     1      47.064   6.935  11.770  0.00  0.00    +0.000 A 
ATOM      9  C   UNL     1      46.745   5.839  12.579  0.00  0.00    +0.000 A 
ENDROOT
BRANCH   6  10
ATOM     10  C   UNL     1      48.732   9.099  14.438  0.00  0.00    +0.000 C 
ATOM     11  N   UNL     1      48.013   9.638  15.468  0.00  0.00    +0.000 N 
ATOM     12  O   UNL     1      49.836   9.557  14.166  0.00  0.00    +0.000 OA
ATOM     13  H   UNL     1      47.104   9.334  15.772  0.00  0.00    +0.000 HD
ATOM     14  H   UNL     1      48.462  10.382  15.987  0.00  0.00    +0.000 HD
ENDBRANCH   6  10
BRANCH   1  15
ATOM     15  C   UNL     1      44.692   4.761  11.566  0.00  0.00    +0.000 C 
BRANCH  15  19
ATOM     16  C   UNL     1      45.816   3.045   7.717  0.00  0.00    +0.000 A 
ATOM     17  C   UNL     1      45.254   2.251   8.722  0.00  0.00    +0.000 A 
ATOM     18  C   UNL     1      44.860   2.805   9.947  0.00  0.00    +0.000 A 
ATOM     19  C   UNL     1      45.033   4.171  10.210  0.00  0.00    +0.000 A 
ATOM     20  C   UNL     1      45.604   4.971   9.210  0.00  0.00    +0.000 A 
ATOM     21  C   UNL     1      45.991   4.417   7.985  0.00  0.00    +0.000 A 
BRANCH  16  22
ATOM     22  C   UNL     1      46.334   2.490   6.406  0.00  0.00    +0.000 C 
BRANCH  22  23
ATOM     23  C   UNL     1      47.688   1.767   6.462  0.00  0.00    +0.000 C 
BRANCH  23  24
ATOM     24  N   UNL     1      48.800   2.711   6.321  0.00  0.00    +0.000 NA
ATOM     25  H   UNL     1      49.648   2.196   6.093  0.00  0.00    +0.000 HD
ATOM     26  H   UNL     1      48.975   3.169   7.216  0.00  0.00    +0.000 HD
ENDBRANCH  23  24
ENDBRANCH  22  23
ENDBRANCH  16  22
ENDBRANCH  15  19
ENDBRANCH   1  15
TORSDOF 6
ENDMDL
MODEL 5
REMARK VINA RESULT:    -6.279      3.952      6.302
REMARK INTER + INTRA:          -9.158
REMARK INTER:                  -8.792
REMARK INTRA:                  -0.366
REMARK UNBOUND:                -0.860
REMARK  Name = 
REMARK  6 active torsions:
REMARK  status: ('A' for Active; 'I' for Inactive)
REMARK    1  A    between atoms: N_1  and  C_2
REMARK    2  A    between atoms: C_2  and  C_3
REMARK    3  A    between atoms: C_3  and  C_4
REMARK    4  A    between atoms: C_7  and  C_8
REMARK    5  A    between atoms: C_8  and  N_9
REMARK    6  A    between atoms: C_14  and  C_15
REMARK                            x       y       z     vdW  Elec       q    Type
REMARK                         _______ _______ _______ _____ _____    ______ ____
ROOT
ATOM      1  N   UNL     1      47.516   4.930  14.937  0.00  0.00    +0.000 N 
ATOM      2  N   UNL     1      48.216   6.082  14.809  0.00  0.00    +0.000 NA
ATOM      3  C   UNL     1      47.755   6.590  13.664  0.00  0.00    +0.000 A 
ATOM      4  C   UNL     1      46.833   5.735  13.022  0.00  0.00    +0.000 A 
ATOM      5  C   UNL     1      45.989   5.810  11.903  0.00  0.00    +0.000 A 
ATOM      6  C   UNL     1      45.190   4.699  11.570  0.00  0.00    +0.000 A 
ATOM      7  C   UNL     1      45.338   3.496  12.274  0.00  0.00    +0.000 A 
ATOM      8  C   UNL     1      46.160   3.414  13.405  0.00  0.00    +0.000 A 
ATOM      9  C   UNL     1      46.839   4.576  13.790  0.00  0.00    +0.000 A 
ENDROOT
BRANCH   6  10
ATOM     10  C   UNL     1      44.147   4.904  10.522  0.00  0.00    +0.000 C 
ATOM     11  N   UNL     1      43.224   5.896  10.692  0.00  0.00    +0.000 N 
ATOM     12  O   UNL     1      44.133   4.233   9.496  0.00  0.00    +0.000 OA
ATOM     13  H   UNL     1      43.152   6.502  11.492  0.00  0.00    +0.000 HD
ATOM     14  H   UNL     1      42.585   6.051   9.922  0.00  0.00    +0.000 HD
ENDBRANCH   6  10
BRANCH   1  15
ATOM     15  C   UNL     1      47.330   4.344  16.263  0.00  0.00    +0.000 C 
BRANCH  15  19
ATOM     16  C   UNL     1      51.162   2.796  17.656  0.00  0.00    +0.000 A 
ATOM     17  C   UNL     1      50.833   4.147  17.810  0.00  0.00    +0.000 A 
ATOM     18  C   UNL     1      49.589   4.640  17.395  0.00  0.00    +0.000 A 
ATOM     19  C   UNL     1      48.643   3.798  16.795  0.00  0.00    +0.000 A 
ATOM     20  C   UNL     1      48.969   2.446  16.629  0.00  0.00    +0.000 A 
ATOM     21  C   UNL     1      50.209   1.953  17.051  0.00  0.00    +0.000 A 
BRANCH  16  22
ATOM     22  C   UNL     1      52.518   2.222  18.011  0.00  0.00    +0.000 C 
BRANCH  22  23
ATOM     23  C   UNL     1      52.862   0.857  17.396  0.00  0.00    +0.000 C 
BRANCH  23  24
ATOM     24  N   UNL     1      52.716  -0.220  18.380  0.00  0.00    +0.000 NA
ATOM     25  H   UNL     1      53.268   0.007  19.206  0.00  0.00    +0.000 HD
ATOM     26  H   UNL     1      53.105  -1.084  18.002  0.00  0.00    +0.000 HD
ENDBRANCH  23  24
ENDBRANCH  22  23
ENDBRANCH  16  22
ENDBRANCH  15  19
ENDBRANCH   1  15
TORSDOF 6
ENDMDL
MODEL 6
REMARK VINA RESULT:    -5.348      4.230      6.266
REMARK INTER + INTRA:          -7.927
REMARK INTER:                  -7.125
REMARK INTRA:                  -0.802
REMARK UNBOUND:                -0.860
REMARK  Name = 
REMARK  6 active torsions:
REMARK  status: ('A' for Active; 'I' for Inactive)
REMARK    1  A    between atoms: N_1  and  C_2
REMARK    2  A    between atoms: C_2  and  C_3
REMARK    3  A    between atoms: C_3  and  C_4
REMARK    4  A    between atoms: C_7  and  C_8
REMARK    5  A    between atoms: C_8  and  N_9
REMARK    6  A    between atoms: C_14  and  C_15
REMARK                            x       y       z     vdW  Elec       q    Type
REMARK                         _______ _______ _______ _____ _____    ______ ____
ROOT
ATOM      1  N   UNL     1      47.999   8.653  12.875  0.00  0.00    +0.000 N 
ATOM      2  N   UNL     1      47.382   9.794  12.484  0.00  0.00    +0.000 NA
ATOM      3  C   UNL     1      46.117   9.405  12.302  0.00  0.00    +0.000 A 
ATOM      4  C   UNL     1      45.942   8.017  12.490  0.00  0.00    +0.000 A 
ATOM      5  C   UNL     1      44.856   7.129  12.538  0.00  0.00    +0.000 A 
ATOM      6  C   UNL     1      45.100   5.758  12.753  0.00  0.00    +0.000 A 
ATOM      7  C   UNL     1      46.417   5.279  12.788  0.00  0.00    +0.000 A 
ATOM      8  C   UNL     1      47.508   6.157  12.763  0.00  0.00    +0.000 A 
ATOM      9  C   UNL     1      47.229   7.526  12.684  0.00  0.00    +0.000 A 
ENDROOT
BRANCH   6  10
ATOM     10  C   UNL     1      43.914   4.894  13.026  0.00  0.00    +0.000 C 
ATOM     11  N   UNL     1      42.673   5.463  13.056  0.00  0.00    +0.000 N 
ATOM     12  O   UNL     1      44.028   3.682  13.175  0.00  0.00    +0.000 OA
ATOM     13  H   UNL     1      42.472   6.442  12.942  0.00  0.00    +0.000 HD
ATOM     14  H   UNL     1      41.891   4.829  13.166  0.00  0.00    +0.000 HD
ENDBRANCH   6  10
BRANCH   1  15
ATOM     15  C   UNL     1      49.230   8.733  13.657  0.00  0.00    +0.000 C 
BRANCH  15  19
ATOM     16  C   UNL     1      48.764   7.135  17.688  0.00  0.00    +0.000 A 
ATOM     17  C   UNL     1      48.243   8.388  17.346  0.00  0.00    +0.000 A 
ATOM     18  C   UNL     1      48.361   8.889  16.043  0.00  0.00    +0.000 A 
ATOM     19  C   UNL     1      49.021   8.158  15.046  0.00  0.00    +0.000 A 
ATOM     20  C   UNL     1      49.553   6.906  15.384  0.00  0.00    +0.000 A 
ATOM     21  C   UNL     1      49.429   6.404  16.684  0.00  0.00    +0.000 A 
BRANCH  16  22
ATOM     22  C   UNL     1      48.739   6.577  19.096  0.00  0.00    +0.000 C 
BRANCH  22  23
ATOM     23  C   UNL     1      47.353   6.253  19.674  0.00  0.00    +0.000 C 
BRANCH  23  24
ATOM     24  N   UNL     1      46.587   5.396  18.765  0.00  0.00    +0.000 NA
ATOM     25  H   UNL     1      46.660   4.429  19.078  0.00  0.00    +0.000 HD
ATOM     26  H   UNL     1      47.002   5.427  17.834  0.00  0.00    +0.000 HD
ENDBRANCH  23  24
ENDBRANCH  22  23
ENDBRANCH  16  22
ENDBRANCH  15  19
ENDBRANCH   1  15
TORSDOF 6
ENDMDL
MODEL 7
REMARK VINA RESULT:    -5.168      3.265      5.130
REMARK INTER + INTRA:          -7.689
REMARK INTER:                  -7.246
REMARK INTRA:                  -0.444
REMARK UNBOUND:                -0.860
REMARK  Name = 
REMARK  6 active torsions:
REMARK  status: ('A' for Active; 'I' for Inactive)
REMARK    1  A    between atoms: N_1  and  C_2
REMARK    2  A    between atoms: C_2  and  C_3
REMARK    3  A    between atoms: C_3  and  C_4
REMARK    4  A    between atoms: C_7  and  C_8
REMARK    5  A    between atoms: C_8  and  N_9
REMARK    6  A    between atoms: C_14  and  C_15
REMARK                            x       y       z     vdW  Elec       q    Type
REMARK                         _______ _______ _______ _____ _____    ______ ____
ROOT
ATOM      1  N   UNL     1      46.808   7.511  13.072  0.00  0.00    +0.000 N 
ATOM      2  N   UNL     1      47.630   6.994  14.016  0.00  0.00    +0.000 NA
ATOM      3  C   UNL     1      47.337   5.692  13.991  0.00  0.00    +0.000 A 
ATOM      4  C   UNL     1      46.280   5.389  13.104  0.00  0.00    +0.000 A 
ATOM      5  C   UNL     1      45.667   4.224  12.618  0.00  0.00    +0.000 A 
ATOM      6  C   UNL     1      44.596   4.341  11.710  0.00  0.00    +0.000 A 
ATOM      7  C   UNL     1      44.074   5.605  11.404  0.00  0.00    +0.000 A 
ATOM      8  C   UNL     1      44.690   6.776  11.865  0.00  0.00    +0.000 A 
ATOM      9  C   UNL     1      45.834   6.628  12.657  0.00  0.00    +0.000 A 
ENDROOT
BRANCH   6  10
ATOM     10  C   UNL     1      44.130   3.088  11.046  0.00  0.00    +0.000 C 
ATOM     11  N   UNL     1      44.945   2.480  10.134  0.00  0.00    +0.000 N 
ATOM     12  O   UNL     1      43.058   2.571  11.339  0.00  0.00    +0.000 OA
ATOM     13  H   UNL     1      45.842   2.819   9.829  0.00  0.00    +0.000 HD
ATOM     14  H   UNL     1      44.625   1.593   9.767  0.00  0.00    +0.000 HD
ENDBRANCH   6  10
BRANCH   1  15
ATOM     15  C   UNL     1      47.158   8.773  12.426  0.00  0.00    +0.000 C 
BRANCH  15  19
ATOM     16  C   UNL     1      51.417   8.774  11.484  0.00  0.00    +0.000 A 
ATOM     17  C   UNL     1      50.601   7.693  11.130  0.00  0.00    +0.000 A 
ATOM     18  C   UNL     1      49.227   7.705  11.400  0.00  0.00    +0.000 A 
ATOM     19  C   UNL     1      48.629   8.793  12.050  0.00  0.00    +0.000 A 
ATOM     20  C   UNL     1      49.441   9.875  12.416  0.00  0.00    +0.000 A 
ATOM     21  C   UNL     1      50.813   9.865  12.139  0.00  0.00    +0.000 A 
BRANCH  16  22
ATOM     22  C   UNL     1      52.919   8.784  11.291  0.00  0.00    +0.000 C 
BRANCH  22  23
ATOM     23  C   UNL     1      53.759   8.257  12.463  0.00  0.00    +0.000 C 
BRANCH  23  24
ATOM     24  N   UNL     1      54.213   6.885  12.215  0.00  0.00    +0.000 NA
ATOM     25  H   UNL     1      55.230   6.879  12.141  0.00  0.00    +0.000 HD
ATOM     26  H   UNL     1      53.859   6.565  11.314  0.00  0.00    +0.000 HD
ENDBRANCH  23  24
ENDBRANCH  22  23
ENDBRANCH  16  22
ENDBRANCH  15  19
ENDBRANCH   1  15
TORSDOF 6
ENDMDL
MODEL 8
REMARK VINA RESULT:    -5.160      2.648      5.115
REMARK INTER + INTRA:          -7.679
REMARK INTER:                  -7.106
REMARK INTRA:                  -0.573
REMARK UNBOUND:                -0.860
REMARK  Name = 
REMARK  6 active torsions:
REMARK  status: ('A' for Active; 'I' for Inactive)
REMARK    1  A    between atoms: N_1  and  C_2
REMARK    2  A    between atoms: C_2  and  C_3
REMARK    3  A    between atoms: C_3  and  C_4
REMARK    4  A    between atoms: C_7  and  C_8
REMARK    5  A    between atoms: C_8  and  N_9
REMARK    6  A    between atoms: C_14  and  C_15
REMARK                            x       y       z     vdW  Elec       q    Type
REMARK                         _______ _______ _______ _____ _____    ______ ____
ROOT
ATOM      1  N   UNL     1      47.764   6.092  13.685  0.00  0.00    +0.000 N 
ATOM      2  N   UNL     1      47.707   5.248  14.742  0.00  0.00    +0.000 NA
ATOM      3  C   UNL     1      46.800   4.346  14.360  0.00  0.00    +0.000 A 
ATOM      4  C   UNL     1      46.220   4.654  13.111  0.00  0.00    +0.000 A 
ATOM      5  C   UNL     1      45.338   4.023  12.218  0.00  0.00    +0.000 A 
ATOM      6  C   UNL     1      44.981   4.682  11.026  0.00  0.00    +0.000 A 
ATOM      7  C   UNL     1      45.401   6.001  10.803  0.00  0.00    +0.000 A 
ATOM      8  C   UNL     1      46.297   6.633  11.674  0.00  0.00    +0.000 A 
ATOM      9  C   UNL     1      46.740   5.901  12.782  0.00  0.00    +0.000 A 
ENDROOT
BRANCH   6  10
ATOM     10  C   UNL     1      44.234   3.885  10.009  0.00  0.00    +0.000 C 
ATOM     11  N   UNL     1      44.121   4.373   8.738  0.00  0.00    +0.000 N 
ATOM     12  O   UNL     1      43.764   2.786  10.279  0.00  0.00    +0.000 OA
ATOM     13  H   UNL     1      44.473   5.259   8.415  0.00  0.00    +0.000 HD
ATOM     14  H   UNL     1      43.676   3.766   8.062  0.00  0.00    +0.000 HD
ENDBRANCH   6  10
BRANCH   1  15
ATOM     15  C   UNL     1      48.965   6.894  13.467  0.00  0.00    +0.000 C 
BRANCH  15  19
ATOM     16  C   UNL     1      49.738   9.269  17.043  0.00  0.00    +0.000 A 
ATOM     17  C   UNL     1      50.630   8.270  16.635  0.00  0.00    +0.000 A 
ATOM     18  C   UNL     1      50.402   7.529  15.469  0.00  0.00    +0.000 A 
ATOM     19  C   UNL     1      49.264   7.753  14.682  0.00  0.00    +0.000 A 
ATOM     20  C   UNL     1      48.361   8.746  15.089  0.00  0.00    +0.000 A 
ATOM     21  C   UNL     1      48.594   9.490  16.252  0.00  0.00    +0.000 A 
BRANCH  16  22
ATOM     22  C   UNL     1      49.889  10.045  18.334  0.00  0.00    +0.000 C 
BRANCH  22  23
ATOM     23  C   UNL     1      48.752   9.894  19.356  0.00  0.00    +0.000 C 
BRANCH  23  24
ATOM     24  N   UNL     1      48.904   8.665  20.140  0.00  0.00    +0.000 NA
ATOM     25  H   UNL     1      48.950   8.905  21.130  0.00  0.00    +0.000 HD
ATOM     26  H   UNL     1      49.794   8.221  19.911  0.00  0.00    +0.000 HD
ENDBRANCH  23  24
ENDBRANCH  22  23
ENDBRANCH  16  22
ENDBRANCH  15  19
ENDBRANCH   1  15
TORSDOF 6
ENDMDL
MODEL 9
REMARK VINA RESULT:    -5.058      4.111      8.820
REMARK INTER + INTRA:          -7.544
REMARK INTER:                  -6.999
REMARK INTRA:                  -0.545
REMARK UNBOUND:                -0.860
REMARK  Name = 
REMARK  6 active torsions:
REMARK  status: ('A' for Active; 'I' for Inactive)
REMARK    1  A    between atoms: N_1  and  C_2
REMARK    2  A    between atoms: C_2  and  C_3
REMARK    3  A    between atoms: C_3  and  C_4
REMARK    4  A    between atoms: C_7  and  C_8
REMARK    5  A    between atoms: C_8  and  N_9
REMARK    6  A    between atoms: C_14  and  C_15
REMARK                            x       y       z     vdW  Elec       q    Type
REMARK                         _______ _______ _______ _____ _____    ______ ____
ROOT
ATOM      1  N   UNL     1      48.460   7.221  14.921  0.00  0.00    +0.000 N 
ATOM      2  N   UNL     1      48.307   8.563  15.022  0.00  0.00    +0.000 NA
ATOM      3  C   UNL     1      48.632   8.809  16.294  0.00  0.00    +0.000 A 
ATOM      4  C   UNL     1      48.907   7.630  17.022  0.00  0.00    +0.000 A 
ATOM      5  C   UNL     1      49.388   7.319  18.303  0.00  0.00    +0.000 A 
ATOM      6  C   UNL     1      49.527   5.967  18.674  0.00  0.00    +0.000 A 
ATOM      7  C   UNL     1      49.068   4.957  17.818  0.00  0.00    +0.000 A 
ATOM      8  C   UNL     1      48.606   5.252  16.529  0.00  0.00    +0.000 A 
ATOM      9  C   UNL     1      48.606   6.597  16.141  0.00  0.00    +0.000 A 
ENDROOT
BRANCH   6  10
ATOM     10  C   UNL     1      50.254   5.685  19.947  0.00  0.00    +0.000 C 
ATOM     11  N   UNL     1      50.177   4.434  20.490  0.00  0.00    +0.000 N 
ATOM     12  O   UNL     1      50.954   6.536  20.485  0.00  0.00    +0.000 OA
ATOM     13  H   UNL     1      49.637   3.667  20.126  0.00  0.00    +0.000 HD
ATOM     14  H   UNL     1      50.747   4.264  21.308  0.00  0.00    +0.000 HD
ENDBRANCH   6  10
BRANCH   1  15
ATOM     15  C   UNL     1      48.709   6.622  13.612  0.00  0.00    +0.000 C 
BRANCH  15  19
ATOM     16  C   UNL     1      45.077   5.077  11.757  0.00  0.00    +0.000 A 
ATOM     17  C   UNL     1      45.623   4.465  12.892  0.00  0.00    +0.000 A 
ATOM     18  C   UNL     1      46.769   4.979  13.510  0.00  0.00    +0.000 A 
ATOM     19  C   UNL     1      47.417   6.113  13.001  0.00  0.00    +0.000 A 
ATOM     20  C   UNL     1      46.881   6.726  11.859  0.00  0.00    +0.000 A 
ATOM     21  C   UNL     1      45.731   6.215  11.247  0.00  0.00    +0.000 A 
BRANCH  16  22
ATOM     22  C   UNL     1      43.889   4.521  11.000  0.00  0.00    +0.000 C 
BRANCH  22  23
ATOM     23  C   UNL     1      43.944   3.028  10.647  0.00  0.00    +0.000 C 
BRANCH  23  24
ATOM     24  N   UNL     1      43.051   2.247  11.508  0.00  0.00    +0.000 NA
ATOM     25  H   UNL     1      43.328   2.376  12.480  0.00  0.00    +0.000 HD
ATOM     26  H   UNL     1      43.165   1.253  11.308  0.00  0.00    +0.000 HD
ENDBRANCH  23  24
ENDBRANCH  22  23
ENDBRANCH  16  22
ENDBRANCH  15  19
ENDBRANCH   1  15
TORSDOF 6
ENDMDL
