MODEL 1
REMARK VINA RESULT:    -8.864      0.000      0.000
REMARK INTER + INTRA:         -11.786
REMARK INTER:                 -11.455
REMARK INTRA:                  -0.331
REMARK UNBOUND:                -0.331
REMARK  Name = 
REMARK  5 active torsions:
REMARK  status: ('A' for Active; 'I' for Inactive)
REMARK    1  A    between atoms: C_2  and  C_4
REMARK    2  A    between atoms: C_8  and  O_9
REMARK    3  A    between atoms: O_9  and  C_10
REMARK    4  A    between atoms: C_10  and  C_11
REMARK    5  A    between atoms: C_13  and  C_14
REMARK                            x       y       z     vdW  Elec       q    Type
REMARK                         _______ _______ _______ _____ _____    ______ ____
ROOT
ATOM      1  C   UNL     1      43.409   4.009  11.187  0.00  0.00    +0.000 C 
ENDROOT
BRANCH   1   2
ATOM      2  C   UNL     1      44.656   4.437  11.921  0.00  0.00    +0.000 A 
ATOM      3  C   UNL     1      45.159   5.714  11.743  0.00  0.00    +0.000 A 
ATOM      4  C   UNL     1      46.322   6.040  12.419  0.00  0.00    +0.000 A 
ATOM      5  N   UNL     1      46.932   5.154  13.236  0.00  0.00    +0.000 NA
ATOM      6  C   UNL     1      46.355   3.953  13.366  0.00  0.00    +0.000 A 
ATOM      7  N   UNL     1      45.245   3.540  12.738  0.00  0.00    +0.000 NA
BRANCH   4   8
ATOM      8  C   UNL     1      46.997   7.345  12.256  0.00  0.00    +0.000 A 
ATOM      9  C   UNL     1      46.334   8.568  12.496  0.00  0.00    +0.000 A 
ATOM     10  C   UNL     1      46.970   9.797  12.291  0.00  0.00    +0.000 A 
ATOM     11  C   UNL     1      48.288   9.831  11.851  0.00  0.00    +0.000 A 
ATOM     12  C   UNL     1      48.961   8.638  11.630  0.00  0.00    +0.000 A 
ATOM     13  F   UNL     1      50.232   8.668  11.206  0.00  0.00    +0.000 F 
ATOM     14  C   UNL     1      48.335   7.410  11.831  0.00  0.00    +0.000 A 
ENDBRANCH   4   8
ENDBRANCH   1   2
BRANCH   1  15
ATOM     15  O   UNL     1      43.674   2.785  10.501  0.00  0.00    +0.000 OA
BRANCH  15  20
ATOM     16  C   UNL     1      46.220   2.053   7.912  0.00  0.00    +0.000 A 
ATOM     17  C   UNL     1      46.223   3.312   7.327  0.00  0.00    +0.000 A 
ATOM     18  N   UNL     1      45.417   4.323   7.726  0.00  0.00    +0.000 NA
ATOM     19  C   UNL     1      44.595   4.061   8.772  0.00  0.00    +0.000 A 
ATOM     20  C   UNL     1      44.537   2.844   9.445  0.00  0.00    +0.000 A 
ATOM     21  C   UNL     1      45.368   1.819   8.997  0.00  0.00    +0.000 A 
BRANCH  16  23
ATOM     22  N   UNL     1      46.816  -0.284   7.629  0.00  0.00    +0.000 N 
ATOM     23  C   UNL     1      47.140   1.023   7.388  0.00  0.00    +0.000 C 
ATOM     24  O   UNL     1      48.132   1.322   6.742  0.00  0.00    +0.000 OA
ATOM     25  H   UNL     1      47.394  -0.975   7.162  0.00  0.00    +0.000 HD
ATOM     26  H   UNL     1      45.885  -0.571   7.897  0.00  0.00    +0.000 HD
ENDBRANCH  16  23
ENDBRANCH  15  20
ENDBRANCH   1  15
TORSDOF 5
ENDMDL
MODEL 2
REMARK VINA RESULT:    -8.798      1.709      2.017
REMARK INTER + INTRA:         -11.701
REMARK INTER:                 -11.328
REMARK INTRA:                  -0.373
REMARK UNBOUND:                -0.331
REMARK  Name = 
REMARK  5 active torsions:
REMARK  status: ('A' for Active; 'I' for Inactive)
REMARK    1  A    between atoms: C_2  and  C_4
REMARK    2  A    between atoms: C_8  and  O_9
REMARK    3  A    between atoms: O_9  and  C_10
REMARK    4  A    between atoms: C_10  and  C_11
REMARK    5  A    between atoms: C_13  and  C_14
REMARK                            x       y       z     vdW  Elec       q    Type
REMARK                         _______ _______ _______ _____ _____    ______ ____
ROOT
ATOM      1  C   UNL     1      44.107   2.668  11.558  0.00  0.00    +0.000 C 
ENDROOT
BRANCH   1   2
ATOM      2  C   UNL     1      44.996   3.691  12.222  0.00  0.00    +0.000 A 
ATOM      3  C   UNL     1      44.819   5.038  11.955  0.00  0.00    +0.000 A 
ATOM      4  C   UNL     1      45.685   5.927  12.569  0.00  0.00    +0.000 A 
ATOM      5  N   UNL     1      46.650   5.500  13.412  0.00  0.00    +0.000 NA
ATOM      6  C   UNL     1      46.724   4.181  13.630  0.00  0.00    +0.000 A 
ATOM      7  N   UNL     1      45.949   3.244  13.066  0.00  0.00    +0.000 NA
BRANCH   4   8
ATOM      8  C   UNL     1      45.646   7.381  12.309  0.00  0.00    +0.000 A 
ATOM      9  C   UNL     1      46.614   8.264  12.835  0.00  0.00    +0.000 A 
ATOM     10  C   UNL     1      46.537   9.645  12.621  0.00  0.00    +0.000 A 
ATOM     11  C   UNL     1      45.496  10.173  11.867  0.00  0.00    +0.000 A 
ATOM     12  C   UNL     1      44.547   9.317  11.326  0.00  0.00    +0.000 A 
ATOM     13  F   UNL     1      43.542   9.824  10.598  0.00  0.00    +0.000 F 
ATOM     14  C   UNL     1      44.616   7.942  11.534  0.00  0.00    +0.000 A 
ENDBRANCH   4   8
ENDBRANCH   1   2
BRANCH   1  15
ATOM     15  O   UNL     1      43.726   3.152  10.271  0.00  0.00    +0.000 OA
BRANCH  15  20
ATOM     16  C   UNL     1      46.340   2.126   7.853  0.00  0.00    +0.000 A 
ATOM     17  C   UNL     1      46.594   3.391   7.344  0.00  0.00    +0.000 A 
ATOM     18  N   UNL     1      45.926   4.503   7.734  0.00  0.00    +0.000 NA
ATOM     19  C   UNL     1      44.985   4.334   8.695  0.00  0.00    +0.000 A 
ATOM     20  C   UNL     1      44.677   3.114   9.291  0.00  0.00    +0.000 A 
ATOM     21  C   UNL     1      45.369   1.988   8.853  0.00  0.00    +0.000 A 
BRANCH  16  23
ATOM     22  N   UNL     1      46.774  -0.262   7.790  0.00  0.00    +0.000 N 
ATOM     23  C   UNL     1      47.126   0.984   7.347  0.00  0.00    +0.000 C 
ATOM     24  O   UNL     1      48.033   1.139   6.543  0.00  0.00    +0.000 OA
ATOM     25  H   UNL     1      47.247  -1.039   7.341  0.00  0.00    +0.000 HD
ATOM     26  H   UNL     1      45.876  -0.454   8.212  0.00  0.00    +0.000 HD
ENDBRANCH  16  23
ENDBRANCH  15  20
ENDBRANCH   1  15
TORSDOF 5
ENDMDL
MODEL 3
REMARK VINA RESULT:    -8.606      3.096      6.672
REMARK INTER + INTRA:         -11.452
REMARK INTER:                 -11.252
REMARK INTRA:                  -0.200
REMARK UNBOUND:                -0.331
REMARK  Name = 
REMARK  5 active torsions:
REMARK  status: ('A' for Active; 'I' for Inactive)
REMARK    1  A    between atoms: C_2  and  C_4
REMARK    2  A    between atoms: C_8  and  O_9
REMARK    3  A    between atoms: O_9  and  C_10
REMARK    4  A    between atoms: C_10  and  C_11
REMARK    5  A    between atoms: C_13  and  C_14
REMARK                            x       y       z     vdW  Elec       q    Type
REMARK                         _______ _______ _______ _____ _____    ______ ____
ROOT
ATOM      1  C   UNL     1      43.971   6.443  11.383  0.00  0.00    +0.000 C 
ENDROOT
BRANCH   1   2
ATOM      2  C   UNL     1      44.011   4.992  10.969  0.00  0.00    +0.000 A 
ATOM      3  C   UNL     1      44.831   4.592   9.928  0.00  0.00    +0.000 A 
ATOM      4  C   UNL     1      44.802   3.254   9.574  0.00  0.00    +0.000 A 
ATOM      5  N   UNL     1      44.020   2.369  10.230  0.00  0.00    +0.000 NA
ATOM      6  C   UNL     1      43.284   2.846  11.242  0.00  0.00    +0.000 A 
ATOM      7  N   UNL     1      43.229   4.124  11.642  0.00  0.00    +0.000 NA
BRANCH   4   8
ATOM      8  C   UNL     1      45.575   2.718   8.434  0.00  0.00    +0.000 A 
ATOM      9  C   UNL     1      46.089   1.403   8.429  0.00  0.00    +0.000 A 
ATOM     10  C   UNL     1      46.861   0.924   7.364  0.00  0.00    +0.000 A 
ATOM     11  C   UNL     1      47.128   1.747   6.275  0.00  0.00    +0.000 A 
ATOM     12  C   UNL     1      46.613   3.035   6.256  0.00  0.00    +0.000 A 
ATOM     13  F   UNL     1      46.869   3.830   5.208  0.00  0.00    +0.000 F 
ATOM     14  C   UNL     1      45.845   3.520   7.311  0.00  0.00    +0.000 A 
ENDBRANCH   4   8
ENDBRANCH   1   2
BRANCH   1  15
ATOM     15  O   UNL     1      45.277   7.001  11.241  0.00  0.00    +0.000 OA
BRANCH  15  20
ATOM     16  C   UNL     1      47.167   5.504  14.055  0.00  0.00    +0.000 A 
ATOM     17  C   UNL     1      48.068   6.546  14.217  0.00  0.00    +0.000 A 
ATOM     18  N   UNL     1      48.084   7.649  13.432  0.00  0.00    +0.000 NA
ATOM     19  C   UNL     1      47.138   7.714  12.464  0.00  0.00    +0.000 A 
ATOM     20  C   UNL     1      46.171   6.737  12.239  0.00  0.00    +0.000 A 
ATOM     21  C   UNL     1      46.195   5.607  13.053  0.00  0.00    +0.000 A 
BRANCH  16  23
ATOM     22  N   UNL     1      47.097   4.592  16.304  0.00  0.00    +0.000 N 
ATOM     23  C   UNL     1      47.248   4.346  14.966  0.00  0.00    +0.000 C 
ATOM     24  O   UNL     1      47.412   3.211  14.545  0.00  0.00    +0.000 OA
ATOM     25  H   UNL     1      47.037   3.772  16.899  0.00  0.00    +0.000 HD
ATOM     26  H   UNL     1      46.682   5.444  16.655  0.00  0.00    +0.000 HD
ENDBRANCH  16  23
ENDBRANCH  15  20
ENDBRANCH   1  15
TORSDOF 5
ENDMDL
MODEL 4
REMARK VINA RESULT:    -8.595      3.459      6.535
REMARK INTER + INTRA:         -11.438
REMARK INTER:                 -11.107
REMARK INTRA:                  -0.332
REMARK UNBOUND:                -0.331
REMARK  Name = 
REMARK  5 active torsions:
REMARK  status: ('A' for Active; 'I' for Inactive)
REMARK    1  A    between atoms: C_2  and  C_4
REMARK    2  A    between atoms: C_8  and  O_9
REMARK    3  A    between atoms: O_9  and  C_10
REMARK    4  A    between atoms: C_10  and  C_11
REMARK    5  A    between atoms: C_13  and  C_14
REMARK                            x       y       z     vdW  Elec       q    Type
REMARK                         _______ _______ _______ _____ _____    ______ ____
ROOT
ATOM      1  C   UNL     1      43.190   6.293  11.051  0.00  0.00    +0.000 C 
ENDROOT
BRANCH   1   2
ATOM      2  C   UNL     1      43.540   4.848  10.793  0.00  0.00    +0.000 A 
ATOM      3  C   UNL     1      44.432   4.521   9.787  0.00  0.00    +0.000 A 
ATOM      4  C   UNL     1      44.691   3.177   9.577  0.00  0.00    +0.000 A 
ATOM      5  N   UNL     1      44.112   2.223  10.338  0.00  0.00    +0.000 NA
ATOM      6  C   UNL     1      43.286   2.639  11.306  0.00  0.00    +0.000 A 
ATOM      7  N   UNL     1      42.958   3.911  11.570  0.00  0.00    +0.000 NA
BRANCH   4   8
ATOM      8  C   UNL     1      45.567   2.698   8.487  0.00  0.00    +0.000 A 
ATOM      9  C   UNL     1      46.051   3.559   7.480  0.00  0.00    +0.000 A 
ATOM     10  C   UNL     1      46.840   3.082   6.427  0.00  0.00    +0.000 A 
ATOM     11  C   UNL     1      47.171   1.733   6.364  0.00  0.00    +0.000 A 
ATOM     12  C   UNL     1      46.719   0.876   7.358  0.00  0.00    +0.000 A 
ATOM     13  F   UNL     1      47.037  -0.425   7.300  0.00  0.00    +0.000 F 
ATOM     14  C   UNL     1      45.933   1.343   8.409  0.00  0.00    +0.000 A 
ENDBRANCH   4   8
ENDBRANCH   1   2
BRANCH   1  15
ATOM     15  O   UNL     1      43.629   6.649  12.361  0.00  0.00    +0.000 OA
BRANCH  15  20
ATOM     16  C   UNL     1      46.641   5.090  13.855  0.00  0.00    +0.000 A 
ATOM     17  C   UNL     1      47.573   5.901  13.223  0.00  0.00    +0.000 A 
ATOM     18  N   UNL     1      47.242   6.868  12.335  0.00  0.00    +0.000 NA
ATOM     19  C   UNL     1      45.919   7.040  12.096  0.00  0.00    +0.000 A 
ATOM     20  C   UNL     1      44.906   6.301  12.700  0.00  0.00    +0.000 A 
ATOM     21  C   UNL     1      45.281   5.302  13.595  0.00  0.00    +0.000 A 
BRANCH  16  23
ATOM     22  N   UNL     1      46.936   4.309  16.135  0.00  0.00    +0.000 N 
ATOM     23  C   UNL     1      47.117   4.063  14.801  0.00  0.00    +0.000 C 
ATOM     24  O   UNL     1      47.625   3.022  14.412  0.00  0.00    +0.000 OA
ATOM     25  H   UNL     1      47.161   3.542  16.760  0.00  0.00    +0.000 HD
ATOM     26  H   UNL     1      46.280   4.999  16.475  0.00  0.00    +0.000 HD
ENDBRANCH  16  23
ENDBRANCH  15  20
ENDBRANCH   1  15
TORSDOF 5
ENDMDL
MODEL 5
REMARK VINA RESULT:    -8.483      3.085      6.729
REMARK INTER + INTRA:         -11.294
REMARK INTER:                 -10.525
REMARK INTRA:                  -0.768
REMARK UNBOUND:                -0.331
REMARK  Name = 
REMARK  5 active torsions:
REMARK  status: ('A' for Active; 'I' for Inactive)
REMARK    1  A    between atoms: C_2  and  C_4
REMARK    2  A    between atoms: C_8  and  O_9
REMARK    3  A    between atoms: O_9  and  C_10
REMARK    4  A    between atoms: C_10  and  C_11
REMARK    5  A    between atoms: C_13  and  C_14
REMARK                            x       y       z     vdW  Elec       q    Type
REMARK                         _______ _______ _______ _____ _____    ______ ____
ROOT
ATOM      1  C   UNL     1      43.979   6.487  11.369  0.00  0.00    +0.000 C 
ENDROOT
BRANCH   1   2
ATOM      2  C   UNL     1      44.028   5.029  10.982  0.00  0.00    +0.000 A 
ATOM      3  C   UNL     1      44.840   4.617   9.940  0.00  0.00    +0.000 A 
ATOM      4  C   UNL     1      44.819   3.273   9.610  0.00  0.00    +0.000 A 
ATOM      5  N   UNL     1      44.053   2.394  10.291  0.00  0.00    +0.000 NA
ATOM      6  C   UNL     1      43.323   2.883  11.302  0.00  0.00    +0.000 A 
ATOM      7  N   UNL     1      43.261   4.167  11.680  0.00  0.00    +0.000 NA
BRANCH   4   8
ATOM      8  C   UNL     1      45.584   2.722   8.472  0.00  0.00    +0.000 A 
ATOM      9  C   UNL     1      46.077   1.399   8.469  0.00  0.00    +0.000 A 
ATOM     10  C   UNL     1      46.842   0.906   7.405  0.00  0.00    +0.000 A 
ATOM     11  C   UNL     1      47.123   1.723   6.316  0.00  0.00    +0.000 A 
ATOM     12  C   UNL     1      46.629   3.019   6.294  0.00  0.00    +0.000 A 
ATOM     13  F   UNL     1      46.898   3.808   5.245  0.00  0.00    +0.000 F 
ATOM     14  C   UNL     1      45.867   3.518   7.348  0.00  0.00    +0.000 A 
ENDBRANCH   4   8
ENDBRANCH   1   2
BRANCH   1  15
ATOM     15  O   UNL     1      44.560   6.641  12.663  0.00  0.00    +0.000 OA
BRANCH  15  20
ATOM     16  C   UNL     1      48.134   7.536  12.267  0.00  0.00    +0.000 A 
ATOM     17  C   UNL     1      48.649   6.463  12.981  0.00  0.00    +0.000 A 
ATOM     18  N   UNL     1      47.879   5.530  13.588  0.00  0.00    +0.000 NA
ATOM     19  C   UNL     1      46.538   5.670  13.446  0.00  0.00    +0.000 A 
ATOM     20  C   UNL     1      45.923   6.691  12.726  0.00  0.00    +0.000 A 
ATOM     21  C   UNL     1      46.745   7.645  12.130  0.00  0.00    +0.000 A 
BRANCH  16  23
ATOM     22  N   UNL     1      50.331   8.047  11.370  0.00  0.00    +0.000 N 
ATOM     23  C   UNL     1      49.070   8.497  11.653  0.00  0.00    +0.000 C 
ATOM     24  O   UNL     1      48.728   9.638  11.381  0.00  0.00    +0.000 OA
ATOM     25  H   UNL     1      50.919   8.684  10.843  0.00  0.00    +0.000 HD
ATOM     26  H   UNL     1      50.555   7.064  11.312  0.00  0.00    +0.000 HD
ENDBRANCH  16  23
ENDBRANCH  15  20
ENDBRANCH   1  15
TORSDOF 5
ENDMDL
MODEL 6
REMARK VINA RESULT:    -8.446      1.242      1.548
REMARK INTER + INTRA:         -11.245
REMARK INTER:                 -10.596
REMARK INTRA:                  -0.649
REMARK UNBOUND:                -0.331
REMARK  Name = 
REMARK  5 active torsions:
REMARK  status: ('A' for Active; 'I' for Inactive)
REMARK    1  A    between atoms: C_2  and  C_4
REMARK    2  A    between atoms: C_8  and  O_9
REMARK    3  A    between atoms: O_9  and  C_10
REMARK    4  A    between atoms: C_10  and  C_11
REMARK    5  A    between atoms: C_13  and  C_14
REMARK                            x       y       z     vdW  Elec       q    Type
REMARK                         _______ _______ _______ _____ _____    ______ ____
ROOT
ATOM      1  C   UNL     1      43.721   4.115  10.767  0.00  0.00    +0.000 C 
ENDROOT
BRANCH   1   2
ATOM      2  C   UNL     1      44.826   4.610  11.667  0.00  0.00    +0.000 A 
ATOM      3  C   UNL     1      45.396   5.851  11.445  0.00  0.00    +0.000 A 
ATOM      4  C   UNL     1      46.426   6.238  12.285  0.00  0.00    +0.000 A 
ATOM      5  N   UNL     1      46.845   5.446  13.295  0.00  0.00    +0.000 NA
ATOM      6  C   UNL     1      46.213   4.275  13.448  0.00  0.00    +0.000 A 
ATOM      7  N   UNL     1      45.224   3.806  12.675  0.00  0.00    +0.000 NA
BRANCH   4   8
ATOM      8  C   UNL     1      47.163   7.507  12.106  0.00  0.00    +0.000 A 
ATOM      9  C   UNL     1      46.546   8.764  12.280  0.00  0.00    +0.000 A 
ATOM     10  C   UNL     1      47.243   9.958  12.060  0.00  0.00    +0.000 A 
ATOM     11  C   UNL     1      48.577   9.920  11.670  0.00  0.00    +0.000 A 
ATOM     12  C   UNL     1      49.204   8.692  11.514  0.00  0.00    +0.000 A 
ATOM     13  F   UNL     1      50.490   8.653  11.138  0.00  0.00    +0.000 F 
ATOM     14  C   UNL     1      48.518   7.500  11.731  0.00  0.00    +0.000 A 
ENDBRANCH   4   8
ENDBRANCH   1   2
BRANCH   1  15
ATOM     15  O   UNL     1      44.084   4.365   9.409  0.00  0.00    +0.000 OA
BRANCH  15  20
ATOM     16  C   UNL     1      46.518   2.617   7.230  0.00  0.00    +0.000 A 
ATOM     17  C   UNL     1      46.333   1.350   7.766  0.00  0.00    +0.000 A 
ATOM     18  N   UNL     1      45.498   1.089   8.799  0.00  0.00    +0.000 NA
ATOM     19  C   UNL     1      44.803   2.143   9.293  0.00  0.00    +0.000 A 
ATOM     20  C   UNL     1      44.894   3.445   8.808  0.00  0.00    +0.000 A 
ATOM     21  C   UNL     1      45.776   3.681   7.756  0.00  0.00    +0.000 A 
BRANCH  16  23
ATOM     22  N   UNL     1      48.776   2.490   6.348  0.00  0.00    +0.000 N 
ATOM     23  C   UNL     1      47.461   2.784   6.108  0.00  0.00    +0.000 C 
ATOM     24  O   UNL     1      47.082   3.140   5.002  0.00  0.00    +0.000 OA
ATOM     25  H   UNL     1      49.385   2.497   5.536  0.00  0.00    +0.000 HD
ATOM     26  H   UNL     1      49.072   1.932   7.136  0.00  0.00    +0.000 HD
ENDBRANCH  16  23
ENDBRANCH  15  20
ENDBRANCH   1  15
TORSDOF 5
ENDMDL
MODEL 7
REMARK VINA RESULT:    -8.445      3.479      6.803
REMARK INTER + INTRA:         -11.244
REMARK INTER:                 -10.446
REMARK INTRA:                  -0.798
REMARK UNBOUND:                -0.331
REMARK  Name = 
REMARK  5 active torsions:
REMARK  status: ('A' for Active; 'I' for Inactive)
REMARK    1  A    between atoms: C_2  and  C_4
REMARK    2  A    between atoms: C_8  and  O_9
REMARK    3  A    between atoms: O_9  and  C_10
REMARK    4  A    between atoms: C_10  and  C_11
REMARK    5  A    between atoms: C_13  and  C_14
REMARK                            x       y       z     vdW  Elec       q    Type
REMARK                         _______ _______ _______ _____ _____    ______ ____
ROOT
ATOM      1  C   UNL     1      43.519   6.502  11.261  0.00  0.00    +0.000 C 
ENDROOT
BRANCH   1   2
ATOM      2  C   UNL     1      43.736   5.042  10.945  0.00  0.00    +0.000 A 
ATOM      3  C   UNL     1      44.605   4.675   9.933  0.00  0.00    +0.000 A 
ATOM      4  C   UNL     1      44.739   3.322   9.669  0.00  0.00    +0.000 A 
ATOM      5  N   UNL     1      44.066   2.396  10.385  0.00  0.00    +0.000 NA
ATOM      6  C   UNL     1      43.270   2.847  11.363  0.00  0.00    +0.000 A 
ATOM      7  N   UNL     1      43.059   4.133  11.677  0.00  0.00    +0.000 NA
BRANCH   4   8
ATOM      8  C   UNL     1      45.580   2.807   8.567  0.00  0.00    +0.000 A 
ATOM      9  C   UNL     1      46.043   3.639   7.526  0.00  0.00    +0.000 A 
ATOM     10  C   UNL     1      46.797   3.129   6.463  0.00  0.00    +0.000 A 
ATOM     11  C   UNL     1      47.113   1.776   6.423  0.00  0.00    +0.000 A 
ATOM     12  C   UNL     1      46.682   0.948   7.450  0.00  0.00    +0.000 A 
ATOM     13  F   UNL     1      46.986  -0.357   7.415  0.00  0.00    +0.000 F 
ATOM     14  C   UNL     1      45.931   1.447   8.511  0.00  0.00    +0.000 A 
ENDBRANCH   4   8
ENDBRANCH   1   2
BRANCH   1  15
ATOM     15  O   UNL     1      44.108   6.794  12.527  0.00  0.00    +0.000 OA
BRANCH  15  20
ATOM     16  C   UNL     1      47.722   7.544  12.852  0.00  0.00    +0.000 A 
ATOM     17  C   UNL     1      47.650   8.867  12.440  0.00  0.00    +0.000 A 
ATOM     18  N   UNL     1      46.502   9.465  12.043  0.00  0.00    +0.000 NA
ATOM     19  C   UNL     1      45.380   8.706  12.088  0.00  0.00    +0.000 A 
ATOM     20  C   UNL     1      45.341   7.381  12.514  0.00  0.00    +0.000 A 
ATOM     21  C   UNL     1      46.542   6.791  12.898  0.00  0.00    +0.000 A 
BRANCH  16  23
ATOM     22  N   UNL     1      50.081   7.189  12.402  0.00  0.00    +0.000 N 
ATOM     23  C   UNL     1      49.031   6.995  13.257  0.00  0.00    +0.000 C 
ATOM     24  O   UNL     1      49.179   6.418  14.324  0.00  0.00    +0.000 OA
ATOM     25  H   UNL     1      50.992   6.910  12.751  0.00  0.00    +0.000 HD
ATOM     26  H   UNL     1      50.065   7.890  11.674  0.00  0.00    +0.000 HD
ENDBRANCH  16  23
ENDBRANCH  15  20
ENDBRANCH   1  15
TORSDOF 5
ENDMDL
MODEL 8
REMARK VINA RESULT:    -8.135      3.713      7.360
REMARK INTER + INTRA:         -10.844
REMARK INTER:                 -10.219
REMARK INTRA:                  -0.625
REMARK UNBOUND:                -0.331
REMARK  Name = 
REMARK  5 active torsions:
REMARK  status: ('A' for Active; 'I' for Inactive)
REMARK    1  A    between atoms: C_2  and  C_4
REMARK    2  A    between atoms: C_8  and  O_9
REMARK    3  A    between atoms: O_9  and  C_10
REMARK    4  A    between atoms: C_10  and  C_11
REMARK    5  A    between atoms: C_13  and  C_14
REMARK                            x       y       z     vdW  Elec       q    Type
REMARK                         _______ _______ _______ _____ _____    ______ ____
ROOT
ATOM      1  C   UNL     1      45.760   6.640  12.853  0.00  0.00    +0.000 C 
ENDROOT
BRANCH   1   2
ATOM      2  C   UNL     1      45.003   5.791  11.861  0.00  0.00    +0.000 A 
ATOM      3  C   UNL     1      45.693   5.047  10.921  0.00  0.00    +0.000 A 
ATOM      4  C   UNL     1      44.944   4.312  10.017  0.00  0.00    +0.000 A 
ATOM      5  N   UNL     1      43.595   4.305  10.064  0.00  0.00    +0.000 NA
ATOM      6  C   UNL     1      43.018   5.034  11.028  0.00  0.00    +0.000 A 
ATOM      7  N   UNL     1      43.656   5.792  11.930  0.00  0.00    +0.000 NA
BRANCH   4   8
ATOM      8  C   UNL     1      45.560   3.535   8.921  0.00  0.00    +0.000 A 
ATOM      9  C   UNL     1      46.078   4.152   7.762  0.00  0.00    +0.000 A 
ATOM     10  C   UNL     1      46.615   3.401   6.711  0.00  0.00    +0.000 A 
ATOM     11  C   UNL     1      46.655   2.014   6.799  0.00  0.00    +0.000 A 
ATOM     12  C   UNL     1      46.168   1.392   7.940  0.00  0.00    +0.000 A 
ATOM     13  F   UNL     1      46.206   0.055   8.028  0.00  0.00    +0.000 F 
ATOM     14  C   UNL     1      45.632   2.132   8.991  0.00  0.00    +0.000 A 
ENDBRANCH   4   8
ENDBRANCH   1   2
BRANCH   1  15
ATOM     15  O   UNL     1      47.099   6.158  12.949  0.00  0.00    +0.000 OA
BRANCH  15  20
ATOM     16  C   UNL     1      47.841   4.628  16.241  0.00  0.00    +0.000 A 
ATOM     17  C   UNL     1      48.611   5.672  16.734  0.00  0.00    +0.000 A 
ATOM     18  N   UNL     1      48.903   6.786  16.023  0.00  0.00    +0.000 NA
ATOM     19  C   UNL     1      48.377   6.861  14.776  0.00  0.00    +0.000 A 
ATOM     20  C   UNL     1      47.569   5.884  14.201  0.00  0.00    +0.000 A 
ATOM     21  C   UNL     1      47.303   4.742  14.954  0.00  0.00    +0.000 A 
BRANCH  16  23
ATOM     22  N   UNL     1      48.686   2.845  17.656  0.00  0.00    +0.000 N 
ATOM     23  C   UNL     1      47.593   3.457  17.105  0.00  0.00    +0.000 C 
ATOM     24  O   UNL     1      46.460   3.068  17.343  0.00  0.00    +0.000 OA
ATOM     25  H   UNL     1      48.488   2.120  18.337  0.00  0.00    +0.000 HD
ATOM     26  H   UNL     1      49.587   3.297  17.718  0.00  0.00    +0.000 HD
ENDBRANCH  16  23
ENDBRANCH  15  20
ENDBRANCH   1  15
TORSDOF 5
ENDMDL
MODEL 9
REMARK VINA RESULT:    -7.842      2.718      3.930
REMARK INTER + INTRA:         -10.465
REMARK INTER:                  -9.784
REMARK INTRA:                  -0.681
REMARK UNBOUND:                -0.331
REMARK  Name = 
REMARK  5 active torsions:
REMARK  status: ('A' for Active; 'I' for Inactive)
REMARK    1  A    between atoms: C_2  and  C_4
REMARK    2  A    between atoms: C_8  and  O_9
REMARK    3  A    between atoms: O_9  and  C_10
REMARK    4  A    between atoms: C_10  and  C_11
REMARK    5  A    between atoms: C_13  and  C_14
REMARK                            x       y       z     vdW  Elec       q    Type
REMARK                         _______ _______ _______ _____ _____    ______ ____
ROOT
ATOM      1  C   UNL     1      44.510   4.879  11.033  0.00  0.00    +0.000 C 
ENDROOT
BRANCH   1   2
ATOM      2  C   UNL     1      45.687   5.443  11.791  0.00  0.00    +0.000 A 
ATOM      3  C   UNL     1      46.048   4.899  13.011  0.00  0.00    +0.000 A 
ATOM      4  C   UNL     1      47.117   5.479  13.674  0.00  0.00    +0.000 A 
ATOM      5  N   UNL     1      47.794   6.519  13.143  0.00  0.00    +0.000 NA
ATOM      6  C   UNL     1      47.387   6.957  11.944  0.00  0.00    +0.000 A 
ATOM      7  N   UNL     1      46.354   6.477  11.239  0.00  0.00    +0.000 NA
BRANCH   4   8
ATOM      8  C   UNL     1      47.554   5.037  15.016  0.00  0.00    +0.000 A 
ATOM      9  C   UNL     1      47.164   3.794  15.560  0.00  0.00    +0.000 A 
ATOM     10  C   UNL     1      47.545   3.410  16.851  0.00  0.00    +0.000 A 
ATOM     11  C   UNL     1      48.333   4.256  17.622  0.00  0.00    +0.000 A 
ATOM     12  C   UNL     1      48.741   5.472  17.094  0.00  0.00    +0.000 A 
ATOM     13  F   UNL     1      49.502   6.290  17.836  0.00  0.00    +0.000 F 
ATOM     14  C   UNL     1      48.367   5.863  15.811  0.00  0.00    +0.000 A 
ENDBRANCH   4   8
ENDBRANCH   1   2
BRANCH   1  15
ATOM     15  O   UNL     1      44.786   4.944   9.635  0.00  0.00    +0.000 OA
BRANCH  15  20
ATOM     16  C   UNL     1      46.546   2.500   7.476  0.00  0.00    +0.000 A 
ATOM     17  C   UNL     1      46.005   1.358   8.050  0.00  0.00    +0.000 A 
ATOM     18  N   UNL     1      45.151   1.382   9.101  0.00  0.00    +0.000 NA
ATOM     19  C   UNL     1      44.811   2.606   9.573  0.00  0.00    +0.000 A 
ATOM     20  C   UNL     1      45.274   3.811   9.049  0.00  0.00    +0.000 A 
ATOM     21  C   UNL     1      46.165   3.749   7.981  0.00  0.00    +0.000 A 
BRANCH  16  23
ATOM     22  N   UNL     1      47.387   3.283   5.337  0.00  0.00    +0.000 N 
ATOM     23  C   UNL     1      47.474   2.353   6.338  0.00  0.00    +0.000 C 
ATOM     24  O   UNL     1      48.304   1.458   6.301  0.00  0.00    +0.000 OA
ATOM     25  H   UNL     1      48.108   3.233   4.626  0.00  0.00    +0.000 HD
ATOM     26  H   UNL     1      46.930   4.175   5.464  0.00  0.00    +0.000 HD
ENDBRANCH  16  23
ENDBRANCH  15  20
ENDBRANCH   1  15
TORSDOF 5
ENDMDL
