MODEL 1
REMARK VINA RESULT:    -7.274      0.000      0.000
REMARK INTER + INTRA:         -11.449
REMARK INTER:                 -10.250
REMARK INTRA:                  -1.198
REMARK UNBOUND:                -1.198
REMARK  Name = 
REMARK  8 active torsions:
REMARK  status: ('A' for Active; 'I' for Inactive)
REMARK    1  A    between atoms: C_1  and  O_2
REMARK    2  A    between atoms: O_2  and  C_3
REMARK    3  A    between atoms: C_6  and  C_7
REMARK    4  A    between atoms: N_9  and  C_10
REMARK    5  A    between atoms: C_10  and  C_11
REMARK    6  A    between atoms: C_14  and  C_15
REMARK    7  A    between atoms: C_15  and  N_16
REMARK    8  A    between atoms: C_17  and  C_19
REMARK                            x       y       z     vdW  Elec       q    Type
REMARK                         _______ _______ _______ _____ _____    ______ ____
ROOT
ATOM      1  C   UNL     1      50.087   7.210  15.449  0.00  0.00    +0.000 A 
ATOM      2  C   UNL     1      50.526   7.866  14.292  0.00  0.00    +0.000 A 
ATOM      3  C   UNL     1      49.677   8.013  13.188  0.00  0.00    +0.000 A 
ATOM      4  C   UNL     1      48.363   7.526  13.227  0.00  0.00    +0.000 A 
ATOM      5  C   UNL     1      47.929   6.865  14.383  0.00  0.00    +0.000 A 
ATOM      6  C   UNL     1      48.776   6.719  15.486  0.00  0.00    +0.000 A 
ENDROOT
BRANCH   1   7
ATOM      7  C   UNL     1      50.990   7.076  16.649  0.00  0.00    +0.000 C 
BRANCH   7  10
ATOM      8  C   UNL     1      51.009   4.846  17.696  0.00  0.00    +0.000 C 
ATOM      9  O   UNL     1      50.104   5.162  18.469  0.00  0.00    +0.000 OA
ATOM     10  N   UNL     1      51.497   5.730  16.768  0.00  0.00    +0.000 N 
ATOM     11  H   UNL     1      52.248   5.453  16.146  0.00  0.00    +0.000 HD
BRANCH   8  15
ATOM     12  C   UNL     1      52.988   1.003  17.991  0.00  0.00    +0.000 A 
ATOM     13  C   UNL     1      53.599   2.184  18.396  0.00  0.00    +0.000 A 
ATOM     14  C   UNL     1      52.915   3.400  18.282  0.00  0.00    +0.000 A 
ATOM     15  C   UNL     1      51.604   3.470  17.763  0.00  0.00    +0.000 A 
ATOM     16  C   UNL     1      50.997   2.268  17.367  0.00  0.00    +0.000 A 
ATOM     17 CL   UNL     1      49.400   2.144  16.713  0.00  0.00    +0.000 Cl
ATOM     18  C   UNL     1      51.691   1.052  17.484  0.00  0.00    +0.000 A 
BRANCH  12  20
ATOM     19  C   UNL     1      54.693  -0.470  17.238  0.00  0.00    +0.000 C 
ATOM     20  O   UNL     1      53.542  -0.247  18.044  0.00  0.00    +0.000 OA
ENDBRANCH  12  20
ENDBRANCH   8  15
ENDBRANCH   7  10
ENDBRANCH   1   7
BRANCH   4  21
ATOM     21  C   UNL     1      47.436   7.680  12.047  0.00  0.00    +0.000 C 
BRANCH  21  22
ATOM     22  N   UNL     1      46.760   6.445  11.746  0.00  0.00    +0.000 N 
ATOM     23  C   UNL     1      45.389   6.356  11.762  0.00  0.00    +0.000 C 
ATOM     24  O   UNL     1      44.673   7.327  11.993  0.00  0.00    +0.000 OA
ATOM     25  H   UNL     1      47.309   5.595  11.806  0.00  0.00    +0.000 HD
BRANCH  23  26
ATOM     26  C   UNL     1      44.817   5.048  11.419  0.00  0.00    +0.000 A 
ATOM     27  C   UNL     1      44.050   4.360  12.350  0.00  0.00    +0.000 A 
ATOM     28  S   UNL     1      43.420   2.887  11.765  0.00  0.00    +0.000 S 
ATOM     29  C   UNL     1      44.197   3.088  10.265  0.00  0.00    +0.000 A 
ATOM     30  N   UNL     1      44.091   2.146   9.287  0.00  0.00    +0.000 NA
ATOM     31  C   UNL     1      44.759   2.412   8.216  0.00  0.00    +0.000 A 
ATOM     32  N   UNL     1      45.519   3.538   8.028  0.00  0.00    +0.000 N 
ATOM     33  C   UNL     1      45.629   4.530   8.972  0.00  0.00    +0.000 A 
ATOM     34  O   UNL     1      46.278   5.547   8.753  0.00  0.00    +0.000 OA
ATOM     35  C   UNL     1      44.909   4.272  10.205  0.00  0.00    +0.000 A 
ATOM     36  H   UNL     1      46.011   3.694   7.160  0.00  0.00    +0.000 HD
ENDBRANCH  23  26
ENDBRANCH  21  22
ENDBRANCH   4  21
TORSDOF 7
ENDMDL
MODEL 2
REMARK VINA RESULT:    -6.835      3.367      9.244
REMARK INTER + INTRA:         -10.831
REMARK INTER:                  -9.776
REMARK INTRA:                  -1.055
REMARK UNBOUND:                -1.198
REMARK  Name = 
REMARK  8 active torsions:
REMARK  status: ('A' for Active; 'I' for Inactive)
REMARK    1  A    between atoms: C_1  and  O_2
REMARK    2  A    between atoms: O_2  and  C_3
REMARK    3  A    between atoms: C_6  and  C_7
REMARK    4  A    between atoms: N_9  and  C_10
REMARK    5  A    between atoms: C_10  and  C_11
REMARK    6  A    between atoms: C_14  and  C_15
REMARK    7  A    between atoms: C_15  and  N_16
REMARK    8  A    between atoms: C_17  and  C_19
REMARK                            x       y       z     vdW  Elec       q    Type
REMARK                         _______ _______ _______ _____ _____    ______ ____
ROOT
ATOM      1  C   UNL     1      46.631   7.560  13.234  0.00  0.00    +0.000 A 
ATOM      2  C   UNL     1      46.997   8.878  13.540  0.00  0.00    +0.000 A 
ATOM      3  C   UNL     1      48.135   9.143  14.310  0.00  0.00    +0.000 A 
ATOM      4  C   UNL     1      48.945   8.097  14.772  0.00  0.00    +0.000 A 
ATOM      5  C   UNL     1      48.573   6.780  14.471  0.00  0.00    +0.000 A 
ATOM      6  C   UNL     1      47.437   6.515  13.701  0.00  0.00    +0.000 A 
ENDROOT
BRANCH   1   7
ATOM      7  C   UNL     1      45.421   7.275  12.382  0.00  0.00    +0.000 C 
BRANCH   7  10
ATOM      8  C   UNL     1      44.696   5.513  10.819  0.00  0.00    +0.000 C 
ATOM      9  O   UNL     1      43.510   5.730  11.068  0.00  0.00    +0.000 OA
ATOM     10  N   UNL     1      45.697   6.233  11.422  0.00  0.00    +0.000 N 
ATOM     11  H   UNL     1      46.668   6.033  11.209  0.00  0.00    +0.000 HD
BRANCH   8  15
ATOM     12  C   UNL     1      45.925   2.621   7.836  0.00  0.00    +0.000 A 
ATOM     13  C   UNL     1      46.323   3.951   7.786  0.00  0.00    +0.000 A 
ATOM     14  C   UNL     1      45.901   4.845   8.777  0.00  0.00    +0.000 A 
ATOM     15  C   UNL     1      45.071   4.436   9.843  0.00  0.00    +0.000 A 
ATOM     16  C   UNL     1      44.684   3.088   9.885  0.00  0.00    +0.000 A 
ATOM     17 CL   UNL     1      43.677   2.392  11.109  0.00  0.00    +0.000 Cl
ATOM     18  C   UNL     1      45.112   2.197   8.886  0.00  0.00    +0.000 A 
BRANCH  12  20
ATOM     19  C   UNL     1      46.980   0.529   7.442  0.00  0.00    +0.000 C 
ATOM     20  O   UNL     1      46.261   1.648   6.935  0.00  0.00    +0.000 OA
ENDBRANCH  12  20
ENDBRANCH   8  15
ENDBRANCH   7  10
ENDBRANCH   1   7
BRANCH   4  21
ATOM     21  C   UNL     1      50.176   8.366  15.600  0.00  0.00    +0.000 C 
BRANCH  21  22
ATOM     22  N   UNL     1      50.860   7.145  15.940  0.00  0.00    +0.000 N 
ATOM     23  C   UNL     1      51.175   6.838  17.242  0.00  0.00    +0.000 C 
ATOM     24  O   UNL     1      50.857   7.564  18.180  0.00  0.00    +0.000 OA
ATOM     25  H   UNL     1      51.349   6.670  15.189  0.00  0.00    +0.000 HD
BRANCH  23  26
ATOM     26  C   UNL     1      51.855   5.556  17.462  0.00  0.00    +0.000 A 
ATOM     27  C   UNL     1      53.216   5.531  17.739  0.00  0.00    +0.000 A 
ATOM     28  S   UNL     1      53.828   3.964  18.023  0.00  0.00    +0.000 S 
ATOM     29  C   UNL     1      52.309   3.257  17.729  0.00  0.00    +0.000 A 
ATOM     30  N   UNL     1      52.140   1.908  17.782  0.00  0.00    +0.000 NA
ATOM     31  C   UNL     1      50.945   1.509  17.503  0.00  0.00    +0.000 A 
ATOM     32  N   UNL     1      49.900   2.335  17.184  0.00  0.00    +0.000 N 
ATOM     33  C   UNL     1      50.014   3.704  17.150  0.00  0.00    +0.000 A 
ATOM     34  O   UNL     1      49.047   4.418  16.907  0.00  0.00    +0.000 OA
ATOM     35  C   UNL     1      51.344   4.205  17.439  0.00  0.00    +0.000 A 
ATOM     36  H   UNL     1      48.983   1.961  16.986  0.00  0.00    +0.000 HD
ENDBRANCH  23  26
ENDBRANCH  21  22
ENDBRANCH   4  21
TORSDOF 7
ENDMDL
MODEL 3
REMARK VINA RESULT:    -6.781      3.388      9.915
REMARK INTER + INTRA:         -10.754
REMARK INTER:                  -9.850
REMARK INTRA:                  -0.905
REMARK UNBOUND:                -1.198
REMARK  Name = 
REMARK  8 active torsions:
REMARK  status: ('A' for Active; 'I' for Inactive)
REMARK    1  A    between atoms: C_1  and  O_2
REMARK    2  A    between atoms: O_2  and  C_3
REMARK    3  A    between atoms: C_6  and  C_7
REMARK    4  A    between atoms: N_9  and  C_10
REMARK    5  A    between atoms: C_10  and  C_11
REMARK    6  A    between atoms: C_14  and  C_15
REMARK    7  A    between atoms: C_15  and  N_16
REMARK    8  A    between atoms: C_17  and  C_19
REMARK                            x       y       z     vdW  Elec       q    Type
REMARK                         _______ _______ _______ _____ _____    ______ ____
ROOT
ATOM      1  C   UNL     1      47.785   5.983  14.945  0.00  0.00    +0.000 A 
ATOM      2  C   UNL     1      48.666   6.339  15.974  0.00  0.00    +0.000 A 
ATOM      3  C   UNL     1      48.919   5.461  17.035  0.00  0.00    +0.000 A 
ATOM      4  C   UNL     1      48.312   4.198  17.077  0.00  0.00    +0.000 A 
ATOM      5  C   UNL     1      47.425   3.847  16.051  0.00  0.00    +0.000 A 
ATOM      6  C   UNL     1      47.174   4.723  14.990  0.00  0.00    +0.000 A 
ENDROOT
BRANCH   1   7
ATOM      7  C   UNL     1      47.533   6.916  13.788  0.00  0.00    +0.000 C 
BRANCH   7  10
ATOM      8  C   UNL     1      45.867   6.005  12.219  0.00  0.00    +0.000 C 
ATOM      9  O   UNL     1      44.938   6.474  12.876  0.00  0.00    +0.000 OA
ATOM     10  N   UNL     1      47.173   6.182  12.598  0.00  0.00    +0.000 N 
ATOM     11  H   UNL     1      47.923   5.781  12.047  0.00  0.00    +0.000 HD
BRANCH   8  15
ATOM     12  C   UNL     1      45.184   3.943   8.469  0.00  0.00    +0.000 A 
ATOM     13  C   UNL     1      45.937   5.108   8.548  0.00  0.00    +0.000 A 
ATOM     14  C   UNL     1      46.131   5.734   9.784  0.00  0.00    +0.000 A 
ATOM     15  C   UNL     1      45.579   5.215  10.975  0.00  0.00    +0.000 A 
ATOM     16  C   UNL     1      44.827   4.033  10.882  0.00  0.00    +0.000 A 
ATOM     17 CL   UNL     1      44.075   3.239  12.223  0.00  0.00    +0.000 Cl
ATOM     18  C   UNL     1      44.638   3.411   9.636  0.00  0.00    +0.000 A 
BRANCH  12  20
ATOM     19  C   UNL     1      46.035   2.844   6.543  0.00  0.00    +0.000 C 
ATOM     20  O   UNL     1      44.916   3.235   7.330  0.00  0.00    +0.000 OA
ENDBRANCH  12  20
ENDBRANCH   8  15
ENDBRANCH   7  10
ENDBRANCH   1   7
BRANCH   4  21
ATOM     21  C   UNL     1      48.577   3.240  18.211  0.00  0.00    +0.000 C 
BRANCH  21  22
ATOM     22  N   UNL     1      49.981   2.948  18.336  0.00  0.00    +0.000 N 
ATOM     23  C   UNL     1      50.642   2.190  17.399  0.00  0.00    +0.000 C 
ATOM     24  O   UNL     1      50.082   1.760  16.394  0.00  0.00    +0.000 OA
ATOM     25  H   UNL     1      50.394   3.064  19.255  0.00  0.00    +0.000 HD
BRANCH  23  26
ATOM     26  C   UNL     1      52.076   1.977  17.627  0.00  0.00    +0.000 A 
ATOM     27  C   UNL     1      52.575   0.687  17.746  0.00  0.00    +0.000 A 
ATOM     28  S   UNL     1      54.268   0.623  17.951  0.00  0.00    +0.000 S 
ATOM     29  C   UNL     1      54.387   2.320  17.946  0.00  0.00    +0.000 A 
ATOM     30  N   UNL     1      55.587   2.941  18.111  0.00  0.00    +0.000 NA
ATOM     31  C   UNL     1      55.524   4.230  18.121  0.00  0.00    +0.000 A 
ATOM     32  N   UNL     1      54.372   4.957  17.974  0.00  0.00    +0.000 N 
ATOM     33  C   UNL     1      53.143   4.376  17.772  0.00  0.00    +0.000 A 
ATOM     34  O   UNL     1      52.139   5.057  17.596  0.00  0.00    +0.000 OA
ATOM     35  C   UNL     1      53.156   2.925  17.769  0.00  0.00    +0.000 A 
ATOM     36  H   UNL     1      54.390   5.966  17.980  0.00  0.00    +0.000 HD
ENDBRANCH  23  26
ENDBRANCH  21  22
ENDBRANCH   4  21
TORSDOF 7
ENDMDL
MODEL 4
REMARK VINA RESULT:    -6.765      5.670      6.556
REMARK INTER + INTRA:         -10.731
REMARK INTER:                  -9.684
REMARK INTRA:                  -1.047
REMARK UNBOUND:                -1.198
REMARK  Name = 
REMARK  8 active torsions:
REMARK  status: ('A' for Active; 'I' for Inactive)
REMARK    1  A    between atoms: C_1  and  O_2
REMARK    2  A    between atoms: O_2  and  C_3
REMARK    3  A    between atoms: C_6  and  C_7
REMARK    4  A    between atoms: N_9  and  C_10
REMARK    5  A    between atoms: C_10  and  C_11
REMARK    6  A    between atoms: C_14  and  C_15
REMARK    7  A    between atoms: C_15  and  N_16
REMARK    8  A    between atoms: C_17  and  C_19
REMARK                            x       y       z     vdW  Elec       q    Type
REMARK                         _______ _______ _______ _____ _____    ______ ____
ROOT
ATOM      1  C   UNL     1      49.910   9.056  11.475  0.00  0.00    +0.000 A 
ATOM      2  C   UNL     1      48.968  10.070  11.693  0.00  0.00    +0.000 A 
ATOM      3  C   UNL     1      47.682   9.765  12.154  0.00  0.00    +0.000 A 
ATOM      4  C   UNL     1      47.318   8.439  12.429  0.00  0.00    +0.000 A 
ATOM      5  C   UNL     1      48.260   7.426  12.204  0.00  0.00    +0.000 A 
ATOM      6  C   UNL     1      49.544   7.732  11.744  0.00  0.00    +0.000 A 
ENDROOT
BRANCH   1   7
ATOM      7  C   UNL     1      51.304   9.387  11.005  0.00  0.00    +0.000 C 
BRANCH   7  10
ATOM      8  C   UNL     1      52.803   8.321   9.366  0.00  0.00    +0.000 C 
ATOM      9  O   UNL     1      53.069   9.407   8.849  0.00  0.00    +0.000 OA
ATOM     10  N   UNL     1      51.947   8.228  10.434  0.00  0.00    +0.000 N 
ATOM     11  H   UNL     1      51.736   7.324  10.841  0.00  0.00    +0.000 HD
BRANCH   8  15
ATOM     12  C   UNL     1      54.342   4.674   7.604  0.00  0.00    +0.000 A 
ATOM     13  C   UNL     1      53.203   5.307   7.121  0.00  0.00    +0.000 A 
ATOM     14  C   UNL     1      52.749   6.486   7.724  0.00  0.00    +0.000 A 
ATOM     15  C   UNL     1      53.419   7.064   8.824  0.00  0.00    +0.000 A 
ATOM     16  C   UNL     1      54.572   6.418   9.295  0.00  0.00    +0.000 A 
ATOM     17 CL   UNL     1      55.533   6.970  10.625  0.00  0.00    +0.000 Cl
ATOM     18  C   UNL     1      55.022   5.235   8.684  0.00  0.00    +0.000 A 
BRANCH  12  20
ATOM     19  C   UNL     1      54.583   3.194   5.761  0.00  0.00    +0.000 C 
ATOM     20  O   UNL     1      54.890   3.522   7.112  0.00  0.00    +0.000 OA
ENDBRANCH  12  20
ENDBRANCH   8  15
ENDBRANCH   7  10
ENDBRANCH   1   7
BRANCH   4  21
ATOM     21  C   UNL     1      45.938   8.094  12.930  0.00  0.00    +0.000 C 
BRANCH  21  22
ATOM     22  N   UNL     1      45.575   6.744  12.584  0.00  0.00    +0.000 N 
ATOM     23  C   UNL     1      44.590   6.480  11.663  0.00  0.00    +0.000 C 
ATOM     24  O   UNL     1      44.001   7.375  11.062  0.00  0.00    +0.000 OA
ATOM     25  H   UNL     1      45.852   6.015  13.232  0.00  0.00    +0.000 HD
BRANCH  23  26
ATOM     26  C   UNL     1      44.325   5.064  11.382  0.00  0.00    +0.000 A 
ATOM     27  C   UNL     1      43.583   4.306  12.278  0.00  0.00    +0.000 A 
ATOM     28  S   UNL     1      43.323   2.700  11.766  0.00  0.00    +0.000 S 
ATOM     29  C   UNL     1      44.241   2.943  10.355  0.00  0.00    +0.000 A 
ATOM     30  N   UNL     1      44.445   1.932   9.467  0.00  0.00    +0.000 NA
ATOM     31  C   UNL     1      45.189   2.248   8.460  0.00  0.00    +0.000 A 
ATOM     32  N   UNL     1      45.742   3.485   8.256  0.00  0.00    +0.000 N 
ATOM     33  C   UNL     1      45.538   4.544   9.107  0.00  0.00    +0.000 A 
ATOM     34  O   UNL     1      46.009   5.651   8.870  0.00  0.00    +0.000 OA
ATOM     35  C   UNL     1      44.721   4.237  10.266  0.00  0.00    +0.000 A 
ATOM     36  H   UNL     1      46.308   3.673   7.441  0.00  0.00    +0.000 HD
ENDBRANCH  23  26
ENDBRANCH  21  22
ENDBRANCH   4  21
TORSDOF 7
ENDMDL
MODEL 5
REMARK VINA RESULT:    -6.713      3.313      9.226
REMARK INTER + INTRA:         -10.659
REMARK INTER:                  -9.567
REMARK INTRA:                  -1.092
REMARK UNBOUND:                -1.198
REMARK  Name = 
REMARK  8 active torsions:
REMARK  status: ('A' for Active; 'I' for Inactive)
REMARK    1  A    between atoms: C_1  and  O_2
REMARK    2  A    between atoms: O_2  and  C_3
REMARK    3  A    between atoms: C_6  and  C_7
REMARK    4  A    between atoms: N_9  and  C_10
REMARK    5  A    between atoms: C_10  and  C_11
REMARK    6  A    between atoms: C_14  and  C_15
REMARK    7  A    between atoms: C_15  and  N_16
REMARK    8  A    between atoms: C_17  and  C_19
REMARK                            x       y       z     vdW  Elec       q    Type
REMARK                         _______ _______ _______ _____ _____    ______ ____
ROOT
ATOM      1  C   UNL     1      47.940   8.209  13.837  0.00  0.00    +0.000 A 
ATOM      2  C   UNL     1      47.886   9.280  14.739  0.00  0.00    +0.000 A 
ATOM      3  C   UNL     1      48.322   9.125  16.061  0.00  0.00    +0.000 A 
ATOM      4  C   UNL     1      48.844   7.901  16.502  0.00  0.00    +0.000 A 
ATOM      5  C   UNL     1      48.890   6.830  15.600  0.00  0.00    +0.000 A 
ATOM      6  C   UNL     1      48.456   6.985  14.281  0.00  0.00    +0.000 A 
ENDROOT
BRANCH   1   7
ATOM      7  C   UNL     1      47.497   8.382  12.407  0.00  0.00    +0.000 C 
BRANCH   7  10
ATOM      8  C   UNL     1      45.845   6.872  11.376  0.00  0.00    +0.000 C 
ATOM      9  O   UNL     1      44.965   7.730  11.445  0.00  0.00    +0.000 OA
ATOM     10  N   UNL     1      47.119   7.117  11.825  0.00  0.00    +0.000 N 
ATOM     11  H   UNL     1      47.827   6.394  11.766  0.00  0.00    +0.000 HD
BRANCH   8  15
ATOM     12  C   UNL     1      45.009   3.094   9.427  0.00  0.00    +0.000 A 
ATOM     13  C   UNL     1      45.491   4.196   8.731  0.00  0.00    +0.000 A 
ATOM     14  C   UNL     1      45.748   5.393   9.409  0.00  0.00    +0.000 A 
ATOM     15  C   UNL     1      45.532   5.523  10.797  0.00  0.00    +0.000 A 
ATOM     16  C   UNL     1      45.053   4.399  11.489  0.00  0.00    +0.000 A 
ATOM     17 CL   UNL     1      44.731   4.355  13.188  0.00  0.00    +0.000 Cl
ATOM     18  C   UNL     1      44.798   3.200  10.801  0.00  0.00    +0.000 A 
BRANCH  12  20
ATOM     19  C   UNL     1      45.792   1.161   8.289  0.00  0.00    +0.000 C 
ATOM     20  O   UNL     1      44.715   1.871   8.890  0.00  0.00    +0.000 OA
ENDBRANCH  12  20
ENDBRANCH   8  15
ENDBRANCH   7  10
ENDBRANCH   1   7
BRANCH   4  21
ATOM     21  C   UNL     1      49.321   7.720  17.921  0.00  0.00    +0.000 C 
BRANCH  21  22
ATOM     22  N   UNL     1      50.340   6.706  18.008  0.00  0.00    +0.000 N 
ATOM     23  C   UNL     1      50.231   5.653  18.883  0.00  0.00    +0.000 C 
ATOM     24  O   UNL     1      49.247   5.501  19.603  0.00  0.00    +0.000 OA
ATOM     25  H   UNL     1      51.251   6.939  17.628  0.00  0.00    +0.000 HD
BRANCH  23  26
ATOM     26  C   UNL     1      51.326   4.675  18.865  0.00  0.00    +0.000 A 
ATOM     27  C   UNL     1      52.507   4.944  19.544  0.00  0.00    +0.000 A 
ATOM     28  S   UNL     1      53.647   3.676  19.464  0.00  0.00    +0.000 S 
ATOM     29  C   UNL     1      52.625   2.747  18.471  0.00  0.00    +0.000 A 
ATOM     30  N   UNL     1      53.015   1.529  18.007  0.00  0.00    +0.000 NA
ATOM     31  C   UNL     1      52.155   0.951  17.237  0.00  0.00    +0.000 A 
ATOM     32  N   UNL     1      50.936   1.475  16.895  0.00  0.00    +0.000 N 
ATOM     33  C   UNL     1      50.486   2.685  17.365  0.00  0.00    +0.000 A 
ATOM     34  O   UNL     1      49.370   3.104  17.077  0.00  0.00    +0.000 OA
ATOM     35  C   UNL     1      51.423   3.386  18.222  0.00  0.00    +0.000 A 
ATOM     36  H   UNL     1      50.302   0.968  16.295  0.00  0.00    +0.000 HD
ENDBRANCH  23  26
ENDBRANCH  21  22
ENDBRANCH   4  21
TORSDOF 7
ENDMDL
MODEL 6
REMARK VINA RESULT:    -6.710      3.060      9.418
REMARK INTER + INTRA:         -10.655
REMARK INTER:                  -9.702
REMARK INTRA:                  -0.953
REMARK UNBOUND:                -1.198
REMARK  Name = 
REMARK  8 active torsions:
REMARK  status: ('A' for Active; 'I' for Inactive)
REMARK    1  A    between atoms: C_1  and  O_2
REMARK    2  A    between atoms: O_2  and  C_3
REMARK    3  A    between atoms: C_6  and  C_7
REMARK    4  A    between atoms: N_9  and  C_10
REMARK    5  A    between atoms: C_10  and  C_11
REMARK    6  A    between atoms: C_14  and  C_15
REMARK    7  A    between atoms: C_15  and  N_16
REMARK    8  A    between atoms: C_17  and  C_19
REMARK                            x       y       z     vdW  Elec       q    Type
REMARK                         _______ _______ _______ _____ _____    ______ ____
ROOT
ATOM      1  C   UNL     1      46.522   7.649  12.899  0.00  0.00    +0.000 A 
ATOM      2  C   UNL     1      46.893   8.886  13.444  0.00  0.00    +0.000 A 
ATOM      3  C   UNL     1      47.853   8.960  14.460  0.00  0.00    +0.000 A 
ATOM      4  C   UNL     1      48.479   7.801  14.938  0.00  0.00    +0.000 A 
ATOM      5  C   UNL     1      48.101   6.565  14.397  0.00  0.00    +0.000 A 
ATOM      6  C   UNL     1      47.143   6.490  13.381  0.00  0.00    +0.000 A 
ENDROOT
BRANCH   1   7
ATOM      7  C   UNL     1      45.508   7.570  11.786  0.00  0.00    +0.000 C 
BRANCH   7  10
ATOM      8  C   UNL     1      44.820   5.558  10.542  0.00  0.00    +0.000 C 
ATOM      9  O   UNL     1      43.660   5.663  10.942  0.00  0.00    +0.000 OA
ATOM     10  N   UNL     1      45.788   6.459  10.908  0.00  0.00    +0.000 N 
ATOM     11  H   UNL     1      46.738   6.350  10.573  0.00  0.00    +0.000 HD
BRANCH   8  15
ATOM     12  C   UNL     1      46.058   2.484   7.751  0.00  0.00    +0.000 A 
ATOM     13  C   UNL     1      46.449   3.810   7.614  0.00  0.00    +0.000 A 
ATOM     14  C   UNL     1      46.024   4.764   8.545  0.00  0.00    +0.000 A 
ATOM     15  C   UNL     1      45.199   4.422   9.637  0.00  0.00    +0.000 A 
ATOM     16  C   UNL     1      44.818   3.077   9.768  0.00  0.00    +0.000 A 
ATOM     17 CL   UNL     1      43.818   2.458  11.037  0.00  0.00    +0.000 Cl
ATOM     18  C   UNL     1      45.250   2.125   8.829  0.00  0.00    +0.000 A 
BRANCH  12  20
ATOM     19  C   UNL     1      46.787   0.233   7.531  0.00  0.00    +0.000 C 
ATOM     20  O   UNL     1      46.397   1.455   6.915  0.00  0.00    +0.000 OA
ENDBRANCH  12  20
ENDBRANCH   8  15
ENDBRANCH   7  10
ENDBRANCH   1   7
BRANCH   4  21
ATOM     21  C   UNL     1      49.517   7.865  16.029  0.00  0.00    +0.000 C 
BRANCH  21  22
ATOM     22  N   UNL     1      50.108   6.574  16.270  0.00  0.00    +0.000 N 
ATOM     23  C   UNL     1      49.688   5.776  17.308  0.00  0.00    +0.000 C 
ATOM     24  O   UNL     1      48.768   6.103  18.053  0.00  0.00    +0.000 OA
ATOM     25  H   UNL     1      51.013   6.397  15.848  0.00  0.00    +0.000 HD
BRANCH  23  26
ATOM     26  C   UNL     1      50.355   4.474  17.439  0.00  0.00    +0.000 A 
ATOM     27  C   UNL     1      49.632   3.303  17.256  0.00  0.00    +0.000 A 
ATOM     28  S   UNL     1      50.576   1.888  17.389  0.00  0.00    +0.000 S 
ATOM     29  C   UNL     1      51.973   2.788  17.752  0.00  0.00    +0.000 A 
ATOM     30  N   UNL     1      53.158   2.171  18.010  0.00  0.00    +0.000 NA
ATOM     31  C   UNL     1      54.125   2.974  18.304  0.00  0.00    +0.000 A 
ATOM     32  N   UNL     1      54.018   4.339  18.356  0.00  0.00    +0.000 N 
ATOM     33  C   UNL     1      52.852   5.008  18.071  0.00  0.00    +0.000 A 
ATOM     34  O   UNL     1      52.802   6.233  18.080  0.00  0.00    +0.000 OA
ATOM     35  C   UNL     1      51.727   4.149  17.750  0.00  0.00    +0.000 A 
ATOM     36  H   UNL     1      54.815   4.915  18.582  0.00  0.00    +0.000 HD
ENDBRANCH  23  26
ENDBRANCH  21  22
ENDBRANCH   4  21
TORSDOF 7
ENDMDL
MODEL 7
REMARK VINA RESULT:    -6.695      4.091      9.017
REMARK INTER + INTRA:         -10.633
REMARK INTER:                  -9.851
REMARK INTRA:                  -0.782
REMARK UNBOUND:                -1.198
REMARK  Name = 
REMARK  8 active torsions:
REMARK  status: ('A' for Active; 'I' for Inactive)
REMARK    1  A    between atoms: C_1  and  O_2
REMARK    2  A    between atoms: O_2  and  C_3
REMARK    3  A    between atoms: C_6  and  C_7
REMARK    4  A    between atoms: N_9  and  C_10
REMARK    5  A    between atoms: C_10  and  C_11
REMARK    6  A    between atoms: C_14  and  C_15
REMARK    7  A    between atoms: C_15  and  N_16
REMARK    8  A    between atoms: C_17  and  C_19
REMARK                            x       y       z     vdW  Elec       q    Type
REMARK                         _______ _______ _______ _____ _____    ______ ____
ROOT
ATOM      1  C   UNL     1      45.759   8.561  12.192  0.00  0.00    +0.000 A 
ATOM      2  C   UNL     1      46.343   9.816  11.978  0.00  0.00    +0.000 A 
ATOM      3  C   UNL     1      47.462  10.220  12.716  0.00  0.00    +0.000 A 
ATOM      4  C   UNL     1      48.035   9.366  13.669  0.00  0.00    +0.000 A 
ATOM      5  C   UNL     1      47.444   8.114  13.887  0.00  0.00    +0.000 A 
ATOM      6  C   UNL     1      46.327   7.711  13.148  0.00  0.00    +0.000 A 
ENDROOT
BRANCH   1   7
ATOM      7  C   UNL     1      44.571   8.115  11.378  0.00  0.00    +0.000 C 
BRANCH   7  10
ATOM      8  C   UNL     1      44.367   5.692  10.979  0.00  0.00    +0.000 C 
ATOM      9  O   UNL     1      43.620   5.559  11.948  0.00  0.00    +0.000 OA
ATOM     10  N   UNL     1      44.874   6.919  10.630  0.00  0.00    +0.000 N 
ATOM     11  H   UNL     1      45.494   7.006   9.833  0.00  0.00    +0.000 HD
BRANCH   8  15
ATOM     12  C   UNL     1      45.609   2.431   8.411  0.00  0.00    +0.000 A 
ATOM     13  C   UNL     1      46.017   3.741   8.194  0.00  0.00    +0.000 A 
ATOM     14  C   UNL     1      45.590   4.758   9.055  0.00  0.00    +0.000 A 
ATOM     15  C   UNL     1      44.746   4.496  10.155  0.00  0.00    +0.000 A 
ATOM     16  C   UNL     1      44.348   3.166  10.367  0.00  0.00    +0.000 A 
ATOM     17 CL   UNL     1      43.323   2.641  11.658  0.00  0.00    +0.000 Cl
ATOM     18  C   UNL     1      44.782   2.151   9.497  0.00  0.00    +0.000 A 
BRANCH  12  20
ATOM     19  C   UNL     1      47.277   1.314   7.140  0.00  0.00    +0.000 C 
ATOM     20  O   UNL     1      45.948   1.347   7.648  0.00  0.00    +0.000 OA
ENDBRANCH  12  20
ENDBRANCH   8  15
ENDBRANCH   7  10
ENDBRANCH   1   7
BRANCH   4  21
ATOM     21  C   UNL     1      49.242   9.784  14.470  0.00  0.00    +0.000 C 
BRANCH  21  22
ATOM     22  N   UNL     1      49.346   9.035  15.695  0.00  0.00    +0.000 N 
ATOM     23  C   UNL     1      50.179   7.947  15.802  0.00  0.00    +0.000 C 
ATOM     24  O   UNL     1      50.902   7.584  14.878  0.00  0.00    +0.000 OA
ATOM     25  H   UNL     1      48.594   9.147  16.367  0.00  0.00    +0.000 HD
BRANCH  23  26
ATOM     26  C   UNL     1      50.211   7.277  17.108  0.00  0.00    +0.000 A 
ATOM     27  C   UNL     1      50.962   7.815  18.145  0.00  0.00    +0.000 A 
ATOM     28  S   UNL     1      50.839   6.940  19.605  0.00  0.00    +0.000 S 
ATOM     29  C   UNL     1      49.823   5.779  18.888  0.00  0.00    +0.000 A 
ATOM     30  N   UNL     1      49.363   4.714  19.598  0.00  0.00    +0.000 NA
ATOM     31  C   UNL     1      48.631   3.895  18.919  0.00  0.00    +0.000 A 
ATOM     32  N   UNL     1      48.310   4.049  17.595  0.00  0.00    +0.000 N 
ATOM     33  C   UNL     1      48.723   5.124  16.847  0.00  0.00    +0.000 A 
ATOM     34  O   UNL     1      48.379   5.256  15.677  0.00  0.00    +0.000 OA
ATOM     35  C   UNL     1      49.565   6.067  17.559  0.00  0.00    +0.000 A 
ATOM     36  H   UNL     1      47.723   3.378  17.122  0.00  0.00    +0.000 HD
ENDBRANCH  23  26
ENDBRANCH  21  22
ENDBRANCH   4  21
TORSDOF 7
ENDMDL
MODEL 8
REMARK VINA RESULT:    -6.380      4.422     10.877
REMARK INTER + INTRA:         -10.190
REMARK INTER:                  -8.962
REMARK INTRA:                  -1.228
REMARK UNBOUND:                -1.198
REMARK  Name = 
REMARK  8 active torsions:
REMARK  status: ('A' for Active; 'I' for Inactive)
REMARK    1  A    between atoms: C_1  and  O_2
REMARK    2  A    between atoms: O_2  and  C_3
REMARK    3  A    between atoms: C_6  and  C_7
REMARK    4  A    between atoms: N_9  and  C_10
REMARK    5  A    between atoms: C_10  and  C_11
REMARK    6  A    between atoms: C_14  and  C_15
REMARK    7  A    between atoms: C_15  and  N_16
REMARK    8  A    between atoms: C_17  and  C_19
REMARK                            x       y       z     vdW  Elec       q    Type
REMARK                         _______ _______ _______ _____ _____    ______ ____
ROOT
ATOM      1  C   UNL     1      48.752   3.297  17.167  0.00  0.00    +0.000 A 
ATOM      2  C   UNL     1      49.379   4.459  17.635  0.00  0.00    +0.000 A 
ATOM      3  C   UNL     1      50.742   4.457  17.957  0.00  0.00    +0.000 A 
ATOM      4  C   UNL     1      51.511   3.296  17.796  0.00  0.00    +0.000 A 
ATOM      5  C   UNL     1      50.881   2.134  17.334  0.00  0.00    +0.000 A 
ATOM      6  C   UNL     1      49.520   2.137  17.011  0.00  0.00    +0.000 A 
ENDROOT
BRANCH   1   7
ATOM      7  C   UNL     1      47.292   3.306  16.794  0.00  0.00    +0.000 C 
BRANCH   7  10
ATOM      8  C   UNL     1      46.934   4.335  14.584  0.00  0.00    +0.000 C 
ATOM      9  O   UNL     1      47.154   3.268  14.011  0.00  0.00    +0.000 OA
ATOM     10  N   UNL     1      46.978   4.435  15.952  0.00  0.00    +0.000 N 
ATOM     11  H   UNL     1      46.801   5.325  16.404  0.00  0.00    +0.000 HD
BRANCH   8  15
ATOM     12  C   UNL     1      45.751   7.740  12.180  0.00  0.00    +0.000 A 
ATOM     13  C   UNL     1      44.937   6.626  12.337  0.00  0.00    +0.000 A 
ATOM     14  C   UNL     1      45.364   5.553  13.128  0.00  0.00    +0.000 A 
ATOM     15  C   UNL     1      46.615   5.564  13.782  0.00  0.00    +0.000 A 
ATOM     16  C   UNL     1      47.423   6.699  13.621  0.00  0.00    +0.000 A 
ATOM     17 CL   UNL     1      48.982   6.906  14.343  0.00  0.00    +0.000 Cl
ATOM     18  C   UNL     1      46.986   7.773  12.826  0.00  0.00    +0.000 A 
BRANCH  12  20
ATOM     19  C   UNL     1      44.889   9.954  12.134  0.00  0.00    +0.000 C 
ATOM     20  O   UNL     1      45.458   8.851  11.437  0.00  0.00    +0.000 OA
ENDBRANCH  12  20
ENDBRANCH   8  15
ENDBRANCH   7  10
ENDBRANCH   1   7
BRANCH   4  21
ATOM     21  C   UNL     1      52.981   3.279  18.134  0.00  0.00    +0.000 C 
BRANCH  21  22
ATOM     22  N   UNL     1      53.426   1.952  18.474  0.00  0.00    +0.000 N 
ATOM     23  C   UNL     1      54.720   1.709  18.867  0.00  0.00    +0.000 C 
ATOM     24  O   UNL     1      55.547   2.609  18.988  0.00  0.00    +0.000 OA
ATOM     25  H   UNL     1      52.859   1.179  18.144  0.00  0.00    +0.000 HD
BRANCH  23  26
ATOM     26  C   UNL     1      55.048   0.318  19.205  0.00  0.00    +0.000 A 
ATOM     27  C   UNL     1      55.498   0.001  20.479  0.00  0.00    +0.000 A 
ATOM     28  S   UNL     1      55.775  -1.667  20.713  0.00  0.00    +0.000 S 
ATOM     29  C   UNL     1      55.359  -2.017  19.101  0.00  0.00    +0.000 A 
ATOM     30  N   UNL     1      55.411  -3.290  18.623  0.00  0.00    +0.000 NA
ATOM     31  C   UNL     1      55.103  -3.405  17.375  0.00  0.00    +0.000 A 
ATOM     32  N   UNL     1      54.738  -2.364  16.562  0.00  0.00    +0.000 N 
ATOM     33  C   UNL     1      54.639  -1.068  17.007  0.00  0.00    +0.000 A 
ATOM     34  O   UNL     1      54.265  -0.166  16.265  0.00  0.00    +0.000 OA
ATOM     35  C   UNL     1      54.993  -0.881  18.402  0.00  0.00    +0.000 A 
ATOM     36  H   UNL     1      54.497  -2.520  15.594  0.00  0.00    +0.000 HD
ENDBRANCH  23  26
ENDBRANCH  21  22
ENDBRANCH   4  21
TORSDOF 7
ENDMDL
MODEL 9
REMARK VINA RESULT:    -6.263      5.458      7.752
REMARK INTER + INTRA:         -10.025
REMARK INTER:                  -8.898
REMARK INTRA:                  -1.127
REMARK UNBOUND:                -1.198
REMARK  Name = 
REMARK  8 active torsions:
REMARK  status: ('A' for Active; 'I' for Inactive)
REMARK    1  A    between atoms: C_1  and  O_2
REMARK    2  A    between atoms: O_2  and  C_3
REMARK    3  A    between atoms: C_6  and  C_7
REMARK    4  A    between atoms: N_9  and  C_10
REMARK    5  A    between atoms: C_10  and  C_11
REMARK    6  A    between atoms: C_14  and  C_15
REMARK    7  A    between atoms: C_15  and  N_16
REMARK    8  A    between atoms: C_17  and  C_19
REMARK                            x       y       z     vdW  Elec       q    Type
REMARK                         _______ _______ _______ _____ _____    ______ ____
ROOT
ATOM      1  C   UNL     1      50.544   8.779  11.885  0.00  0.00    +0.000 A 
ATOM      2  C   UNL     1      50.019   7.502  12.121  0.00  0.00    +0.000 A 
ATOM      3  C   UNL     1      48.637   7.302  12.211  0.00  0.00    +0.000 A 
ATOM      4  C   UNL     1      47.748   8.373  12.044  0.00  0.00    +0.000 A 
ATOM      5  C   UNL     1      48.275   9.651  11.814  0.00  0.00    +0.000 A 
ATOM      6  C   UNL     1      49.656   9.850  11.724  0.00  0.00    +0.000 A 
ENDROOT
BRANCH   1   7
ATOM      7  C   UNL     1      52.031   8.991  11.760  0.00  0.00    +0.000 C 
BRANCH   7  10
ATOM      8  C   UNL     1      53.124   8.134   9.726  0.00  0.00    +0.000 C 
ATOM      9  O   UNL     1      53.445   7.090  10.294  0.00  0.00    +0.000 OA
ATOM     10  N   UNL     1      52.424   9.118  10.377  0.00  0.00    +0.000 N 
ATOM     11  H   UNL     1      52.176   9.973   9.893  0.00  0.00    +0.000 HD
BRANCH   8  15
ATOM     12  C   UNL     1      54.381   9.017   5.674  0.00  0.00    +0.000 A 
ATOM     13  C   UNL     1      54.804   9.771   6.762  0.00  0.00    +0.000 A 
ATOM     14  C   UNL     1      54.371   9.443   8.051  0.00  0.00    +0.000 A 
ATOM     15  C   UNL     1      53.506   8.353   8.290  0.00  0.00    +0.000 A 
ATOM     16  C   UNL     1      53.095   7.595   7.183  0.00  0.00    +0.000 A 
ATOM     17 CL   UNL     1      52.044   6.222   7.268  0.00  0.00    +0.000 Cl
ATOM     18  C   UNL     1      53.534   7.931   5.891  0.00  0.00    +0.000 A 
BRANCH  12  20
ATOM     19  C   UNL     1      53.678   9.134   3.408  0.00  0.00    +0.000 C 
ATOM     20  O   UNL     1      54.725   9.230   4.367  0.00  0.00    +0.000 OA
ENDBRANCH  12  20
ENDBRANCH   8  15
ENDBRANCH   7  10
ENDBRANCH   1   7
BRANCH   4  21
ATOM     21  C   UNL     1      46.256   8.174  12.134  0.00  0.00    +0.000 C 
BRANCH  21  22
ATOM     22  N   UNL     1      45.891   6.806  11.867  0.00  0.00    +0.000 N 
ATOM     23  C   UNL     1      44.610   6.463  11.507  0.00  0.00    +0.000 C 
ATOM     24  O   UNL     1      43.727   7.302  11.356  0.00  0.00    +0.000 OA
ATOM     25  H   UNL     1      46.511   6.088  12.226  0.00  0.00    +0.000 HD
BRANCH  23  26
ATOM     26  C   UNL     1      44.368   5.039  11.244  0.00  0.00    +0.000 A 
ATOM     27  C   UNL     1      43.624   4.285  12.142  0.00  0.00    +0.000 A 
ATOM     28  S   UNL     1      43.393   2.667  11.651  0.00  0.00    +0.000 S 
ATOM     29  C   UNL     1      44.327   2.902  10.249  0.00  0.00    +0.000 A 
ATOM     30  N   UNL     1      44.555   1.881   9.379  0.00  0.00    +0.000 NA
ATOM     31  C   UNL     1      45.308   2.192   8.377  0.00  0.00    +0.000 A 
ATOM     32  N   UNL     1      45.848   3.433   8.161  0.00  0.00    +0.000 N 
ATOM     33  C   UNL     1      45.618   4.502   8.994  0.00  0.00    +0.000 A 
ATOM     34  O   UNL     1      46.077   5.612   8.746  0.00  0.00    +0.000 OA
ATOM     35  C   UNL     1      44.790   4.201  10.147  0.00  0.00    +0.000 A 
ATOM     36  H   UNL     1      46.421   3.617   7.351  0.00  0.00    +0.000 HD
ENDBRANCH  23  26
ENDBRANCH  21  22
ENDBRANCH   4  21
TORSDOF 7
ENDMDL
