MODEL 1
REMARK VINA RESULT:    -7.982      0.000      0.000
REMARK INTER + INTRA:         -12.480
REMARK INTER:                 -11.714
REMARK INTRA:                  -0.766
REMARK UNBOUND:                -0.766
REMARK  Name = 
REMARK  9 active torsions:
REMARK  status: ('A' for Active; 'I' for Inactive)
REMARK    1  A    between atoms: C_1  and  C_2
REMARK    2  A    between atoms: C_2  and  N_3
REMARK    3  A    between atoms: C_2  and  C_19
REMARK    4  A    between atoms: N_3  and  C_4
REMARK    5  A    between atoms: C_4  and  C_5
REMARK    6  A    between atoms: C_8  and  C_9
REMARK    7  A    between atoms: C_9  and  N_10
REMARK    8  A    between atoms: N_10  and  C_11
REMARK    9  A    between atoms: C_11  and  C_12
REMARK                            x       y       z     vdW  Elec       q    Type
REMARK                         _______ _______ _______ _____ _____    ______ ____
ROOT
ATOM      1  C   UNL     1      48.236   5.718  14.704  0.00  0.00    +0.000 C 
ENDROOT
BRANCH   1   2
ATOM      2  C   UNL     1      47.126   5.150  13.862  0.00  0.00    +0.000 A 
ATOM      3  C   UNL     1      46.263   5.959  13.121  0.00  0.00    +0.000 A 
ATOM      4  C   UNL     1      45.275   5.375  12.330  0.00  0.00    +0.000 A 
ATOM      5  C   UNL     1      45.181   3.987  12.288  0.00  0.00    +0.000 A 
ATOM      6  N   UNL     1      46.015   3.178  12.986  0.00  0.00    +0.000 NA
ATOM      7  C   UNL     1      46.952   3.774  13.758  0.00  0.00    +0.000 A 
BRANCH   5   8
ATOM      8  C   UNL     1      44.096   3.314  11.467  0.00  0.00    +0.000 C 
BRANCH   8   9
ATOM      9  N   UNL     1      44.600   2.414  10.423  0.00  0.00    +0.000 NA
ATOM     10  H   UNL     1      43.974   1.602  10.396  0.00  0.00    +0.000 HD
BRANCH   9  11
ATOM     11  C   UNL     1      44.535   3.027   9.093  0.00  0.00    +0.000 C 
BRANCH  11  12
ATOM     12  C   UNL     1      45.665   2.490   8.275  0.00  0.00    +0.000 A 
ATOM     13  C   UNL     1      46.479   3.152   7.381  0.00  0.00    +0.000 A 
ATOM     14  N   UNL     1      47.358   2.208   6.927  0.00  0.00    +0.000 N 
ATOM     15  C   UNL     1      47.053   1.030   7.541  0.00  0.00    +0.000 A 
ATOM     16  N   UNL     1      46.032   1.163   8.359  0.00  0.00    +0.000 NA
ATOM     17  H   UNL     1      48.107   2.353   6.264  0.00  0.00    +0.000 HD
ENDBRANCH  11  12
ENDBRANCH   9  11
ENDBRANCH   8   9
ENDBRANCH   5   8
ENDBRANCH   1   2
BRANCH   1  18
ATOM     18  N   UNL     1      47.868   5.815  16.119  0.00  0.00    +0.000 NA
ATOM     19  H   UNL     1      48.452   6.531  16.553  0.00  0.00    +0.000 HD
BRANCH  18  21
ATOM     20  C   UNL     1      47.104   4.332  17.987  0.00  0.00    +0.000 C 
ATOM     21  C   UNL     1      48.103   4.551  16.840  0.00  0.00    +0.000 C 
BRANCH  21  22
ATOM     22  C   UNL     1      49.514   4.560  17.403  0.00  0.00    +0.000 A 
ATOM     23  C   UNL     1      50.114   5.610  18.083  0.00  0.00    +0.000 A 
ATOM     24  S   UNL     1      51.671   5.228  18.676  0.00  0.00    +0.000 S 
ATOM     25  C   UNL     1      51.580   3.639  18.072  0.00  0.00    +0.000 A 
ATOM     26  N   UNL     1      52.573   2.736  18.293  0.00  0.00    +0.000 NA
ATOM     27  C   UNL     1      52.342   1.564  17.800  0.00  0.00    +0.000 A 
ATOM     28  N   UNL     1      51.223   1.217  17.086  0.00  0.00    +0.000 N 
ATOM     29  C   UNL     1      50.207   2.102  16.810  0.00  0.00    +0.000 A 
ATOM     30  O   UNL     1      49.235   1.775  16.137  0.00  0.00    +0.000 OA
ATOM     31  C   UNL     1      50.402   3.422  17.384  0.00  0.00    +0.000 A 
ATOM     32  H   UNL     1      51.114   0.287  16.711  0.00  0.00    +0.000 HD
ENDBRANCH  21  22
ENDBRANCH  18  21
ENDBRANCH   1  18
TORSDOF 8
ENDMDL
MODEL 2
REMARK VINA RESULT:    -7.356      1.594      1.960
REMARK INTER + INTRA:         -11.562
REMARK INTER:                 -10.544
REMARK INTRA:                  -1.018
REMARK UNBOUND:                -0.766
REMARK  Name = 
REMARK  9 active torsions:
REMARK  status: ('A' for Active; 'I' for Inactive)
REMARK    1  A    between atoms: C_1  and  C_2
REMARK    2  A    between atoms: C_2  and  N_3
REMARK    3  A    between atoms: C_2  and  C_19
REMARK    4  A    between atoms: N_3  and  C_4
REMARK    5  A    between atoms: C_4  and  C_5
REMARK    6  A    between atoms: C_8  and  C_9
REMARK    7  A    between atoms: C_9  and  N_10
REMARK    8  A    between atoms: N_10  and  C_11
REMARK    9  A    between atoms: C_11  and  C_12
REMARK                            x       y       z     vdW  Elec       q    Type
REMARK                         _______ _______ _______ _____ _____    ______ ____
ROOT
ATOM      1  C   UNL     1      47.928   6.643  14.033  0.00  0.00    +0.000 C 
ENDROOT
BRANCH   1   2
ATOM      2  C   UNL     1      46.953   5.861  13.196  0.00  0.00    +0.000 A 
ATOM      3  C   UNL     1      46.522   6.302  11.943  0.00  0.00    +0.000 A 
ATOM      4  C   UNL     1      45.645   5.516  11.198  0.00  0.00    +0.000 A 
ATOM      5  C   UNL     1      45.228   4.294  11.718  0.00  0.00    +0.000 A 
ATOM      6  N   UNL     1      45.642   3.836  12.924  0.00  0.00    +0.000 NA
ATOM      7  C   UNL     1      46.479   4.628  13.633  0.00  0.00    +0.000 A 
BRANCH   5   8
ATOM      8  C   UNL     1      44.246   3.427  10.952  0.00  0.00    +0.000 C 
BRANCH   8   9
ATOM      9  N   UNL     1      44.868   2.334  10.195  0.00  0.00    +0.000 NA
ATOM     10  H   UNL     1      44.457   1.458  10.534  0.00  0.00    +0.000 HD
BRANCH   9  11
ATOM     11  C   UNL     1      44.554   2.410   8.765  0.00  0.00    +0.000 C 
BRANCH  11  12
ATOM     12  C   UNL     1      45.834   2.572   8.012  0.00  0.00    +0.000 A 
ATOM     13  C   UNL     1      46.405   3.723   7.510  0.00  0.00    +0.000 A 
ATOM     14  N   UNL     1      47.576   3.322   6.932  0.00  0.00    +0.000 N 
ATOM     15  C   UNL     1      47.675   1.971   7.092  0.00  0.00    +0.000 A 
ATOM     16  N   UNL     1      46.637   1.486   7.737  0.00  0.00    +0.000 NA
ATOM     17  H   UNL     1      48.256   3.915   6.476  0.00  0.00    +0.000 HD
ENDBRANCH  11  12
ENDBRANCH   9  11
ENDBRANCH   8   9
ENDBRANCH   5   8
ENDBRANCH   1   2
BRANCH   1  18
ATOM     18  N   UNL     1      48.208   5.993  15.316  0.00  0.00    +0.000 NA
ATOM     19  H   UNL     1      47.321   5.694  15.723  0.00  0.00    +0.000 HD
BRANCH  18  21
ATOM     20  C   UNL     1      48.711   8.385  15.859  0.00  0.00    +0.000 C 
ATOM     21  C   UNL     1      48.850   6.912  16.273  0.00  0.00    +0.000 C 
BRANCH  21  22
ATOM     22  C   UNL     1      50.323   6.560  16.381  0.00  0.00    +0.000 A 
ATOM     23  C   UNL     1      51.378   7.303  15.872  0.00  0.00    +0.000 A 
ATOM     24  S   UNL     1      52.912   6.667  16.281  0.00  0.00    +0.000 S 
ATOM     25  C   UNL     1      52.215   5.399  17.180  0.00  0.00    +0.000 A 
ATOM     26  N   UNL     1      52.982   4.508  17.864  0.00  0.00    +0.000 NA
ATOM     27  C   UNL     1      52.306   3.625  18.524  0.00  0.00    +0.000 A 
ATOM     28  N   UNL     1      50.937   3.536  18.544  0.00  0.00    +0.000 N 
ATOM     29  C   UNL     1      50.121   4.394  17.844  0.00  0.00    +0.000 A 
ATOM     30  O   UNL     1      48.901   4.268  17.849  0.00  0.00    +0.000 OA
ATOM     31  C   UNL     1      50.835   5.432  17.123  0.00  0.00    +0.000 A 
ATOM     32  H   UNL     1      50.472   2.809  19.066  0.00  0.00    +0.000 HD
ENDBRANCH  21  22
ENDBRANCH  18  21
ENDBRANCH   1  18
TORSDOF 8
ENDMDL
MODEL 3
REMARK VINA RESULT:    -7.025      2.529      3.658
REMARK INTER + INTRA:         -11.076
REMARK INTER:                  -9.678
REMARK INTRA:                  -1.398
REMARK UNBOUND:                -0.766
REMARK  Name = 
REMARK  9 active torsions:
REMARK  status: ('A' for Active; 'I' for Inactive)
REMARK    1  A    between atoms: C_1  and  C_2
REMARK    2  A    between atoms: C_2  and  N_3
REMARK    3  A    between atoms: C_2  and  C_19
REMARK    4  A    between atoms: N_3  and  C_4
REMARK    5  A    between atoms: C_4  and  C_5
REMARK    6  A    between atoms: C_8  and  C_9
REMARK    7  A    between atoms: C_9  and  N_10
REMARK    8  A    between atoms: N_10  and  C_11
REMARK    9  A    between atoms: C_11  and  C_12
REMARK                            x       y       z     vdW  Elec       q    Type
REMARK                         _______ _______ _______ _____ _____    ______ ____
ROOT
ATOM      1  C   UNL     1      49.577   7.819  13.207  0.00  0.00    +0.000 C 
ENDROOT
BRANCH   1   2
ATOM      2  C   UNL     1      48.127   7.712  12.820  0.00  0.00    +0.000 A 
ATOM      3  C   UNL     1      47.188   8.685  13.166  0.00  0.00    +0.000 A 
ATOM      4  C   UNL     1      45.865   8.549  12.748  0.00  0.00    +0.000 A 
ATOM      5  C   UNL     1      45.513   7.445  11.977  0.00  0.00    +0.000 A 
ATOM      6  N   UNL     1      46.408   6.494  11.615  0.00  0.00    +0.000 NA
ATOM      7  C   UNL     1      47.680   6.643  12.051  0.00  0.00    +0.000 A 
BRANCH   5   8
ATOM      8  C   UNL     1      44.076   7.244  11.534  0.00  0.00    +0.000 C 
BRANCH   8   9
ATOM      9  N   UNL     1      43.346   6.225  12.297  0.00  0.00    +0.000 NA
ATOM     10  H   UNL     1      42.638   6.715  12.856  0.00  0.00    +0.000 HD
BRANCH   9  11
ATOM     11  C   UNL     1      42.614   5.304  11.422  0.00  0.00    +0.000 C 
BRANCH  11  12
ATOM     12  C   UNL     1      43.568   4.260  10.940  0.00  0.00    +0.000 A 
ATOM     13  C   UNL     1      44.134   3.214  11.638  0.00  0.00    +0.000 A 
ATOM     14  N   UNL     1      44.910   2.551  10.729  0.00  0.00    +0.000 N 
ATOM     15  C   UNL     1      44.798   3.204   9.537  0.00  0.00    +0.000 A 
ATOM     16  N   UNL     1      43.998   4.243   9.630  0.00  0.00    +0.000 NA
ATOM     17  H   UNL     1      45.461   1.722  10.900  0.00  0.00    +0.000 HD
ENDBRANCH  11  12
ENDBRANCH   9  11
ENDBRANCH   8   9
ENDBRANCH   5   8
ENDBRANCH   1   2
BRANCH   1  18
ATOM     18  N   UNL     1      49.930   6.910  14.302  0.00  0.00    +0.000 NA
ATOM     19  H   UNL     1      49.590   5.977  14.065  0.00  0.00    +0.000 HD
BRANCH  18  21
ATOM     20  C   UNL     1      49.836   8.641  16.109  0.00  0.00    +0.000 C 
ATOM     21  C   UNL     1      49.298   7.305  15.574  0.00  0.00    +0.000 C 
BRANCH  21  22
ATOM     22  C   UNL     1      49.546   6.218  16.605  0.00  0.00    +0.000 A 
ATOM     23  C   UNL     1      50.517   6.239  17.595  0.00  0.00    +0.000 A 
ATOM     24  S   UNL     1      50.433   4.899  18.653  0.00  0.00    +0.000 S 
ATOM     25  C   UNL     1      49.077   4.264  17.842  0.00  0.00    +0.000 A 
ATOM     26  N   UNL     1      48.447   3.141  18.280  0.00  0.00    +0.000 NA
ATOM     27  C   UNL     1      47.415   2.805  17.579  0.00  0.00    +0.000 A 
ATOM     28  N   UNL     1      46.968   3.473  16.467  0.00  0.00    +0.000 N 
ATOM     29  C   UNL     1      47.588   4.595  15.968  0.00  0.00    +0.000 A 
ATOM     30  O   UNL     1      47.189   5.150  14.949  0.00  0.00    +0.000 OA
ATOM     31  C   UNL     1      48.728   5.037  16.751  0.00  0.00    +0.000 A 
ATOM     32  H   UNL     1      46.164   3.146  15.953  0.00  0.00    +0.000 HD
ENDBRANCH  21  22
ENDBRANCH  18  21
ENDBRANCH   1  18
TORSDOF 8
ENDMDL
MODEL 4
REMARK VINA RESULT:    -6.860      3.390      8.518
REMARK INTER + INTRA:         -10.834
REMARK INTER:                  -9.615
REMARK INTRA:                  -1.219
REMARK UNBOUND:                -0.766
REMARK  Name = 
REMARK  9 active torsions:
REMARK  status: ('A' for Active; 'I' for Inactive)
REMARK    1  A    between atoms: C_1  and  C_2
REMARK    2  A    between atoms: C_2  and  N_3
REMARK    3  A    between atoms: C_2  and  C_19
REMARK    4  A    between atoms: N_3  and  C_4
REMARK    5  A    between atoms: C_4  and  C_5
REMARK    6  A    between atoms: C_8  and  C_9
REMARK    7  A    between atoms: C_9  and  N_10
REMARK    8  A    between atoms: N_10  and  C_11
REMARK    9  A    between atoms: C_11  and  C_12
REMARK                            x       y       z     vdW  Elec       q    Type
REMARK                         _______ _______ _______ _____ _____    ______ ____
ROOT
ATOM      1  C   UNL     1      47.651   8.081  12.120  0.00  0.00    +0.000 C 
ENDROOT
BRANCH   1   2
ATOM      2  C   UNL     1      48.228   8.001  13.507  0.00  0.00    +0.000 A 
ATOM      3  C   UNL     1      47.905   8.922  14.505  0.00  0.00    +0.000 A 
ATOM      4  C   UNL     1      48.444   8.776  15.782  0.00  0.00    +0.000 A 
ATOM      5  C   UNL     1      49.287   7.698  16.037  0.00  0.00    +0.000 A 
ATOM      6  N   UNL     1      49.605   6.782  15.091  0.00  0.00    +0.000 NA
ATOM      7  C   UNL     1      49.082   6.960  13.857  0.00  0.00    +0.000 A 
BRANCH   5   8
ATOM      8  C   UNL     1      49.921   7.526  17.405  0.00  0.00    +0.000 C 
BRANCH   8   9
ATOM      9  N   UNL     1      49.188   6.623  18.301  0.00  0.00    +0.000 NA
ATOM     10  H   UNL     1      48.239   6.527  17.923  0.00  0.00    +0.000 HD
BRANCH   9  11
ATOM     11  C   UNL     1      49.764   5.275  18.312  0.00  0.00    +0.000 C 
BRANCH  11  12
ATOM     12  C   UNL     1      48.795   4.347  17.654  0.00  0.00    +0.000 A 
ATOM     13  C   UNL     1      47.421   4.436  17.583  0.00  0.00    +0.000 A 
ATOM     14  N   UNL     1      47.026   3.349  16.854  0.00  0.00    +0.000 N 
ATOM     15  C   UNL     1      48.146   2.647  16.519  0.00  0.00    +0.000 A 
ATOM     16  N   UNL     1      49.232   3.220  16.990  0.00  0.00    +0.000 NA
ATOM     17  H   UNL     1      46.079   3.108  16.598  0.00  0.00    +0.000 HD
ENDBRANCH  11  12
ENDBRANCH   9  11
ENDBRANCH   8   9
ENDBRANCH   5   8
ENDBRANCH   1   2
BRANCH   1  18
ATOM     18  N   UNL     1      47.072   6.807  11.683  0.00  0.00    +0.000 NA
ATOM     19  H   UNL     1      47.517   6.538  10.804  0.00  0.00    +0.000 HD
BRANCH  18  21
ATOM     20  C   UNL     1      44.930   7.886  12.401  0.00  0.00    +0.000 C 
ATOM     21  C   UNL     1      45.623   6.915  11.433  0.00  0.00    +0.000 C 
BRANCH  21  22
ATOM     22  C   UNL     1      44.996   5.539  11.573  0.00  0.00    +0.000 A 
ATOM     23  C   UNL     1      44.297   5.069  12.674  0.00  0.00    +0.000 A 
ATOM     24  S   UNL     1      43.630   3.513  12.438  0.00  0.00    +0.000 S 
ATOM     25  C   UNL     1      44.225   3.431  10.844  0.00  0.00    +0.000 A 
ATOM     26  N   UNL     1      43.951   2.372  10.036  0.00  0.00    +0.000 NA
ATOM     27  C   UNL     1      44.446   2.473   8.846  0.00  0.00    +0.000 A 
ATOM     28  N   UNL     1      45.208   3.521   8.397  0.00  0.00    +0.000 N 
ATOM     29  C   UNL     1      45.537   4.599   9.185  0.00  0.00    +0.000 A 
ATOM     30  O   UNL     1      46.253   5.505   8.770  0.00  0.00    +0.000 OA
ATOM     31  C   UNL     1      44.965   4.552  10.519  0.00  0.00    +0.000 A 
ATOM     32  H   UNL     1      45.581   3.528   7.459  0.00  0.00    +0.000 HD
ENDBRANCH  21  22
ENDBRANCH  18  21
ENDBRANCH   1  18
TORSDOF 8
ENDMDL
MODEL 5
REMARK VINA RESULT:    -6.840      1.814      2.693
REMARK INTER + INTRA:         -10.805
REMARK INTER:                 -10.083
REMARK INTRA:                  -0.723
REMARK UNBOUND:                -0.766
REMARK  Name = 
REMARK  9 active torsions:
REMARK  status: ('A' for Active; 'I' for Inactive)
REMARK    1  A    between atoms: C_1  and  C_2
REMARK    2  A    between atoms: C_2  and  N_3
REMARK    3  A    between atoms: C_2  and  C_19
REMARK    4  A    between atoms: N_3  and  C_4
REMARK    5  A    between atoms: C_4  and  C_5
REMARK    6  A    between atoms: C_8  and  C_9
REMARK    7  A    between atoms: C_9  and  N_10
REMARK    8  A    between atoms: N_10  and  C_11
REMARK    9  A    between atoms: C_11  and  C_12
REMARK                            x       y       z     vdW  Elec       q    Type
REMARK                         _______ _______ _______ _____ _____    ______ ____
ROOT
ATOM      1  C   UNL     1      49.390   6.903  15.142  0.00  0.00    +0.000 C 
ENDROOT
BRANCH   1   2
ATOM      2  C   UNL     1      48.135   6.926  14.312  0.00  0.00    +0.000 A 
ATOM      3  C   UNL     1      47.556   8.116  13.868  0.00  0.00    +0.000 A 
ATOM      4  C   UNL     1      46.413   8.073  13.071  0.00  0.00    +0.000 A 
ATOM      5  C   UNL     1      45.880   6.835  12.724  0.00  0.00    +0.000 A 
ATOM      6  N   UNL     1      46.431   5.665  13.131  0.00  0.00    +0.000 NA
ATOM      7  C   UNL     1      47.529   5.739  13.917  0.00  0.00    +0.000 A 
BRANCH   5   8
ATOM      8  C   UNL     1      44.616   6.748  11.889  0.00  0.00    +0.000 C 
BRANCH   8   9
ATOM      9  N   UNL     1      43.451   6.224  12.611  0.00  0.00    +0.000 NA
ATOM     10  H   UNL     1      42.898   7.031  12.920  0.00  0.00    +0.000 HD
BRANCH   9  11
ATOM     11  C   UNL     1      42.575   5.436  11.739  0.00  0.00    +0.000 C 
BRANCH  11  12
ATOM     12  C   UNL     1      43.381   4.327  11.146  0.00  0.00    +0.000 A 
ATOM     13  C   UNL     1      43.839   3.171  11.744  0.00  0.00    +0.000 A 
ATOM     14  N   UNL     1      44.500   2.494  10.759  0.00  0.00    +0.000 N 
ATOM     15  C   UNL     1      44.431   3.244   9.622  0.00  0.00    +0.000 A 
ATOM     16  N   UNL     1      43.766   4.360   9.821  0.00  0.00    +0.000 NA
ATOM     17  H   UNL     1      44.953   1.594  10.848  0.00  0.00    +0.000 HD
ENDBRANCH  11  12
ENDBRANCH   9  11
ENDBRANCH   8   9
ENDBRANCH   5   8
ENDBRANCH   1   2
BRANCH   1  18
ATOM     18  N   UNL     1      49.107   6.791  16.576  0.00  0.00    +0.000 NA
ATOM     19  H   UNL     1      49.871   7.235  17.088  0.00  0.00    +0.000 HD
BRANCH  18  21
ATOM     20  C   UNL     1      48.034   5.180  18.165  0.00  0.00    +0.000 C 
ATOM     21  C   UNL     1      49.034   5.386  17.017  0.00  0.00    +0.000 C 
BRANCH  21  22
ATOM     22  C   UNL     1      50.413   4.939  17.469  0.00  0.00    +0.000 A 
ATOM     23  C   UNL     1      51.377   5.742  18.060  0.00  0.00    +0.000 A 
ATOM     24  S   UNL     1      52.770   4.879  18.547  0.00  0.00    +0.000 S 
ATOM     25  C   UNL     1      52.115   3.399  18.015  0.00  0.00    +0.000 A 
ATOM     26  N   UNL     1      52.776   2.224  18.195  0.00  0.00    +0.000 NA
ATOM     27  C   UNL     1      52.134   1.186  17.767  0.00  0.00    +0.000 A 
ATOM     28  N   UNL     1      50.907   1.217  17.154  0.00  0.00    +0.000 N 
ATOM     29  C   UNL     1      50.215   2.383  16.922  0.00  0.00    +0.000 A 
ATOM     30  O   UNL     1      49.137   2.385  16.338  0.00  0.00    +0.000 OA
ATOM     31  C   UNL     1      50.877   3.572  17.428  0.00  0.00    +0.000 A 
ATOM     32  H   UNL     1      50.470   0.369  16.826  0.00  0.00    +0.000 HD
ENDBRANCH  21  22
ENDBRANCH  18  21
ENDBRANCH   1  18
TORSDOF 8
ENDMDL
MODEL 6
REMARK VINA RESULT:    -6.713      3.944      4.741
REMARK INTER + INTRA:         -10.619
REMARK INTER:                  -9.442
REMARK INTRA:                  -1.177
REMARK UNBOUND:                -0.766
REMARK  Name = 
REMARK  9 active torsions:
REMARK  status: ('A' for Active; 'I' for Inactive)
REMARK    1  A    between atoms: C_1  and  C_2
REMARK    2  A    between atoms: C_2  and  N_3
REMARK    3  A    between atoms: C_2  and  C_19
REMARK    4  A    between atoms: N_3  and  C_4
REMARK    5  A    between atoms: C_4  and  C_5
REMARK    6  A    between atoms: C_8  and  C_9
REMARK    7  A    between atoms: C_9  and  N_10
REMARK    8  A    between atoms: N_10  and  C_11
REMARK    9  A    between atoms: C_11  and  C_12
REMARK                            x       y       z     vdW  Elec       q    Type
REMARK                         _______ _______ _______ _____ _____    ______ ____
ROOT
ATOM      1  C   UNL     1      47.777   6.523  13.672  0.00  0.00    +0.000 C 
ENDROOT
BRANCH   1   2
ATOM      2  C   UNL     1      46.768   5.679  12.942  0.00  0.00    +0.000 A 
ATOM      3  C   UNL     1      46.244   6.047  11.701  0.00  0.00    +0.000 A 
ATOM      4  C   UNL     1      45.340   5.206  11.056  0.00  0.00    +0.000 A 
ATOM      5  C   UNL     1      44.988   4.004  11.661  0.00  0.00    +0.000 A 
ATOM      6  N   UNL     1      45.493   3.615  12.858  0.00  0.00    +0.000 NA
ATOM      7  C   UNL     1      46.354   4.460  13.469  0.00  0.00    +0.000 A 
BRANCH   5   8
ATOM      8  C   UNL     1      43.979   3.078  11.006  0.00  0.00    +0.000 C 
BRANCH   8   9
ATOM      9  N   UNL     1      44.043   3.057   9.540  0.00  0.00    +0.000 NA
ATOM     10  H   UNL     1      44.546   3.902   9.246  0.00  0.00    +0.000 HD
BRANCH   9  11
ATOM     11  C   UNL     1      44.824   1.920   9.042  0.00  0.00    +0.000 C 
BRANCH  11  12
ATOM     12  C   UNL     1      45.885   2.445   8.130  0.00  0.00    +0.000 A 
ATOM     13  C   UNL     1      46.082   3.734   7.680  0.00  0.00    +0.000 A 
ATOM     14  N   UNL     1      47.197   3.674   6.893  0.00  0.00    +0.000 N 
ATOM     15  C   UNL     1      47.628   2.381   6.884  0.00  0.00    +0.000 A 
ATOM     16  N   UNL     1      46.856   1.611   7.617  0.00  0.00    +0.000 NA
ATOM     17  H   UNL     1      47.635   4.447   6.409  0.00  0.00    +0.000 HD
ENDBRANCH  11  12
ENDBRANCH   9  11
ENDBRANCH   8   9
ENDBRANCH   5   8
ENDBRANCH   1   2
BRANCH   1  18
ATOM     18  N   UNL     1      49.010   6.708  12.903  0.00  0.00    +0.000 NA
ATOM     19  H   UNL     1      49.768   6.231  13.395  0.00  0.00    +0.000 HD
BRANCH  18  21
ATOM     20  C   UNL     1      48.559   8.867  11.719  0.00  0.00    +0.000 C 
ATOM     21  C   UNL     1      49.382   8.130  12.786  0.00  0.00    +0.000 C 
BRANCH  21  22
ATOM     22  C   UNL     1      50.856   8.225  12.434  0.00  0.00    +0.000 A 
ATOM     23  C   UNL     1      51.379   8.499  11.179  0.00  0.00    +0.000 A 
ATOM     24  S   UNL     1      53.082   8.647  11.173  0.00  0.00    +0.000 S 
ATOM     25  C   UNL     1      53.172   8.383  12.854  0.00  0.00    +0.000 A 
ATOM     26  N   UNL     1      54.357   8.444  13.520  0.00  0.00    +0.000 NA
ATOM     27  C   UNL     1      54.257   8.254  14.795  0.00  0.00    +0.000 A 
ATOM     28  N   UNL     1      53.088   7.986  15.461  0.00  0.00    +0.000 N 
ATOM     29  C   UNL     1      51.872   7.884  14.827  0.00  0.00    +0.000 A 
ATOM     30  O   UNL     1      50.847   7.605  15.442  0.00  0.00    +0.000 OA
ATOM     31  C   UNL     1      51.927   8.134  13.398  0.00  0.00    +0.000 A 
ATOM     32  H   UNL     1      53.083   7.828  16.457  0.00  0.00    +0.000 HD
ENDBRANCH  21  22
ENDBRANCH  18  21
ENDBRANCH   1  18
TORSDOF 8
ENDMDL
MODEL 7
REMARK VINA RESULT:    -6.467      2.759      3.737
REMARK INTER + INTRA:         -10.257
REMARK INTER:                  -9.701
REMARK INTRA:                  -0.556
REMARK UNBOUND:                -0.766
REMARK  Name = 
REMARK  9 active torsions:
REMARK  status: ('A' for Active; 'I' for Inactive)
REMARK    1  A    between atoms: C_1  and  C_2
REMARK    2  A    between atoms: C_2  and  N_3
REMARK    3  A    between atoms: C_2  and  C_19
REMARK    4  A    between atoms: N_3  and  C_4
REMARK    5  A    between atoms: C_4  and  C_5
REMARK    6  A    between atoms: C_8  and  C_9
REMARK    7  A    between atoms: C_9  and  N_10
REMARK    8  A    between atoms: N_10  and  C_11
REMARK    9  A    between atoms: C_11  and  C_12
REMARK                            x       y       z     vdW  Elec       q    Type
REMARK                         _______ _______ _______ _____ _____    ______ ____
ROOT
ATOM      1  C   UNL     1      45.803   7.932  12.705  0.00  0.00    +0.000 C 
ENDROOT
BRANCH   1   2
ATOM      2  C   UNL     1      45.342   6.609  12.156  0.00  0.00    +0.000 A 
ATOM      3  C   UNL     1      44.522   5.744  12.883  0.00  0.00    +0.000 A 
ATOM      4  C   UNL     1      44.097   4.548  12.308  0.00  0.00    +0.000 A 
ATOM      5  C   UNL     1      44.491   4.249  11.008  0.00  0.00    +0.000 A 
ATOM      6  N   UNL     1      45.275   5.077  10.275  0.00  0.00    +0.000 NA
ATOM      7  C   UNL     1      45.687   6.222  10.866  0.00  0.00    +0.000 A 
BRANCH   5   8
ATOM      8  C   UNL     1      44.079   2.939  10.361  0.00  0.00    +0.000 C 
BRANCH   8   9
ATOM      9  N   UNL     1      44.447   2.824   8.944  0.00  0.00    +0.000 NA
ATOM     10  H   UNL     1      44.833   3.730   8.657  0.00  0.00    +0.000 HD
BRANCH   9  11
ATOM     11  C   UNL     1      45.510   1.838   8.733  0.00  0.00    +0.000 C 
BRANCH  11  12
ATOM     12  C   UNL     1      46.380   2.320   7.617  0.00  0.00    +0.000 A 
ATOM     13  C   UNL     1      47.527   1.752   7.105  0.00  0.00    +0.000 A 
ATOM     14  N   UNL     1      47.914   2.577   6.087  0.00  0.00    +0.000 N 
ATOM     15  C   UNL     1      47.014   3.599   6.018  0.00  0.00    +0.000 A 
ATOM     16  N   UNL     1      46.077   3.477   6.931  0.00  0.00    +0.000 NA
ATOM     17  H   UNL     1      48.716   2.453   5.483  0.00  0.00    +0.000 HD
ENDBRANCH  11  12
ENDBRANCH   9  11
ENDBRANCH   8   9
ENDBRANCH   5   8
ENDBRANCH   1   2
BRANCH   1  18
ATOM     18  N   UNL     1      46.746   7.775  13.816  0.00  0.00    +0.000 NA
ATOM     19  H   UNL     1      46.395   8.311  14.612  0.00  0.00    +0.000 HD
BRANCH  18  21
ATOM     20  C   UNL     1      48.854   7.376  12.526  0.00  0.00    +0.000 C 
ATOM     21  C   UNL     1      48.084   8.298  13.484  0.00  0.00    +0.000 C 
BRANCH  21  22
ATOM     22  C   UNL     1      48.880   8.462  14.767  0.00  0.00    +0.000 A 
ATOM     23  C   UNL     1      49.473   9.633  15.215  0.00  0.00    +0.000 A 
ATOM     24  S   UNL     1      50.190   9.480  16.759  0.00  0.00    +0.000 S 
ATOM     25  C   UNL     1      49.703   7.853  16.893  0.00  0.00    +0.000 A 
ATOM     26  N   UNL     1      49.942   7.130  18.020  0.00  0.00    +0.000 NA
ATOM     27  C   UNL     1      49.482   5.922  17.980  0.00  0.00    +0.000 A 
ATOM     28  N   UNL     1      48.828   5.364  16.912  0.00  0.00    +0.000 N 
ATOM     29  C   UNL     1      48.591   6.044  15.741  0.00  0.00    +0.000 A 
ATOM     30  O   UNL     1      48.037   5.508  14.786  0.00  0.00    +0.000 OA
ATOM     31  C   UNL     1      49.050   7.422  15.755  0.00  0.00    +0.000 A 
ATOM     32  H   UNL     1      48.511   4.406  16.940  0.00  0.00    +0.000 HD
ENDBRANCH  21  22
ENDBRANCH  18  21
ENDBRANCH   1  18
TORSDOF 8
ENDMDL
MODEL 8
REMARK VINA RESULT:    -6.078      3.155      4.099
REMARK INTER + INTRA:          -9.687
REMARK INTER:                  -8.640
REMARK INTRA:                  -1.047
REMARK UNBOUND:                -0.766
REMARK  Name = 
REMARK  9 active torsions:
REMARK  status: ('A' for Active; 'I' for Inactive)
REMARK    1  A    between atoms: C_1  and  C_2
REMARK    2  A    between atoms: C_2  and  N_3
REMARK    3  A    between atoms: C_2  and  C_19
REMARK    4  A    between atoms: N_3  and  C_4
REMARK    5  A    between atoms: C_4  and  C_5
REMARK    6  A    between atoms: C_8  and  C_9
REMARK    7  A    between atoms: C_9  and  N_10
REMARK    8  A    between atoms: N_10  and  C_11
REMARK    9  A    between atoms: C_11  and  C_12
REMARK                            x       y       z     vdW  Elec       q    Type
REMARK                         _______ _______ _______ _____ _____    ______ ____
ROOT
ATOM      1  C   UNL     1      48.874   6.724  13.767  0.00  0.00    +0.000 C 
ENDROOT
BRANCH   1   2
ATOM      2  C   UNL     1      47.440   6.358  13.495  0.00  0.00    +0.000 A 
ATOM      3  C   UNL     1      46.511   7.282  13.016  0.00  0.00    +0.000 A 
ATOM      4  C   UNL     1      45.205   6.875  12.748  0.00  0.00    +0.000 A 
ATOM      5  C   UNL     1      44.860   5.543  12.954  0.00  0.00    +0.000 A 
ATOM      6  N   UNL     1      45.746   4.622  13.405  0.00  0.00    +0.000 NA
ATOM      7  C   UNL     1      47.000   5.050  13.673  0.00  0.00    +0.000 A 
BRANCH   5   8
ATOM      8  C   UNL     1      43.439   5.069  12.708  0.00  0.00    +0.000 C 
BRANCH   8   9
ATOM      9  N   UNL     1      43.303   4.119  11.598  0.00  0.00    +0.000 NA
ATOM     10  H   UNL     1      42.324   3.812  11.581  0.00  0.00    +0.000 HD
BRANCH   9  11
ATOM     11  C   UNL     1      43.558   4.752  10.301  0.00  0.00    +0.000 C 
BRANCH  11  12
ATOM     12  C   UNL     1      44.428   3.840   9.499  0.00  0.00    +0.000 A 
ATOM     13  C   UNL     1      44.723   2.510   9.715  0.00  0.00    +0.000 A 
ATOM     14  N   UNL     1      45.543   2.151   8.682  0.00  0.00    +0.000 N 
ATOM     15  C   UNL     1      45.721   3.249   7.893  0.00  0.00    +0.000 A 
ATOM     16  N   UNL     1      45.065   4.288   8.360  0.00  0.00    +0.000 NA
ATOM     17  H   UNL     1      45.941   1.235   8.520  0.00  0.00    +0.000 HD
ENDBRANCH  11  12
ENDBRANCH   9  11
ENDBRANCH   8   9
ENDBRANCH   5   8
ENDBRANCH   1   2
BRANCH   1  18
ATOM     18  N   UNL     1      49.044   8.159  14.015  0.00  0.00    +0.000 NA
ATOM     19  H   UNL     1      49.217   8.620  13.121  0.00  0.00    +0.000 HD
BRANCH  18  21
ATOM     20  C   UNL     1      51.542   8.246  14.166  0.00  0.00    +0.000 C 
ATOM     21  C   UNL     1      50.199   8.435  14.888  0.00  0.00    +0.000 C 
BRANCH  21  22
ATOM     22  C   UNL     1      50.143   7.506  16.088  0.00  0.00    +0.000 A 
ATOM     23  C   UNL     1      51.034   6.481  16.369  0.00  0.00    +0.000 A 
ATOM     24  S   UNL     1      50.732   5.715  17.867  0.00  0.00    +0.000 S 
ATOM     25  C   UNL     1      49.422   6.749  18.203  0.00  0.00    +0.000 A 
ATOM     26  N   UNL     1      48.743   6.677  19.380  0.00  0.00    +0.000 NA
ATOM     27  C   UNL     1      47.797   7.550  19.499  0.00  0.00    +0.000 A 
ATOM     28  N   UNL     1      47.451   8.471  18.542  0.00  0.00    +0.000 N 
ATOM     29  C   UNL     1      48.086   8.561  17.326  0.00  0.00    +0.000 A 
ATOM     30  O   UNL     1      47.731   9.369  16.474  0.00  0.00    +0.000 OA
ATOM     31  C   UNL     1      49.188   7.629  17.165  0.00  0.00    +0.000 A 
ATOM     32  H   UNL     1      46.687   9.112  18.692  0.00  0.00    +0.000 HD
ENDBRANCH  21  22
ENDBRANCH  18  21
ENDBRANCH   1  18
TORSDOF 8
ENDMDL
MODEL 9
REMARK VINA RESULT:    -5.982      3.254      9.320
REMARK INTER + INTRA:          -9.545
REMARK INTER:                  -8.575
REMARK INTRA:                  -0.969
REMARK UNBOUND:                -0.766
REMARK  Name = 
REMARK  9 active torsions:
REMARK  status: ('A' for Active; 'I' for Inactive)
REMARK    1  A    between atoms: C_1  and  C_2
REMARK    2  A    between atoms: C_2  and  N_3
REMARK    3  A    between atoms: C_2  and  C_19
REMARK    4  A    between atoms: N_3  and  C_4
REMARK    5  A    between atoms: C_4  and  C_5
REMARK    6  A    between atoms: C_8  and  C_9
REMARK    7  A    between atoms: C_9  and  N_10
REMARK    8  A    between atoms: N_10  and  C_11
REMARK    9  A    between atoms: C_11  and  C_12
REMARK                            x       y       z     vdW  Elec       q    Type
REMARK                         _______ _______ _______ _____ _____    ______ ____
ROOT
ATOM      1  C   UNL     1      47.551   4.309  15.694  0.00  0.00    +0.000 C 
ENDROOT
BRANCH   1   2
ATOM      2  C   UNL     1      48.362   4.534  16.941  0.00  0.00    +0.000 A 
ATOM      3  C   UNL     1      49.370   5.497  17.013  0.00  0.00    +0.000 A 
ATOM      4  C   UNL     1      50.064   5.684  18.207  0.00  0.00    +0.000 A 
ATOM      5  C   UNL     1      49.723   4.910  19.312  0.00  0.00    +0.000 A 
ATOM      6  N   UNL     1      48.739   3.978  19.274  0.00  0.00    +0.000 NA
ATOM      7  C   UNL     1      48.096   3.806  18.096  0.00  0.00    +0.000 A 
BRANCH   5   8
ATOM      8  C   UNL     1      50.480   5.059  20.619  0.00  0.00    +0.000 C 
BRANCH   8   9
ATOM      9  N   UNL     1      51.899   5.397  20.459  0.00  0.00    +0.000 NA
ATOM     10  H   UNL     1      52.093   6.192  21.078  0.00  0.00    +0.000 HD
BRANCH   9  11
ATOM     11  C   UNL     1      52.775   4.308  20.902  0.00  0.00    +0.000 C 
BRANCH  11  12
ATOM     12  C   UNL     1      53.359   3.656  19.691  0.00  0.00    +0.000 A 
ATOM     13  C   UNL     1      53.495   4.161  18.415  0.00  0.00    +0.000 A 
ATOM     14  N   UNL     1      54.109   3.171  17.699  0.00  0.00    +0.000 N 
ATOM     15  C   UNL     1      54.315   2.119  18.542  0.00  0.00    +0.000 A 
ATOM     16  N   UNL     1      53.870   2.376  19.752  0.00  0.00    +0.000 NA
ATOM     17  H   UNL     1      54.373   3.209  16.724  0.00  0.00    +0.000 HD
ENDBRANCH  11  12
ENDBRANCH   9  11
ENDBRANCH   8   9
ENDBRANCH   5   8
ENDBRANCH   1   2
BRANCH   1  18
ATOM     18  N   UNL     1      47.147   5.566  15.059  0.00  0.00    +0.000 NA
ATOM     19  H   UNL     1      46.129   5.635  15.104  0.00  0.00    +0.000 HD
BRANCH  18  21
ATOM     20  C   UNL     1      48.627   6.660  13.360  0.00  0.00    +0.000 C 
ATOM     21  C   UNL     1      47.534   5.616  13.637  0.00  0.00    +0.000 C 
BRANCH  21  22
ATOM     22  C   UNL     1      46.307   5.946  12.804  0.00  0.00    +0.000 A 
ATOM     23  C   UNL     1      45.925   7.210  12.380  0.00  0.00    +0.000 A 
ATOM     24  S   UNL     1      44.552   7.194  11.361  0.00  0.00    +0.000 S 
ATOM     25  C   UNL     1      44.445   5.496  11.427  0.00  0.00    +0.000 A 
ATOM     26  N   UNL     1      43.512   4.814  10.710  0.00  0.00    +0.000 NA
ATOM     27  C   UNL     1      43.580   3.529  10.839  0.00  0.00    +0.000 A 
ATOM     28  N   UNL     1      44.477   2.866  11.637  0.00  0.00    +0.000 N 
ATOM     29  C   UNL     1      45.418   3.512  12.404  0.00  0.00    +0.000 A 
ATOM     30  O   UNL     1      46.183   2.895  13.138  0.00  0.00    +0.000 OA
ATOM     31  C   UNL     1      45.410   4.956  12.256  0.00  0.00    +0.000 A 
ATOM     32  H   UNL     1      44.463   1.859  11.708  0.00  0.00    +0.000 HD
ENDBRANCH  21  22
ENDBRANCH  18  21
ENDBRANCH   1  18
TORSDOF 8
ENDMDL
