MODEL 1
REMARK VINA RESULT:    -8.097      0.000      0.000
REMARK INTER + INTRA:         -11.938
REMARK INTER:                 -11.173
REMARK INTRA:                  -0.765
REMARK UNBOUND:                -0.765
REMARK  Name = 
REMARK  7 active torsions:
REMARK  status: ('A' for Active; 'I' for Inactive)
REMARK    1  A    between atoms: N_1  and  C_2
REMARK    2  A    between atoms: C_2  and  C_3
REMARK    3  A    between atoms: C_7  and  C_8
REMARK    4  A    between atoms: C_8  and  C_9
REMARK    5  A    between atoms: C_9  and  N_10
REMARK    6  A    between atoms: N_10  and  C_11
REMARK    7  A    between atoms: C_14  and  C_15
REMARK                            x       y       z     vdW  Elec       q    Type
REMARK                         _______ _______ _______ _____ _____    ______ ____
ROOT
ATOM      1  N   UNL     1      43.521   4.702   9.653  0.00  0.00    +0.000 N 
ATOM      2  H   UNL     1      42.675   4.707   9.090  0.00  0.00    +0.000 HD
ENDROOT
BRANCH   1   3
ATOM      3  C   UNL     1      44.546   3.934   9.093  0.00  0.00    +0.000 A 
ATOM      4  C   UNL     1      45.506   4.444   8.210  0.00  0.00    +0.000 A 
ATOM      5  C   UNL     1      46.439   3.609   7.584  0.00  0.00    +0.000 A 
ATOM      6  C   UNL     1      46.422   2.233   7.813  0.00  0.00    +0.000 A 
ATOM      7  C   UNL     1      45.461   1.699   8.677  0.00  0.00    +0.000 A 
ATOM      8  C   UNL     1      44.533   2.545   9.301  0.00  0.00    +0.000 A 
BRANCH   6   9
ATOM      9  C   UNL     1      47.402   1.387   7.082  0.00  0.00    +0.000 C 
ATOM     10  N   UNL     1      48.504   2.001   6.558  0.00  0.00    +0.000 N 
ATOM     11  O   UNL     1      47.222   0.184   6.922  0.00  0.00    +0.000 OA
ATOM     12  H   UNL     1      48.570   3.002   6.453  0.00  0.00    +0.000 HD
ATOM     13  H   UNL     1      49.100   1.424   5.979  0.00  0.00    +0.000 HD
ENDBRANCH   6   9
ENDBRANCH   1   3
BRANCH   1  14
ATOM     14  C   UNL     1      43.302   4.679  11.099  0.00  0.00    +0.000 C 
BRANCH  14  15
ATOM     15  C   UNL     1      43.593   6.048  11.724  0.00  0.00    +0.000 C 
BRANCH  15  20
ATOM     16  C   UNL     1      46.755   5.359  13.756  0.00  0.00    +0.000 A 
ATOM     17  C   UNL     1      47.705   6.071  13.015  0.00  0.00    +0.000 A 
ATOM     18  C   UNL     1      47.322   6.803  11.891  0.00  0.00    +0.000 A 
ATOM     19  C   UNL     1      45.986   6.821  11.490  0.00  0.00    +0.000 A 
ATOM     20  C   UNL     1      45.019   6.115  12.216  0.00  0.00    +0.000 A 
ATOM     21  C   UNL     1      45.411   5.391  13.351  0.00  0.00    +0.000 A 
BRANCH  16  22
ATOM     22  C   UNL     1      47.179   4.497  14.918  0.00  0.00    +0.000 C 
BRANCH  22  23
ATOM     23  N   UNL     1      47.418   3.128  14.478  0.00  0.00    +0.000 NA
ATOM     24  H   UNL     1      46.528   2.646  14.377  0.00  0.00    +0.000 HD
ATOM     25  H   UNL     1      47.932   2.634  15.207  0.00  0.00    +0.000 HD
ENDBRANCH  22  23
ENDBRANCH  16  22
ENDBRANCH  15  20
ENDBRANCH  14  15
ENDBRANCH   1  14
TORSDOF 7
ENDMDL
MODEL 2
REMARK VINA RESULT:    -7.933      1.515      2.249
REMARK INTER + INTRA:         -11.712
REMARK INTER:                 -11.030
REMARK INTRA:                  -0.682
REMARK UNBOUND:                -0.765
REMARK  Name = 
REMARK  7 active torsions:
REMARK  status: ('A' for Active; 'I' for Inactive)
REMARK    1  A    between atoms: N_1  and  C_2
REMARK    2  A    between atoms: C_2  and  C_3
REMARK    3  A    between atoms: C_7  and  C_8
REMARK    4  A    between atoms: C_8  and  C_9
REMARK    5  A    between atoms: C_9  and  N_10
REMARK    6  A    between atoms: N_10  and  C_11
REMARK    7  A    between atoms: C_14  and  C_15
REMARK                            x       y       z     vdW  Elec       q    Type
REMARK                         _______ _______ _______ _____ _____    ______ ____
ROOT
ATOM      1  N   UNL     1      43.780   4.800  10.124  0.00  0.00    +0.000 N 
ATOM      2  H   UNL     1      43.276   5.496   9.582  0.00  0.00    +0.000 HD
ENDROOT
BRANCH   1   3
ATOM      3  C   UNL     1      44.560   3.951   9.335  0.00  0.00    +0.000 A 
ATOM      4  C   UNL     1      44.604   2.561   9.500  0.00  0.00    +0.000 A 
ATOM      5  C   UNL     1      45.491   1.766   8.764  0.00  0.00    +0.000 A 
ATOM      6  C   UNL     1      46.373   2.348   7.853  0.00  0.00    +0.000 A 
ATOM      7  C   UNL     1      46.359   3.737   7.685  0.00  0.00    +0.000 A 
ATOM      8  C   UNL     1      45.464   4.522   8.426  0.00  0.00    +0.000 A 
BRANCH   6   9
ATOM      9  C   UNL     1      47.329   1.464   7.136  0.00  0.00    +0.000 C 
ATOM     10  N   UNL     1      48.417   2.049   6.553  0.00  0.00    +0.000 N 
ATOM     11  O   UNL     1      47.142   0.256   7.037  0.00  0.00    +0.000 OA
ATOM     12  H   UNL     1      48.483   3.044   6.398  0.00  0.00    +0.000 HD
ATOM     13  H   UNL     1      48.995   1.443   5.985  0.00  0.00    +0.000 HD
ENDBRANCH   6   9
ENDBRANCH   1   3
BRANCH   1  14
ATOM     14  C   UNL     1      43.048   4.260  11.270  0.00  0.00    +0.000 C 
BRANCH  14  15
ATOM     15  C   UNL     1      43.198   5.166  12.498  0.00  0.00    +0.000 C 
BRANCH  15  20
ATOM     16  C   UNL     1      46.493   7.002  13.111  0.00  0.00    +0.000 A 
ATOM     17  C   UNL     1      47.311   5.944  13.528  0.00  0.00    +0.000 A 
ATOM     18  C   UNL     1      46.815   4.641  13.572  0.00  0.00    +0.000 A 
ATOM     19  C   UNL     1      45.493   4.384  13.209  0.00  0.00    +0.000 A 
ATOM     20  C   UNL     1      44.657   5.427  12.790  0.00  0.00    +0.000 A 
ATOM     21  C   UNL     1      45.167   6.731  12.739  0.00  0.00    +0.000 A 
BRANCH  16  22
ATOM     22  C   UNL     1      46.999   8.421  13.147  0.00  0.00    +0.000 C 
BRANCH  22  23
ATOM     23  N   UNL     1      47.074   8.902  14.520  0.00  0.00    +0.000 NA
ATOM     24  H   UNL     1      47.755   8.349  15.035  0.00  0.00    +0.000 HD
ATOM     25  H   UNL     1      46.174   8.746  14.973  0.00  0.00    +0.000 HD
ENDBRANCH  22  23
ENDBRANCH  16  22
ENDBRANCH  15  20
ENDBRANCH  14  15
ENDBRANCH   1  14
TORSDOF 7
ENDMDL
MODEL 3
REMARK VINA RESULT:    -7.294      2.817      6.468
REMARK INTER + INTRA:         -10.830
REMARK INTER:                 -10.041
REMARK INTRA:                  -0.789
REMARK UNBOUND:                -0.765
REMARK  Name = 
REMARK  7 active torsions:
REMARK  status: ('A' for Active; 'I' for Inactive)
REMARK    1  A    between atoms: N_1  and  C_2
REMARK    2  A    between atoms: C_2  and  C_3
REMARK    3  A    between atoms: C_7  and  C_8
REMARK    4  A    between atoms: C_8  and  C_9
REMARK    5  A    between atoms: C_9  and  N_10
REMARK    6  A    between atoms: N_10  and  C_11
REMARK    7  A    between atoms: C_14  and  C_15
REMARK                            x       y       z     vdW  Elec       q    Type
REMARK                         _______ _______ _______ _____ _____    ______ ____
ROOT
ATOM      1  N   UNL     1      44.237   3.381  12.638  0.00  0.00    +0.000 N 
ATOM      2  H   UNL     1      43.814   2.971  13.467  0.00  0.00    +0.000 HD
ENDROOT
BRANCH   1   3
ATOM      3  C   UNL     1      44.962   4.543  12.912  0.00  0.00    +0.000 A 
ATOM      4  C   UNL     1      44.487   5.835  12.653  0.00  0.00    +0.000 A 
ATOM      5  C   UNL     1      45.298   6.961  12.833  0.00  0.00    +0.000 A 
ATOM      6  C   UNL     1      46.618   6.821  13.262  0.00  0.00    +0.000 A 
ATOM      7  C   UNL     1      47.120   5.540  13.510  0.00  0.00    +0.000 A 
ATOM      8  C   UNL     1      46.297   4.418  13.328  0.00  0.00    +0.000 A 
BRANCH   6   9
ATOM      9  C   UNL     1      47.451   8.046  13.387  0.00  0.00    +0.000 C 
ATOM     10  N   UNL     1      47.154   8.913  14.401  0.00  0.00    +0.000 N 
ATOM     11  O   UNL     1      48.354   8.297  12.596  0.00  0.00    +0.000 OA
ATOM     12  H   UNL     1      46.286   8.875  14.913  0.00  0.00    +0.000 HD
ATOM     13  H   UNL     1      47.666   9.786  14.401  0.00  0.00    +0.000 HD
ENDBRANCH   6   9
ENDBRANCH   1   3
BRANCH   1  14
ATOM     14  C   UNL     1      43.424   3.300  11.425  0.00  0.00    +0.000 C 
BRANCH  14  15
ATOM     15  C   UNL     1      43.901   2.162  10.515  0.00  0.00    +0.000 C 
BRANCH  15  20
ATOM     16  C   UNL     1      46.493   2.248   7.708  0.00  0.00    +0.000 A 
ATOM     17  C   UNL     1      46.537   3.620   7.432  0.00  0.00    +0.000 A 
ATOM     18  C   UNL     1      45.767   4.516   8.174  0.00  0.00    +0.000 A 
ATOM     19  C   UNL     1      44.937   4.048   9.192  0.00  0.00    +0.000 A 
ATOM     20  C   UNL     1      44.876   2.680   9.485  0.00  0.00    +0.000 A 
ATOM     21  C   UNL     1      45.661   1.788   8.741  0.00  0.00    +0.000 A 
BRANCH  16  22
ATOM     22  C   UNL     1      47.255   1.270   6.851  0.00  0.00    +0.000 C 
BRANCH  22  23
ATOM     23  N   UNL     1      48.395   1.923   6.221  0.00  0.00    +0.000 NA
ATOM     24  H   UNL     1      48.183   2.099   5.242  0.00  0.00    +0.000 HD
ATOM     25  H   UNL     1      49.189   1.283   6.235  0.00  0.00    +0.000 HD
ENDBRANCH  22  23
ENDBRANCH  16  22
ENDBRANCH  15  20
ENDBRANCH  14  15
ENDBRANCH   1  14
TORSDOF 7
ENDMDL
MODEL 4
REMARK VINA RESULT:    -7.150      1.760      2.318
REMARK INTER + INTRA:         -10.632
REMARK INTER:                 -10.135
REMARK INTRA:                  -0.497
REMARK UNBOUND:                -0.765
REMARK  Name = 
REMARK  7 active torsions:
REMARK  status: ('A' for Active; 'I' for Inactive)
REMARK    1  A    between atoms: N_1  and  C_2
REMARK    2  A    between atoms: C_2  and  C_3
REMARK    3  A    between atoms: C_7  and  C_8
REMARK    4  A    between atoms: C_8  and  C_9
REMARK    5  A    between atoms: C_9  and  N_10
REMARK    6  A    between atoms: N_10  and  C_11
REMARK    7  A    between atoms: C_14  and  C_15
REMARK                            x       y       z     vdW  Elec       q    Type
REMARK                         _______ _______ _______ _____ _____    ______ ____
ROOT
ATOM      1  N   UNL     1      43.869   4.980   9.889  0.00  0.00    +0.000 N 
ATOM      2  H   UNL     1      42.863   4.922   9.755  0.00  0.00    +0.000 HD
ENDROOT
BRANCH   1   3
ATOM      3  C   UNL     1      44.571   3.988   9.200  0.00  0.00    +0.000 A 
ATOM      4  C   UNL     1      44.468   2.622   9.488  0.00  0.00    +0.000 A 
ATOM      5  C   UNL     1      45.282   1.678   8.850  0.00  0.00    +0.000 A 
ATOM      6  C   UNL     1      46.236   2.082   7.917  0.00  0.00    +0.000 A 
ATOM      7  C   UNL     1      46.369   3.444   7.626  0.00  0.00    +0.000 A 
ATOM      8  C   UNL     1      45.547   4.380   8.270  0.00  0.00    +0.000 A 
BRANCH   6   9
ATOM      9  C   UNL     1      47.109   1.045   7.308  0.00  0.00    +0.000 C 
ATOM     10  N   UNL     1      46.862  -0.260   7.631  0.00  0.00    +0.000 N 
ATOM     11  O   UNL     1      48.040   1.339   6.565  0.00  0.00    +0.000 OA
ATOM     12  H   UNL     1      46.281  -0.527   8.410  0.00  0.00    +0.000 HD
ATOM     13  H   UNL     1      47.532  -0.936   7.287  0.00  0.00    +0.000 HD
ENDBRANCH   6   9
ENDBRANCH   1   3
BRANCH   1  14
ATOM     14  C   UNL     1      44.292   5.370  11.235  0.00  0.00    +0.000 C 
BRANCH  14  15
ATOM     15  C   UNL     1      43.994   6.850  11.501  0.00  0.00    +0.000 C 
BRANCH  15  20
ATOM     16  C   UNL     1      47.657   7.564  12.321  0.00  0.00    +0.000 A 
ATOM     17  C   UNL     1      47.651   8.964  12.357  0.00  0.00    +0.000 A 
ATOM     18  C   UNL     1      46.466   9.672  12.160  0.00  0.00    +0.000 A 
ATOM     19  C   UNL     1      45.275   8.987  11.913  0.00  0.00    +0.000 A 
ATOM     20  C   UNL     1      45.259   7.587  11.871  0.00  0.00    +0.000 A 
ATOM     21  C   UNL     1      46.453   6.884  12.081  0.00  0.00    +0.000 A 
BRANCH  16  22
ATOM     22  C   UNL     1      48.950   6.801  12.446  0.00  0.00    +0.000 C 
BRANCH  22  23
ATOM     23  N   UNL     1      49.392   6.766  13.835  0.00  0.00    +0.000 NA
ATOM     24  H   UNL     1      50.145   6.091  13.933  0.00  0.00    +0.000 HD
ATOM     25  H   UNL     1      48.624   6.429  14.415  0.00  0.00    +0.000 HD
ENDBRANCH  22  23
ENDBRANCH  16  22
ENDBRANCH  15  20
ENDBRANCH  14  15
ENDBRANCH   1  14
TORSDOF 7
ENDMDL
MODEL 5
REMARK VINA RESULT:    -6.277      1.656      2.285
REMARK INTER + INTRA:          -9.427
REMARK INTER:                  -9.039
REMARK INTRA:                  -0.388
REMARK UNBOUND:                -0.765
REMARK  Name = 
REMARK  7 active torsions:
REMARK  status: ('A' for Active; 'I' for Inactive)
REMARK    1  A    between atoms: N_1  and  C_2
REMARK    2  A    between atoms: C_2  and  C_3
REMARK    3  A    between atoms: C_7  and  C_8
REMARK    4  A    between atoms: C_8  and  C_9
REMARK    5  A    between atoms: C_9  and  N_10
REMARK    6  A    between atoms: N_10  and  C_11
REMARK    7  A    between atoms: C_14  and  C_15
REMARK                            x       y       z     vdW  Elec       q    Type
REMARK                         _______ _______ _______ _____ _____    ______ ____
ROOT
ATOM      1  N   UNL     1      44.044   4.597  10.496  0.00  0.00    +0.000 N 
ATOM      2  H   UNL     1      43.097   4.231  10.455  0.00  0.00    +0.000 HD
ENDROOT
BRANCH   1   3
ATOM      3  C   UNL     1      44.906   3.990   9.579  0.00  0.00    +0.000 A 
ATOM      4  C   UNL     1      45.628   4.696   8.608  0.00  0.00    +0.000 A 
ATOM      5  C   UNL     1      46.385   4.032   7.636  0.00  0.00    +0.000 A 
ATOM      6  C   UNL     1      46.424   2.638   7.599  0.00  0.00    +0.000 A 
ATOM      7  C   UNL     1      45.696   1.912   8.548  0.00  0.00    +0.000 A 
ATOM      8  C   UNL     1      44.943   2.588   9.519  0.00  0.00    +0.000 A 
BRANCH   6   9
ATOM      9  C   UNL     1      47.201   1.983   6.515  0.00  0.00    +0.000 C 
ATOM     10  N   UNL     1      47.542   2.743   5.432  0.00  0.00    +0.000 N 
ATOM     11  O   UNL     1      47.504   0.795   6.563  0.00  0.00    +0.000 OA
ATOM     12  H   UNL     1      47.113   3.636   5.237  0.00  0.00    +0.000 HD
ATOM     13  H   UNL     1      47.978   2.250   4.664  0.00  0.00    +0.000 HD
ENDBRANCH   6   9
ENDBRANCH   1   3
BRANCH   1  14
ATOM     14  C   UNL     1      44.523   4.920  11.841  0.00  0.00    +0.000 C 
BRANCH  14  15
ATOM     15  C   UNL     1      45.829   5.721  11.784  0.00  0.00    +0.000 C 
BRANCH  15  20
ATOM     16  C   UNL     1      48.119   6.456  14.754  0.00  0.00    +0.000 A 
ATOM     17  C   UNL     1      47.919   5.307  15.531  0.00  0.00    +0.000 A 
ATOM     18  C   UNL     1      47.085   4.285  15.080  0.00  0.00    +0.000 A 
ATOM     19  C   UNL     1      46.432   4.404  13.853  0.00  0.00    +0.000 A 
ATOM     20  C   UNL     1      46.616   5.544  13.061  0.00  0.00    +0.000 A 
ATOM     21  C   UNL     1      47.464   6.562  13.517  0.00  0.00    +0.000 A 
BRANCH  16  22
ATOM     22  C   UNL     1      48.949   7.599  15.277  0.00  0.00    +0.000 C 
BRANCH  22  23
ATOM     23  N   UNL     1      48.464   8.028  16.583  0.00  0.00    +0.000 NA
ATOM     24  H   UNL     1      48.404   7.223  17.202  0.00  0.00    +0.000 HD
ATOM     25  H   UNL     1      47.513   8.383  16.480  0.00  0.00    +0.000 HD
ENDBRANCH  22  23
ENDBRANCH  16  22
ENDBRANCH  15  20
ENDBRANCH  14  15
ENDBRANCH   1  14
TORSDOF 7
ENDMDL
MODEL 6
REMARK VINA RESULT:    -6.048      3.117      5.383
REMARK INTER + INTRA:          -9.111
REMARK INTER:                  -8.475
REMARK INTRA:                  -0.636
REMARK UNBOUND:                -0.765
REMARK  Name = 
REMARK  7 active torsions:
REMARK  status: ('A' for Active; 'I' for Inactive)
REMARK    1  A    between atoms: N_1  and  C_2
REMARK    2  A    between atoms: C_2  and  C_3
REMARK    3  A    between atoms: C_7  and  C_8
REMARK    4  A    between atoms: C_8  and  C_9
REMARK    5  A    between atoms: C_9  and  N_10
REMARK    6  A    between atoms: N_10  and  C_11
REMARK    7  A    between atoms: C_14  and  C_15
REMARK                            x       y       z     vdW  Elec       q    Type
REMARK                         _______ _______ _______ _____ _____    ______ ____
ROOT
ATOM      1  N   UNL     1      47.179   7.011  13.935  0.00  0.00    +0.000 N 
ATOM      2  H   UNL     1      46.638   7.247  14.762  0.00  0.00    +0.000 HD
ENDROOT
BRANCH   1   3
ATOM      3  C   UNL     1      46.562   6.044  13.135  0.00  0.00    +0.000 A 
ATOM      4  C   UNL     1      45.972   6.323  11.896  0.00  0.00    +0.000 A 
ATOM      5  C   UNL     1      45.263   5.345  11.189  0.00  0.00    +0.000 A 
ATOM      6  C   UNL     1      45.110   4.063  11.716  0.00  0.00    +0.000 A 
ATOM      7  C   UNL     1      45.676   3.767  12.961  0.00  0.00    +0.000 A 
ATOM      8  C   UNL     1      46.386   4.754  13.659  0.00  0.00    +0.000 A 
BRANCH   6   9
ATOM      9  C   UNL     1      44.303   3.078  10.948  0.00  0.00    +0.000 C 
ATOM     10  N   UNL     1      44.935   2.372   9.964  0.00  0.00    +0.000 N 
ATOM     11  O   UNL     1      43.106   2.918  11.160  0.00  0.00    +0.000 OA
ATOM     12  H   UNL     1      45.835   2.639   9.595  0.00  0.00    +0.000 HD
ATOM     13  H   UNL     1      44.343   1.786   9.389  0.00  0.00    +0.000 HD
ENDBRANCH   6   9
ENDBRANCH   1   3
BRANCH   1  14
ATOM     14  C   UNL     1      48.628   6.974  14.133  0.00  0.00    +0.000 C 
BRANCH  14  15
ATOM     15  C   UNL     1      49.000   7.381  15.563  0.00  0.00    +0.000 C 
BRANCH  15  20
ATOM     16  C   UNL     1      48.952   3.969  17.282  0.00  0.00    +0.000 A 
ATOM     17  C   UNL     1      50.294   3.848  17.665  0.00  0.00    +0.000 A 
ATOM     18  C   UNL     1      51.198   4.877  17.408  0.00  0.00    +0.000 A 
ATOM     19  C   UNL     1      50.774   6.034  16.755  0.00  0.00    +0.000 A 
ATOM     20  C   UNL     1      49.437   6.176  16.362  0.00  0.00    +0.000 A 
ATOM     21  C   UNL     1      48.532   5.141  16.634  0.00  0.00    +0.000 A 
BRANCH  16  22
ATOM     22  C   UNL     1      47.993   2.823  17.480  0.00  0.00    +0.000 C 
BRANCH  22  23
ATOM     23  N   UNL     1      46.616   3.302  17.474  0.00  0.00    +0.000 NA
ATOM     24  H   UNL     1      46.043   2.670  16.920  0.00  0.00    +0.000 HD
ATOM     25  H   UNL     1      46.585   4.207  17.005  0.00  0.00    +0.000 HD
ENDBRANCH  22  23
ENDBRANCH  16  22
ENDBRANCH  15  20
ENDBRANCH  14  15
ENDBRANCH   1  14
TORSDOF 7
ENDMDL
MODEL 7
REMARK VINA RESULT:    -5.893      3.442      6.916
REMARK INTER + INTRA:          -8.897
REMARK INTER:                  -7.976
REMARK INTRA:                  -0.921
REMARK UNBOUND:                -0.765
REMARK  Name = 
REMARK  7 active torsions:
REMARK  status: ('A' for Active; 'I' for Inactive)
REMARK    1  A    between atoms: N_1  and  C_2
REMARK    2  A    between atoms: C_2  and  C_3
REMARK    3  A    between atoms: C_7  and  C_8
REMARK    4  A    between atoms: C_8  and  C_9
REMARK    5  A    between atoms: C_9  and  N_10
REMARK    6  A    between atoms: N_10  and  C_11
REMARK    7  A    between atoms: C_14  and  C_15
REMARK                            x       y       z     vdW  Elec       q    Type
REMARK                         _______ _______ _______ _____ _____    ______ ____
ROOT
ATOM      1  N   UNL     1      47.376   6.686  12.880  0.00  0.00    +0.000 N 
ATOM      2  H   UNL     1      47.704   6.310  11.995  0.00  0.00    +0.000 HD
ENDROOT
BRANCH   1   3
ATOM      3  C   UNL     1      47.576   5.814  13.953  0.00  0.00    +0.000 A 
ATOM      4  C   UNL     1      47.011   4.536  14.031  0.00  0.00    +0.000 A 
ATOM      5  C   UNL     1      47.144   3.747  15.180  0.00  0.00    +0.000 A 
ATOM      6  C   UNL     1      47.834   4.230  16.293  0.00  0.00    +0.000 A 
ATOM      7  C   UNL     1      48.392   5.512  16.244  0.00  0.00    +0.000 A 
ATOM      8  C   UNL     1      48.254   6.291  15.086  0.00  0.00    +0.000 A 
BRANCH   6   9
ATOM      9  C   UNL     1      47.901   3.373  17.505  0.00  0.00    +0.000 C 
ATOM     10  N   UNL     1      46.798   2.631  17.818  0.00  0.00    +0.000 N 
ATOM     11  O   UNL     1      48.895   3.348  18.224  0.00  0.00    +0.000 OA
ATOM     12  H   UNL     1      45.892   2.802  17.408  0.00  0.00    +0.000 HD
ATOM     13  H   UNL     1      46.831   2.138  18.702  0.00  0.00    +0.000 HD
ENDBRANCH   6   9
ENDBRANCH   1   3
BRANCH   1  14
ATOM     14  C   UNL     1      46.142   7.468  12.799  0.00  0.00    +0.000 C 
BRANCH  14  15
ATOM     15  C   UNL     1      45.375   7.158  11.508  0.00  0.00    +0.000 C 
BRANCH  15  20
ATOM     16  C   UNL     1      44.184   3.609  10.745  0.00  0.00    +0.000 A 
ATOM     17  C   UNL     1      43.489   3.305  11.922  0.00  0.00    +0.000 A 
ATOM     18  C   UNL     1      43.369   4.253  12.937  0.00  0.00    +0.000 A 
ATOM     19  C   UNL     1      43.953   5.511  12.791  0.00  0.00    +0.000 A 
ATOM     20  C   UNL     1      44.654   5.836  11.623  0.00  0.00    +0.000 A 
ATOM     21  C   UNL     1      44.760   4.880  10.603  0.00  0.00    +0.000 A 
BRANCH  16  22
ATOM     22  C   UNL     1      44.390   2.557   9.685  0.00  0.00    +0.000 C 
BRANCH  22  23
ATOM     23  N   UNL     1      44.382   3.160   8.358  0.00  0.00    +0.000 NA
ATOM     24  H   UNL     1      44.685   2.473   7.673  0.00  0.00    +0.000 HD
ATOM     25  H   UNL     1      45.069   3.914   8.335  0.00  0.00    +0.000 HD
ENDBRANCH  22  23
ENDBRANCH  16  22
ENDBRANCH  15  20
ENDBRANCH  14  15
ENDBRANCH   1  14
TORSDOF 7
ENDMDL
MODEL 8
REMARK VINA RESULT:    -5.877      3.309      6.340
REMARK INTER + INTRA:          -8.875
REMARK INTER:                  -8.401
REMARK INTRA:                  -0.474
REMARK UNBOUND:                -0.765
REMARK  Name = 
REMARK  7 active torsions:
REMARK  status: ('A' for Active; 'I' for Inactive)
REMARK    1  A    between atoms: N_1  and  C_2
REMARK    2  A    between atoms: C_2  and  C_3
REMARK    3  A    between atoms: C_7  and  C_8
REMARK    4  A    between atoms: C_8  and  C_9
REMARK    5  A    between atoms: C_9  and  N_10
REMARK    6  A    between atoms: N_10  and  C_11
REMARK    7  A    between atoms: C_14  and  C_15
REMARK                            x       y       z     vdW  Elec       q    Type
REMARK                         _______ _______ _______ _____ _____    ______ ____
ROOT
ATOM      1  N   UNL     1      44.912   6.817  13.168  0.00  0.00    +0.000 N 
ATOM      2  H   UNL     1      44.334   7.551  13.568  0.00  0.00    +0.000 HD
ENDROOT
BRANCH   1   3
ATOM      3  C   UNL     1      46.210   7.242  12.871  0.00  0.00    +0.000 A 
ATOM      4  C   UNL     1      46.511   8.502  12.339  0.00  0.00    +0.000 A 
ATOM      5  C   UNL     1      47.813   8.836  11.947  0.00  0.00    +0.000 A 
ATOM      6  C   UNL     1      48.847   7.907  12.061  0.00  0.00    +0.000 A 
ATOM      7  C   UNL     1      48.565   6.636  12.573  0.00  0.00    +0.000 A 
ATOM      8  C   UNL     1      47.258   6.313  12.965  0.00  0.00    +0.000 A 
BRANCH   6   9
ATOM      9  C   UNL     1      50.199   8.296  11.582  0.00  0.00    +0.000 C 
ATOM     10  N   UNL     1      51.152   7.319  11.513  0.00  0.00    +0.000 N 
ATOM     11  O   UNL     1      50.471   9.455  11.288  0.00  0.00    +0.000 OA
ATOM     12  H   UNL     1      51.048   6.425  11.968  0.00  0.00    +0.000 HD
ATOM     13  H   UNL     1      52.088   7.628  11.284  0.00  0.00    +0.000 HD
ENDBRANCH   6   9
ENDBRANCH   1   3
BRANCH   1  14
ATOM     14  C   UNL     1      44.216   5.912  12.253  0.00  0.00    +0.000 C 
BRANCH  14  15
ATOM     15  C   UNL     1      44.783   6.019  10.832  0.00  0.00    +0.000 C 
BRANCH  15  20
ATOM     16  C   UNL     1      45.539   3.202   8.363  0.00  0.00    +0.000 A 
ATOM     17  C   UNL     1      44.896   2.125   8.987  0.00  0.00    +0.000 A 
ATOM     18  C   UNL     1      44.188   2.315  10.173  0.00  0.00    +0.000 A 
ATOM     19  C   UNL     1      44.125   3.581  10.755  0.00  0.00    +0.000 A 
ATOM     20  C   UNL     1      44.762   4.672  10.150  0.00  0.00    +0.000 A 
ATOM     21  C   UNL     1      45.462   4.474   8.952  0.00  0.00    +0.000 A 
BRANCH  16  22
ATOM     22  C   UNL     1      46.377   2.983   7.130  0.00  0.00    +0.000 C 
BRANCH  22  23
ATOM     23  N   UNL     1      46.789   4.259   6.558  0.00  0.00    +0.000 NA
ATOM     24  H   UNL     1      46.293   4.412   5.684  0.00  0.00    +0.000 HD
ATOM     25  H   UNL     1      47.780   4.209   6.324  0.00  0.00    +0.000 HD
ENDBRANCH  22  23
ENDBRANCH  16  22
ENDBRANCH  15  20
ENDBRANCH  14  15
ENDBRANCH   1  14
TORSDOF 7
ENDMDL
MODEL 9
REMARK VINA RESULT:    -5.099      3.470      5.428
REMARK INTER + INTRA:          -7.802
REMARK INTER:                  -7.443
REMARK INTRA:                  -0.359
REMARK UNBOUND:                -0.765
REMARK  Name = 
REMARK  7 active torsions:
REMARK  status: ('A' for Active; 'I' for Inactive)
REMARK    1  A    between atoms: N_1  and  C_2
REMARK    2  A    between atoms: C_2  and  C_3
REMARK    3  A    between atoms: C_7  and  C_8
REMARK    4  A    between atoms: C_8  and  C_9
REMARK    5  A    between atoms: C_9  and  N_10
REMARK    6  A    between atoms: N_10  and  C_11
REMARK    7  A    between atoms: C_14  and  C_15
REMARK                            x       y       z     vdW  Elec       q    Type
REMARK                         _______ _______ _______ _____ _____    ______ ____
ROOT
ATOM      1  N   UNL     1      47.132   6.902  13.922  0.00  0.00    +0.000 N 
ATOM      2  H   UNL     1      47.021   6.610  14.889  0.00  0.00    +0.000 HD
ENDROOT
BRANCH   1   3
ATOM      3  C   UNL     1      46.329   6.178  13.037  0.00  0.00    +0.000 A 
ATOM      4  C   UNL     1      45.821   4.903  13.314  0.00  0.00    +0.000 A 
ATOM      5  C   UNL     1      45.122   4.169  12.348  0.00  0.00    +0.000 A 
ATOM      6  C   UNL     1      44.930   4.689  11.068  0.00  0.00    +0.000 A 
ATOM      7  C   UNL     1      45.444   5.953  10.762  0.00  0.00    +0.000 A 
ATOM      8  C   UNL     1      46.141   6.680  11.739  0.00  0.00    +0.000 A 
BRANCH   6   9
ATOM      9  C   UNL     1      44.226   3.847  10.065  0.00  0.00    +0.000 C 
ATOM     10  N   UNL     1      44.112   4.337   8.795  0.00  0.00    +0.000 N 
ATOM     11  O   UNL     1      43.733   2.764  10.363  0.00  0.00    +0.000 OA
ATOM     12  H   UNL     1      44.279   5.306   8.568  0.00  0.00    +0.000 HD
ATOM     13  H   UNL     1      43.541   3.795   8.160  0.00  0.00    +0.000 HD
ENDBRANCH   6   9
ENDBRANCH   1   3
BRANCH   1  14
ATOM     14  C   UNL     1      48.497   7.261  13.538  0.00  0.00    +0.000 C 
BRANCH  14  15
ATOM     15  C   UNL     1      49.466   7.085  14.713  0.00  0.00    +0.000 C 
BRANCH  15  20
ATOM     16  C   UNL     1      48.145   7.209  18.297  0.00  0.00    +0.000 A 
ATOM     17  C   UNL     1      47.891   8.580  18.437  0.00  0.00    +0.000 A 
ATOM     18  C   UNL     1      48.106   9.451  17.370  0.00  0.00    +0.000 A 
ATOM     19  C   UNL     1      48.587   8.964  16.155  0.00  0.00    +0.000 A 
ATOM     20  C   UNL     1      48.848   7.598  15.992  0.00  0.00    +0.000 A 
ATOM     21  C   UNL     1      48.619   6.727  17.067  0.00  0.00    +0.000 A 
BRANCH  16  22
ATOM     22  C   UNL     1      47.998   6.279  19.473  0.00  0.00    +0.000 C 
BRANCH  22  23
ATOM     23  N   UNL     1      46.928   5.318  19.236  0.00  0.00    +0.000 NA
ATOM     24  H   UNL     1      46.304   5.680  18.519  0.00  0.00    +0.000 HD
ATOM     25  H   UNL     1      46.372   5.228  20.086  0.00  0.00    +0.000 HD
ENDBRANCH  22  23
ENDBRANCH  16  22
ENDBRANCH  15  20
ENDBRANCH  14  15
ENDBRANCH   1  14
TORSDOF 7
ENDMDL
