MODEL 1
REMARK VINA RESULT:    -8.567      0.000      0.000
REMARK INTER + INTRA:         -11.755
REMARK INTER:                 -11.072
REMARK INTRA:                  -0.683
REMARK UNBOUND:                -0.683
REMARK  Name = 
REMARK  6 active torsions:
REMARK  status: ('A' for Active; 'I' for Inactive)
REMARK    1  A    between atoms: C_1  and  C_2
REMARK    2  A    between atoms: N_6  and  C_7
REMARK    3  A    between atoms: C_7  and  C_8
REMARK    4  A    between atoms: C_8  and  C_11
REMARK    5  A    between atoms: C_15  and  O_16
REMARK    6  A    between atoms: O_16  and  C_17
REMARK                            x       y       z     vdW  Elec       q    Type
REMARK                         _______ _______ _______ _____ _____    ______ ____
ROOT
ATOM      1  C   UNL     1      43.552   5.436  11.903  0.00  0.00    +0.000 C 
ATOM      2  F   UNL     1      43.068   6.579  11.324  0.00  0.00    +0.000 F 
ATOM      3  F   UNL     1      42.732   5.219  12.985  0.00  0.00    +0.000 F 
ENDROOT
BRANCH   1   4
ATOM      4  C   UNL     1      44.998   5.587  12.338  0.00  0.00    +0.000 A 
ATOM      5  C   UNL     1      45.775   6.613  11.780  0.00  0.00    +0.000 A 
ATOM      6  C   UNL     1      47.098   6.799  12.177  0.00  0.00    +0.000 A 
ATOM      7  C   UNL     1      47.685   5.967  13.143  0.00  0.00    +0.000 A 
ATOM      8  C   UNL     1      46.936   4.914  13.683  0.00  0.00    +0.000 A 
ATOM      9  C   UNL     1      45.602   4.734  13.279  0.00  0.00    +0.000 A 
BRANCH   8  10
ATOM     10  O   UNL     1      47.348   4.024  14.647  0.00  0.00    +0.000 OA
BRANCH  10  11
ATOM     11  C   UNL     1      47.244   4.340  16.053  0.00  0.00    +0.000 C 
ATOM     12  C   UNL     1      48.417   5.041  16.757  0.00  0.00    +0.000 C 
ATOM     13  O   UNL     1      48.483   4.021  17.777  0.00  0.00    +0.000 OA
ATOM     14  C   UNL     1      47.565   3.184  17.033  0.00  0.00    +0.000 C 
ENDBRANCH  10  11
ENDBRANCH   8  10
ENDBRANCH   1   4
BRANCH   1  15
ATOM     15  C   UNL     1      43.351   4.264  10.901  0.00  0.00    +0.000 C 
BRANCH  15  21
ATOM     16  C   UNL     1      47.511   1.410   6.916  0.00  0.00    +0.000 C 
ATOM     17  C   UNL     1      46.545   2.264   7.660  0.00  0.00    +0.000 A 
ATOM     18  C   UNL     1      45.705   1.775   8.635  0.00  0.00    +0.000 A 
ATOM     19  N   UNL     1      44.804   2.527   9.297  0.00  0.00    +0.000 NA
ATOM     20  C   UNL     1      44.726   3.824   8.961  0.00  0.00    +0.000 A 
ATOM     21  N   UNL     1      43.757   4.622   9.538  0.00  0.00    +0.000 N 
ATOM     22  N   UNL     1      45.513   4.404   8.052  0.00  0.00    +0.000 NA
ATOM     23  C   UNL     1      46.401   3.611   7.418  0.00  0.00    +0.000 A 
ATOM     24  H   UNL     1      43.949   5.599   9.341  0.00  0.00    +0.000 HD
ENDBRANCH  15  21
ENDBRANCH   1  15
TORSDOF 5
ENDMDL
MODEL 2
REMARK VINA RESULT:    -7.863      1.986      3.323
REMARK INTER + INTRA:         -10.844
REMARK INTER:                 -10.119
REMARK INTRA:                  -0.726
REMARK UNBOUND:                -0.683
REMARK  Name = 
REMARK  6 active torsions:
REMARK  status: ('A' for Active; 'I' for Inactive)
REMARK    1  A    between atoms: C_1  and  C_2
REMARK    2  A    between atoms: N_6  and  C_7
REMARK    3  A    between atoms: C_7  and  C_8
REMARK    4  A    between atoms: C_8  and  C_11
REMARK    5  A    between atoms: C_15  and  O_16
REMARK    6  A    between atoms: O_16  and  C_17
REMARK                            x       y       z     vdW  Elec       q    Type
REMARK                         _______ _______ _______ _____ _____    ______ ____
ROOT
ATOM      1  C   UNL     1      43.501   5.530  11.969  0.00  0.00    +0.000 C 
ATOM      2  F   UNL     1      43.150   6.687  11.325  0.00  0.00    +0.000 F 
ATOM      3  F   UNL     1      42.524   5.350  12.919  0.00  0.00    +0.000 F 
ENDROOT
BRANCH   1   4
ATOM      4  C   UNL     1      44.873   5.630  12.611  0.00  0.00    +0.000 A 
ATOM      5  C   UNL     1      45.385   4.522  13.304  0.00  0.00    +0.000 A 
ATOM      6  C   UNL     1      46.652   4.568  13.881  0.00  0.00    +0.000 A 
ATOM      7  C   UNL     1      47.447   5.721  13.783  0.00  0.00    +0.000 A 
ATOM      8  C   UNL     1      46.938   6.849  13.127  0.00  0.00    +0.000 A 
ATOM      9  C   UNL     1      45.660   6.794  12.546  0.00  0.00    +0.000 A 
BRANCH   8  10
ATOM     10  O   UNL     1      47.588   8.044  12.925  0.00  0.00    +0.000 OA
BRANCH  10  11
ATOM     11  C   UNL     1      48.409   8.262  11.756  0.00  0.00    +0.000 C 
ATOM     12  C   UNL     1      49.819   7.652  11.699  0.00  0.00    +0.000 C 
ATOM     13  O   UNL     1      50.420   8.933  11.416  0.00  0.00    +0.000 OA
ATOM     14  C   UNL     1      49.172   9.609  11.706  0.00  0.00    +0.000 C 
ENDBRANCH  10  11
ENDBRANCH   8  10
ENDBRANCH   1   4
BRANCH   1  15
ATOM     15  C   UNL     1      43.406   4.361  10.949  0.00  0.00    +0.000 C 
BRANCH  15  21
ATOM     16  C   UNL     1      47.452   1.457   6.884  0.00  0.00    +0.000 C 
ATOM     17  C   UNL     1      46.525   2.330   7.655  0.00  0.00    +0.000 A 
ATOM     18  C   UNL     1      45.647   1.846   8.599  0.00  0.00    +0.000 A 
ATOM     19  N   UNL     1      44.781   2.617   9.284  0.00  0.00    +0.000 NA
ATOM     20  C   UNL     1      44.779   3.931   9.005  0.00  0.00    +0.000 A 
ATOM     21  N   UNL     1      43.848   4.755   9.608  0.00  0.00    +0.000 N 
ATOM     22  N   UNL     1      45.609   4.505   8.131  0.00  0.00    +0.000 NA
ATOM     23  C   UNL     1      46.460   3.692   7.472  0.00  0.00    +0.000 A 
ATOM     24  H   UNL     1      44.097   5.727   9.456  0.00  0.00    +0.000 HD
ENDBRANCH  15  21
ENDBRANCH   1  15
TORSDOF 5
ENDMDL
MODEL 3
REMARK VINA RESULT:    -7.637      3.684      7.349
REMARK INTER + INTRA:         -10.553
REMARK INTER:                 -10.009
REMARK INTRA:                  -0.543
REMARK UNBOUND:                -0.683
REMARK  Name = 
REMARK  6 active torsions:
REMARK  status: ('A' for Active; 'I' for Inactive)
REMARK    1  A    between atoms: C_1  and  C_2
REMARK    2  A    between atoms: N_6  and  C_7
REMARK    3  A    between atoms: C_7  and  C_8
REMARK    4  A    between atoms: C_8  and  C_11
REMARK    5  A    between atoms: C_15  and  O_16
REMARK    6  A    between atoms: O_16  and  C_17
REMARK                            x       y       z     vdW  Elec       q    Type
REMARK                         _______ _______ _______ _____ _____    ______ ____
ROOT
ATOM      1  C   UNL     1      45.675   6.181  11.362  0.00  0.00    +0.000 C 
ATOM      2  F   UNL     1      44.801   7.220  11.183  0.00  0.00    +0.000 F 
ATOM      3  F   UNL     1      46.886   6.667  10.931  0.00  0.00    +0.000 F 
ENDROOT
BRANCH   1   4
ATOM      4  C   UNL     1      45.269   4.952  10.570  0.00  0.00    +0.000 A 
ATOM      5  C   UNL     1      44.486   3.967  11.191  0.00  0.00    +0.000 A 
ATOM      6  C   UNL     1      44.071   2.840  10.486  0.00  0.00    +0.000 A 
ATOM      7  C   UNL     1      44.424   2.661   9.139  0.00  0.00    +0.000 A 
ATOM      8  C   UNL     1      45.235   3.616   8.513  0.00  0.00    +0.000 A 
ATOM      9  C   UNL     1      45.648   4.751   9.230  0.00  0.00    +0.000 A 
BRANCH   8  10
ATOM     10  O   UNL     1      45.654   3.605   7.203  0.00  0.00    +0.000 OA
BRANCH  10  11
ATOM     11  C   UNL     1      47.013   3.263   6.853  0.00  0.00    +0.000 C 
ATOM     12  C   UNL     1      47.329   2.793   5.425  0.00  0.00    +0.000 C 
ATOM     13  O   UNL     1      47.961   1.586   5.904  0.00  0.00    +0.000 OA
ATOM     14  C   UNL     1      47.475   1.837   7.245  0.00  0.00    +0.000 C 
ENDBRANCH  10  11
ENDBRANCH   8  10
ENDBRANCH   1   4
BRANCH   1  15
ATOM     15  C   UNL     1      45.783   5.897  12.887  0.00  0.00    +0.000 C 
BRANCH  15  21
ATOM     16  C   UNL     1      48.550   3.473  18.160  0.00  0.00    +0.000 C 
ATOM     17  C   UNL     1      48.132   4.172  16.913  0.00  0.00    +0.000 A 
ATOM     18  C   UNL     1      47.129   3.709  16.092  0.00  0.00    +0.000 A 
ATOM     19  N   UNL     1      46.758   4.311  14.946  0.00  0.00    +0.000 NA
ATOM     20  C   UNL     1      47.430   5.419  14.593  0.00  0.00    +0.000 A 
ATOM     21  N   UNL     1      47.157   6.025  13.382  0.00  0.00    +0.000 N 
ATOM     22  N   UNL     1      48.398   5.968  15.331  0.00  0.00    +0.000 NA
ATOM     23  C   UNL     1      48.731   5.329  16.472  0.00  0.00    +0.000 A 
ATOM     24  H   UNL     1      47.590   6.943  13.348  0.00  0.00    +0.000 HD
ENDBRANCH  15  21
ENDBRANCH   1  15
TORSDOF 5
ENDMDL
MODEL 4
REMARK VINA RESULT:    -7.099      3.628      7.425
REMARK INTER + INTRA:          -9.857
REMARK INTER:                  -9.524
REMARK INTRA:                  -0.333
REMARK UNBOUND:                -0.683
REMARK  Name = 
REMARK  6 active torsions:
REMARK  status: ('A' for Active; 'I' for Inactive)
REMARK    1  A    between atoms: C_1  and  C_2
REMARK    2  A    between atoms: N_6  and  C_7
REMARK    3  A    between atoms: C_7  and  C_8
REMARK    4  A    between atoms: C_8  and  C_11
REMARK    5  A    between atoms: C_15  and  O_16
REMARK    6  A    between atoms: O_16  and  C_17
REMARK                            x       y       z     vdW  Elec       q    Type
REMARK                         _______ _______ _______ _____ _____    ______ ____
ROOT
ATOM      1  C   UNL     1      46.616   6.628  12.347  0.00  0.00    +0.000 C 
ATOM      2  F   UNL     1      45.920   7.491  13.150  0.00  0.00    +0.000 F 
ATOM      3  F   UNL     1      47.459   7.432  11.618  0.00  0.00    +0.000 F 
ENDROOT
BRANCH   1   4
ATOM      4  C   UNL     1      45.698   5.833  11.436  0.00  0.00    +0.000 A 
ATOM      5  C   UNL     1      44.450   5.414  11.921  0.00  0.00    +0.000 A 
ATOM      6  C   UNL     1      43.570   4.708  11.103  0.00  0.00    +0.000 A 
ATOM      7  C   UNL     1      43.909   4.400   9.776  0.00  0.00    +0.000 A 
ATOM      8  C   UNL     1      45.166   4.778   9.287  0.00  0.00    +0.000 A 
ATOM      9  C   UNL     1      46.047   5.491  10.117  0.00  0.00    +0.000 A 
BRANCH   8  10
ATOM     10  O   UNL     1      45.647   4.573   8.014  0.00  0.00    +0.000 OA
BRANCH  10  11
ATOM     11  C   UNL     1      45.746   3.245   7.455  0.00  0.00    +0.000 C 
ATOM     12  C   UNL     1      45.996   2.050   8.388  0.00  0.00    +0.000 C 
ATOM     13  O   UNL     1      47.146   1.626   7.626  0.00  0.00    +0.000 OA
ATOM     14  C   UNL     1      47.126   2.859   6.867  0.00  0.00    +0.000 C 
ENDBRANCH  10  11
ENDBRANCH   8  10
ENDBRANCH   1   4
BRANCH   1  15
ATOM     15  C   UNL     1      47.485   5.715  13.258  0.00  0.00    +0.000 C 
BRANCH  15  21
ATOM     16  C   UNL     1      49.028   4.012  19.262  0.00  0.00    +0.000 C 
ATOM     17  C   UNL     1      48.452   4.265  17.913  0.00  0.00    +0.000 A 
ATOM     18  C   UNL     1      48.841   5.317  17.115  0.00  0.00    +0.000 A 
ATOM     19  N   UNL     1      48.311   5.578  15.905  0.00  0.00    +0.000 NA
ATOM     20  C   UNL     1      47.335   4.761  15.476  0.00  0.00    +0.000 A 
ATOM     21  N   UNL     1      46.690   5.035  14.286  0.00  0.00    +0.000 N 
ATOM     22  N   UNL     1      46.906   3.696  16.157  0.00  0.00    +0.000 NA
ATOM     23  C   UNL     1      47.470   3.474  17.363  0.00  0.00    +0.000 A 
ATOM     24  H   UNL     1      46.131   4.236  14.002  0.00  0.00    +0.000 HD
ENDBRANCH  15  21
ENDBRANCH   1  15
TORSDOF 5
ENDMDL
MODEL 5
REMARK VINA RESULT:    -6.954      3.869      7.663
REMARK INTER + INTRA:          -9.670
REMARK INTER:                  -9.118
REMARK INTRA:                  -0.552
REMARK UNBOUND:                -0.683
REMARK  Name = 
REMARK  6 active torsions:
REMARK  status: ('A' for Active; 'I' for Inactive)
REMARK    1  A    between atoms: C_1  and  C_2
REMARK    2  A    between atoms: N_6  and  C_7
REMARK    3  A    between atoms: C_7  and  C_8
REMARK    4  A    between atoms: C_8  and  C_11
REMARK    5  A    between atoms: C_15  and  O_16
REMARK    6  A    between atoms: O_16  and  C_17
REMARK                            x       y       z     vdW  Elec       q    Type
REMARK                         _______ _______ _______ _____ _____    ______ ____
ROOT
ATOM      1  C   UNL     1      45.383   6.249  11.449  0.00  0.00    +0.000 C 
ATOM      2  F   UNL     1      44.749   6.157  12.659  0.00  0.00    +0.000 F 
ATOM      3  F   UNL     1      44.857   7.376  10.864  0.00  0.00    +0.000 F 
ENDROOT
BRANCH   1   4
ATOM      4  C   UNL     1      45.140   5.024  10.585  0.00  0.00    +0.000 A 
ATOM      5  C   UNL     1      44.356   3.976  11.091  0.00  0.00    +0.000 A 
ATOM      6  C   UNL     1      44.089   2.850  10.316  0.00  0.00    +0.000 A 
ATOM      7  C   UNL     1      44.596   2.736   9.011  0.00  0.00    +0.000 A 
ATOM      8  C   UNL     1      45.411   3.755   8.504  0.00  0.00    +0.000 A 
ATOM      9  C   UNL     1      45.674   4.888   9.291  0.00  0.00    +0.000 A 
BRANCH   8  10
ATOM     10  O   UNL     1      45.969   3.811   7.248  0.00  0.00    +0.000 OA
BRANCH  10  11
ATOM     11  C   UNL     1      46.332   2.607   6.535  0.00  0.00    +0.000 C 
ATOM     12  C   UNL     1      47.413   1.682   7.116  0.00  0.00    +0.000 C 
ATOM     13  O   UNL     1      48.178   1.720   5.893  0.00  0.00    +0.000 OA
ATOM     14  C   UNL     1      47.344   2.785   5.376  0.00  0.00    +0.000 C 
ENDBRANCH  10  11
ENDBRANCH   8  10
ENDBRANCH   1   4
BRANCH   1  15
ATOM     15  C   UNL     1      46.894   6.500  11.713  0.00  0.00    +0.000 C 
BRANCH  15  21
ATOM     16  C   UNL     1      49.561   9.292  16.854  0.00  0.00    +0.000 C 
ATOM     17  C   UNL     1      49.003   8.420  15.785  0.00  0.00    +0.000 A 
ATOM     18  C   UNL     1      48.087   8.860  14.856  0.00  0.00    +0.000 A 
ATOM     19  N   UNL     1      47.549   8.078  13.901  0.00  0.00    +0.000 NA
ATOM     20  C   UNL     1      47.930   6.791  13.880  0.00  0.00    +0.000 A 
ATOM     21  N   UNL     1      47.341   5.920  12.984  0.00  0.00    +0.000 N 
ATOM     22  N   UNL     1      48.833   6.269  14.714  0.00  0.00    +0.000 NA
ATOM     23  C   UNL     1      49.346   7.094  15.651  0.00  0.00    +0.000 A 
ATOM     24  H   UNL     1      47.865   5.050  12.950  0.00  0.00    +0.000 HD
ENDBRANCH  15  21
ENDBRANCH   1  15
TORSDOF 5
ENDMDL
MODEL 6
REMARK VINA RESULT:    -6.899      4.078      7.485
REMARK INTER + INTRA:          -9.599
REMARK INTER:                  -9.236
REMARK INTRA:                  -0.363
REMARK UNBOUND:                -0.683
REMARK  Name = 
REMARK  6 active torsions:
REMARK  status: ('A' for Active; 'I' for Inactive)
REMARK    1  A    between atoms: C_1  and  C_2
REMARK    2  A    between atoms: N_6  and  C_7
REMARK    3  A    between atoms: C_7  and  C_8
REMARK    4  A    between atoms: C_8  and  C_11
REMARK    5  A    between atoms: C_15  and  O_16
REMARK    6  A    between atoms: O_16  and  C_17
REMARK                            x       y       z     vdW  Elec       q    Type
REMARK                         _______ _______ _______ _____ _____    ______ ____
ROOT
ATOM      1  C   UNL     1      46.943   4.453  13.635  0.00  0.00    +0.000 C 
ATOM      2  F   UNL     1      47.729   5.514  13.273  0.00  0.00    +0.000 F 
ATOM      3  F   UNL     1      47.675   3.342  13.288  0.00  0.00    +0.000 F 
ENDROOT
BRANCH   1   4
ATOM      4  C   UNL     1      45.604   4.467  12.921  0.00  0.00    +0.000 A 
ATOM      5  C   UNL     1      44.696   5.502  13.192  0.00  0.00    +0.000 A 
ATOM      6  C   UNL     1      43.470   5.562  12.534  0.00  0.00    +0.000 A 
ATOM      7  C   UNL     1      43.112   4.592  11.585  0.00  0.00    +0.000 A 
ATOM      8  C   UNL     1      43.990   3.531  11.329  0.00  0.00    +0.000 A 
ATOM      9  C   UNL     1      45.225   3.478  11.995  0.00  0.00    +0.000 A 
BRANCH   8  10
ATOM     10  O   UNL     1      43.805   2.514  10.422  0.00  0.00    +0.000 OA
BRANCH  10  11
ATOM     11  C   UNL     1      44.263   2.635   9.057  0.00  0.00    +0.000 C 
ATOM     12  C   UNL     1      45.664   2.124   8.683  0.00  0.00    +0.000 C 
ATOM     13  O   UNL     1      46.034   3.397   8.111  0.00  0.00    +0.000 OA
ATOM     14  C   UNL     1      44.843   4.015   8.656  0.00  0.00    +0.000 C 
ENDBRANCH  10  11
ENDBRANCH   8  10
ENDBRANCH   1   4
BRANCH   1  15
ATOM     15  C   UNL     1      46.792   4.469  15.182  0.00  0.00    +0.000 C 
BRANCH  15  21
ATOM     16  C   UNL     1      52.302   3.045  18.174  0.00  0.00    +0.000 C 
ATOM     17  C   UNL     1      50.978   3.117  17.497  0.00  0.00    +0.000 A 
ATOM     18  C   UNL     1      50.246   4.278  17.398  0.00  0.00    +0.000 A 
ATOM     19  N   UNL     1      49.034   4.355  16.816  0.00  0.00    +0.000 NA
ATOM     20  C   UNL     1      48.520   3.217  16.322  0.00  0.00    +0.000 A 
ATOM     21  N   UNL     1      47.241   3.217  15.799  0.00  0.00    +0.000 N 
ATOM     22  N   UNL     1      49.159   2.045  16.339  0.00  0.00    +0.000 NA
ATOM     23  C   UNL     1      50.371   2.019  16.931  0.00  0.00    +0.000 A 
ATOM     24  H   UNL     1      47.074   2.352  15.293  0.00  0.00    +0.000 HD
ENDBRANCH  15  21
ENDBRANCH   1  15
TORSDOF 5
ENDMDL
MODEL 7
REMARK VINA RESULT:    -6.689      3.247      5.001
REMARK INTER + INTRA:          -9.327
REMARK INTER:                  -8.588
REMARK INTRA:                  -0.739
REMARK UNBOUND:                -0.683
REMARK  Name = 
REMARK  6 active torsions:
REMARK  status: ('A' for Active; 'I' for Inactive)
REMARK    1  A    between atoms: C_1  and  C_2
REMARK    2  A    between atoms: N_6  and  C_7
REMARK    3  A    between atoms: C_7  and  C_8
REMARK    4  A    between atoms: C_8  and  C_11
REMARK    5  A    between atoms: C_15  and  O_16
REMARK    6  A    between atoms: O_16  and  C_17
REMARK                            x       y       z     vdW  Elec       q    Type
REMARK                         _______ _______ _______ _____ _____    ______ ____
ROOT
ATOM      1  C   UNL     1      44.357   4.924  12.721  0.00  0.00    +0.000 C 
ATOM      2  F   UNL     1      43.236   5.181  13.464  0.00  0.00    +0.000 F 
ATOM      3  F   UNL     1      45.039   3.970  13.437  0.00  0.00    +0.000 F 
ENDROOT
BRANCH   1   4
ATOM      4  C   UNL     1      45.206   6.167  12.523  0.00  0.00    +0.000 A 
ATOM      5  C   UNL     1      46.598   6.074  12.676  0.00  0.00    +0.000 A 
ATOM      6  C   UNL     1      47.411   7.186  12.474  0.00  0.00    +0.000 A 
ATOM      7  C   UNL     1      46.860   8.426  12.113  0.00  0.00    +0.000 A 
ATOM      8  C   UNL     1      45.470   8.547  11.993  0.00  0.00    +0.000 A 
ATOM      9  C   UNL     1      44.657   7.419  12.196  0.00  0.00    +0.000 A 
BRANCH   8  10
ATOM     10  O   UNL     1      44.773   9.675  11.629  0.00  0.00    +0.000 OA
BRANCH  10  11
ATOM     11  C   UNL     1      43.756   9.630  10.603  0.00  0.00    +0.000 C 
ATOM     12  C   UNL     1      43.798  10.650   9.454  0.00  0.00    +0.000 C 
ATOM     13  O   UNL     1      42.439  11.068   9.706  0.00  0.00    +0.000 OA
ATOM     14  C   UNL     1      42.414  10.323  10.947  0.00  0.00    +0.000 C 
ENDBRANCH  10  11
ENDBRANCH   8  10
ENDBRANCH   1   4
BRANCH   1  15
ATOM     15  C   UNL     1      43.908   4.291  11.374  0.00  0.00    +0.000 C 
BRANCH  15  21
ATOM     16  C   UNL     1      46.898   2.910   5.853  0.00  0.00    +0.000 C 
ATOM     17  C   UNL     1      46.271   2.984   7.200  0.00  0.00    +0.000 A 
ATOM     18  C   UNL     1      45.987   4.174   7.833  0.00  0.00    +0.000 A 
ATOM     19  N   UNL     1      45.447   4.260   9.064  0.00  0.00    +0.000 NA
ATOM     20  C   UNL     1      45.193   3.106   9.702  0.00  0.00    +0.000 A 
ATOM     21  N   UNL     1      44.729   3.133  11.002  0.00  0.00    +0.000 N 
ATOM     22  N   UNL     1      45.403   1.900   9.168  0.00  0.00    +0.000 NA
ATOM     23  C   UNL     1      45.942   1.866   7.931  0.00  0.00    +0.000 A 
ATOM     24  H   UNL     1      44.399   2.212  11.272  0.00  0.00    +0.000 HD
ENDBRANCH  15  21
ENDBRANCH   1  15
TORSDOF 5
ENDMDL
MODEL 8
REMARK VINA RESULT:    -5.936      3.072      4.551
REMARK INTER + INTRA:          -8.355
REMARK INTER:                  -7.666
REMARK INTRA:                  -0.689
REMARK UNBOUND:                -0.683
REMARK  Name = 
REMARK  6 active torsions:
REMARK  status: ('A' for Active; 'I' for Inactive)
REMARK    1  A    between atoms: C_1  and  C_2
REMARK    2  A    between atoms: N_6  and  C_7
REMARK    3  A    between atoms: C_7  and  C_8
REMARK    4  A    between atoms: C_8  and  C_11
REMARK    5  A    between atoms: C_15  and  O_16
REMARK    6  A    between atoms: O_16  and  C_17
REMARK                            x       y       z     vdW  Elec       q    Type
REMARK                         _______ _______ _______ _____ _____    ______ ____
ROOT
ATOM      1  C   UNL     1      47.752   8.593  13.249  0.00  0.00    +0.000 C 
ATOM      2  F   UNL     1      48.397   7.931  12.239  0.00  0.00    +0.000 F 
ATOM      3  F   UNL     1      48.028   9.921  13.026  0.00  0.00    +0.000 F 
ENDROOT
BRANCH   1   4
ATOM      4  C   UNL     1      48.241   8.158  14.618  0.00  0.00    +0.000 A 
ATOM      5  C   UNL     1      48.347   9.113  15.640  0.00  0.00    +0.000 A 
ATOM      6  C   UNL     1      48.765   8.745  16.917  0.00  0.00    +0.000 A 
ATOM      7  C   UNL     1      49.089   7.411  17.213  0.00  0.00    +0.000 A 
ATOM      8  C   UNL     1      49.024   6.451  16.195  0.00  0.00    +0.000 A 
ATOM      9  C   UNL     1      48.600   6.830  14.911  0.00  0.00    +0.000 A 
BRANCH   8  10
ATOM     10  O   UNL     1      49.286   5.106  16.318  0.00  0.00    +0.000 OA
BRANCH  10  11
ATOM     11  C   UNL     1      48.585   4.292  17.285  0.00  0.00    +0.000 C 
ATOM     12  C   UNL     1      48.061   2.909  16.869  0.00  0.00    +0.000 C 
ATOM     13  O   UNL     1      46.722   3.225  17.308  0.00  0.00    +0.000 OA
ATOM     14  C   UNL     1      47.083   4.616  17.483  0.00  0.00    +0.000 C 
ENDBRANCH  10  11
ENDBRANCH   8  10
ENDBRANCH   1   4
BRANCH   1  15
ATOM     15  C   UNL     1      46.223   8.379  13.067  0.00  0.00    +0.000 C 
BRANCH  15  21
ATOM     16  C   UNL     1      43.384   2.759  11.767  0.00  0.00    +0.000 C 
ATOM     17  C   UNL     1      44.089   4.069  11.809  0.00  0.00    +0.000 A 
ATOM     18  C   UNL     1      43.948   4.966  12.845  0.00  0.00    +0.000 A 
ATOM     19  N   UNL     1      44.555   6.168  12.886  0.00  0.00    +0.000 NA
ATOM     20  C   UNL     1      45.326   6.499  11.838  0.00  0.00    +0.000 A 
ATOM     21  N   UNL     1      45.897   7.756  11.781  0.00  0.00    +0.000 N 
ATOM     22  N   UNL     1      45.553   5.692  10.798  0.00  0.00    +0.000 NA
ATOM     23  C   UNL     1      44.926   4.497  10.804  0.00  0.00    +0.000 A 
ATOM     24  H   UNL     1      46.599   7.785  11.047  0.00  0.00    +0.000 HD
ENDBRANCH  15  21
ENDBRANCH   1  15
TORSDOF 5
ENDMDL
MODEL 9
REMARK VINA RESULT:    -5.926      5.177      8.153
REMARK INTER + INTRA:          -8.341
REMARK INTER:                  -7.820
REMARK INTRA:                  -0.521
REMARK UNBOUND:                -0.683
REMARK  Name = 
REMARK  6 active torsions:
REMARK  status: ('A' for Active; 'I' for Inactive)
REMARK    1  A    between atoms: C_1  and  C_2
REMARK    2  A    between atoms: N_6  and  C_7
REMARK    3  A    between atoms: C_7  and  C_8
REMARK    4  A    between atoms: C_8  and  C_11
REMARK    5  A    between atoms: C_15  and  O_16
REMARK    6  A    between atoms: O_16  and  C_17
REMARK                            x       y       z     vdW  Elec       q    Type
REMARK                         _______ _______ _______ _____ _____    ______ ____
ROOT
ATOM      1  C   UNL     1      47.629   4.243  16.854  0.00  0.00    +0.000 C 
ATOM      2  F   UNL     1      47.077   2.990  16.873  0.00  0.00    +0.000 F 
ATOM      3  F   UNL     1      46.950   4.938  17.825  0.00  0.00    +0.000 F 
ENDROOT
BRANCH   1   4
ATOM      4  C   UNL     1      47.478   4.911  15.500  0.00  0.00    +0.000 A 
ATOM      5  C   UNL     1      48.200   6.084  15.233  0.00  0.00    +0.000 A 
ATOM      6  C   UNL     1      48.108   6.709  13.991  0.00  0.00    +0.000 A 
ATOM      7  C   UNL     1      47.293   6.181  12.977  0.00  0.00    +0.000 A 
ATOM      8  C   UNL     1      46.537   5.031  13.238  0.00  0.00    +0.000 A 
ATOM      9  C   UNL     1      46.637   4.406  14.492  0.00  0.00    +0.000 A 
BRANCH   8  10
ATOM     10  O   UNL     1      45.709   4.376  12.356  0.00  0.00    +0.000 OA
BRANCH  10  11
ATOM     11  C   UNL     1      44.316   4.148  12.665  0.00  0.00    +0.000 C 
ATOM     12  C   UNL     1      43.323   3.883  11.522  0.00  0.00    +0.000 C 
ATOM     13  O   UNL     1      42.453   4.949  11.959  0.00  0.00    +0.000 OA
ATOM     14  C   UNL     1      43.456   5.416  12.893  0.00  0.00    +0.000 C 
ENDBRANCH  10  11
ENDBRANCH   8  10
ENDBRANCH   1   4
BRANCH   1  15
ATOM     15  C   UNL     1      49.115   4.122  17.295  0.00  0.00    +0.000 C 
BRANCH  15  21
ATOM     16  C   UNL     1      54.917   1.401  17.823  0.00  0.00    +0.000 C 
ATOM     17  C   UNL     1      53.482   1.785  17.719  0.00  0.00    +0.000 A 
ATOM     18  C   UNL     1      53.023   3.057  17.979  0.00  0.00    +0.000 A 
ATOM     19  N   UNL     1      51.726   3.414  17.919  0.00  0.00    +0.000 NA
ATOM     20  C   UNL     1      50.842   2.455  17.600  0.00  0.00    +0.000 A 
ATOM     21  N   UNL     1      49.491   2.741  17.616  0.00  0.00    +0.000 N 
ATOM     22  N   UNL     1      51.184   1.200  17.301  0.00  0.00    +0.000 NA
ATOM     23  C   UNL     1      52.496   0.891  17.372  0.00  0.00    +0.000 A 
ATOM     24  H   UNL     1      48.973   1.992  17.166  0.00  0.00    +0.000 HD
ENDBRANCH  15  21
ENDBRANCH   1  15
TORSDOF 5
ENDMDL
