MODEL 1
REMARK VINA RESULT:    -7.896      0.000      0.000
REMARK INTER + INTRA:         -10.298
REMARK INTER:                  -9.742
REMARK INTRA:                  -0.556
REMARK UNBOUND:                -0.556
REMARK  Name = 
REMARK  5 active torsions:
REMARK  status: ('A' for Active; 'I' for Inactive)
REMARK    1  A    between atoms: C_1  and  C_2
REMARK    2  A    between atoms: C_2  and  O_3
REMARK    3  A    between atoms: C_2  and  C_13
REMARK    4  A    between atoms: O_3  and  C_4
REMARK    5  A    between atoms: C_7  and  C_8
REMARK                            x       y       z     vdW  Elec       q    Type
REMARK                         _______ _______ _______ _____ _____    ______ ____
ROOT
ATOM      1  C   UNL     1      44.442   3.453   9.448  0.00  0.00    +0.000 A 
ATOM      2  C   UNL     1      45.054   4.273   8.505  0.00  0.00    +0.000 A 
ATOM      3  C   UNL     1      46.018   3.735   7.650  0.00  0.00    +0.000 A 
ATOM      4  C   UNL     1      46.333   2.386   7.765  0.00  0.00    +0.000 A 
ATOM      5  N   UNL     1      45.743   1.548   8.662  0.00  0.00    +0.000 NA
ATOM      6  C   UNL     1      44.820   2.112   9.479  0.00  0.00    +0.000 A 
ENDROOT
BRANCH   4   7
ATOM      7  C   UNL     1      47.396   1.799   6.888  0.00  0.00    +0.000 C 
ATOM      8  N   UNL     1      48.411   2.648   6.541  0.00  0.00    +0.000 N 
ATOM      9  O   UNL     1      47.363   0.641   6.496  0.00  0.00    +0.000 OA
ATOM     10  H   UNL     1      48.398   3.608   6.870  0.00  0.00    +0.000 HD
ATOM     11  H   UNL     1      49.145   2.321   5.930  0.00  0.00    +0.000 HD
ENDBRANCH   4   7
BRANCH   1  12
ATOM     12  O   UNL     1      43.546   3.852  10.397  0.00  0.00    +0.000 OA
BRANCH  12  14
ATOM     13  C   UNL     1      42.432   5.449  11.762  0.00  0.00    +0.000 C 
ATOM     14  C   UNL     1      43.696   5.175  10.944  0.00  0.00    +0.000 C 
BRANCH  14  15
ATOM     15  C   UNL     1      44.918   5.338  11.837  0.00  0.00    +0.000 A 
ATOM     16  C   UNL     1      45.950   6.218  11.513  0.00  0.00    +0.000 A 
ATOM     17  C   UNL     1      47.048   6.315  12.366  0.00  0.00    +0.000 A 
ATOM     18  C   UNL     1      47.095   5.530  13.511  0.00  0.00    +0.000 A 
ATOM     19  C   UNL     1      46.035   4.678  13.760  0.00  0.00    +0.000 A 
ATOM     20  N   UNL     1      44.953   4.567  12.956  0.00  0.00    +0.000 NA
ENDBRANCH  14  15
ENDBRANCH  12  14
ENDBRANCH   1  12
TORSDOF 4
ENDMDL
MODEL 2
REMARK VINA RESULT:    -6.722      1.234      1.739
REMARK INTER + INTRA:          -8.850
REMARK INTER:                  -8.842
REMARK INTRA:                  -0.008
REMARK UNBOUND:                -0.556
REMARK  Name = 
REMARK  5 active torsions:
REMARK  status: ('A' for Active; 'I' for Inactive)
REMARK    1  A    between atoms: C_1  and  C_2
REMARK    2  A    between atoms: C_2  and  O_3
REMARK    3  A    between atoms: C_2  and  C_13
REMARK    4  A    between atoms: O_3  and  C_4
REMARK    5  A    between atoms: C_7  and  C_8
REMARK                            x       y       z     vdW  Elec       q    Type
REMARK                         _______ _______ _______ _____ _____    ______ ____
ROOT
ATOM      1  C   UNL     1      44.510   3.413   9.477  0.00  0.00    +0.000 A 
ATOM      2  C   UNL     1      45.135   4.395   8.715  0.00  0.00    +0.000 A 
ATOM      3  C   UNL     1      46.105   4.026   7.782  0.00  0.00    +0.000 A 
ATOM      4  C   UNL     1      46.412   2.677   7.638  0.00  0.00    +0.000 A 
ATOM      5  N   UNL     1      45.810   1.686   8.350  0.00  0.00    +0.000 NA
ATOM      6  C   UNL     1      44.881   2.088   9.252  0.00  0.00    +0.000 A 
ENDROOT
BRANCH   4   7
ATOM      7  C   UNL     1      47.481   2.263   6.673  0.00  0.00    +0.000 C 
ATOM      8  N   UNL     1      47.521   2.964   5.498  0.00  0.00    +0.000 N 
ATOM      9  O   UNL     1      48.267   1.355   6.908  0.00  0.00    +0.000 OA
ATOM     10  H   UNL     1      46.843   3.699   5.328  0.00  0.00    +0.000 HD
ATOM     11  H   UNL     1      48.202   2.716   4.795  0.00  0.00    +0.000 HD
ENDBRANCH   4   7
BRANCH   1  12
ATOM     12  O   UNL     1      43.606   3.627  10.477  0.00  0.00    +0.000 OA
BRANCH  12  14
ATOM     13  C   UNL     1      45.143   2.930  12.153  0.00  0.00    +0.000 C 
ATOM     14  C   UNL     1      44.117   3.998  11.772  0.00  0.00    +0.000 C 
BRANCH  14  15
ATOM     15  C   UNL     1      44.780   5.367  11.802  0.00  0.00    +0.000 A 
ATOM     16  C   UNL     1      46.113   5.528  12.179  0.00  0.00    +0.000 A 
ATOM     17  C   UNL     1      46.661   6.809  12.198  0.00  0.00    +0.000 A 
ATOM     18  C   UNL     1      45.869   7.895  11.850  0.00  0.00    +0.000 A 
ATOM     19  C   UNL     1      44.556   7.656  11.493  0.00  0.00    +0.000 A 
ATOM     20  N   UNL     1      43.998   6.424  11.458  0.00  0.00    +0.000 NA
ENDBRANCH  14  15
ENDBRANCH  12  14
ENDBRANCH   1  12
TORSDOF 4
ENDMDL
MODEL 3
REMARK VINA RESULT:    -6.332      2.737      6.387
REMARK INTER + INTRA:          -8.368
REMARK INTER:                  -7.910
REMARK INTRA:                  -0.459
REMARK UNBOUND:                -0.556
REMARK  Name = 
REMARK  5 active torsions:
REMARK  status: ('A' for Active; 'I' for Inactive)
REMARK    1  A    between atoms: C_1  and  C_2
REMARK    2  A    between atoms: C_2  and  O_3
REMARK    3  A    between atoms: C_2  and  C_13
REMARK    4  A    between atoms: O_3  and  C_4
REMARK    5  A    between atoms: C_7  and  C_8
REMARK                            x       y       z     vdW  Elec       q    Type
REMARK                         _______ _______ _______ _____ _____    ______ ____
ROOT
ATOM      1  C   UNL     1      46.266   5.475  12.541  0.00  0.00    +0.000 A 
ATOM      2  C   UNL     1      47.184   6.362  13.094  0.00  0.00    +0.000 A 
ATOM      3  C   UNL     1      47.748   6.079  14.340  0.00  0.00    +0.000 A 
ATOM      4  C   UNL     1      47.374   4.907  14.988  0.00  0.00    +0.000 A 
ATOM      5  N   UNL     1      46.494   4.006  14.472  0.00  0.00    +0.000 NA
ATOM      6  C   UNL     1      45.963   4.324  13.266  0.00  0.00    +0.000 A 
ENDROOT
BRANCH   4   7
ATOM      7  C   UNL     1      47.933   4.606  16.346  0.00  0.00    +0.000 C 
ATOM      8  N   UNL     1      47.513   5.430  17.354  0.00  0.00    +0.000 N 
ATOM      9  O   UNL     1      48.719   3.690  16.547  0.00  0.00    +0.000 OA
ATOM     10  H   UNL     1      46.873   6.190  17.148  0.00  0.00    +0.000 HD
ATOM     11  H   UNL     1      47.873   5.296  18.288  0.00  0.00    +0.000 HD
ENDBRANCH   4   7
BRANCH   1  12
ATOM     12  O   UNL     1      45.577   5.656  11.377  0.00  0.00    +0.000 OA
BRANCH  12  14
ATOM     13  C   UNL     1      43.364   5.188  10.645  0.00  0.00    +0.000 C 
ATOM     14  C   UNL     1      44.739   4.577  10.921  0.00  0.00    +0.000 C 
BRANCH  14  15
ATOM     15  C   UNL     1      45.247   3.892   9.660  0.00  0.00    +0.000 A 
ATOM     16  C   UNL     1      45.243   2.504   9.527  0.00  0.00    +0.000 A 
ATOM     17  C   UNL     1      45.731   1.936   8.352  0.00  0.00    +0.000 A 
ATOM     18  C   UNL     1      46.218   2.760   7.346  0.00  0.00    +0.000 A 
ATOM     19  C   UNL     1      46.193   4.126   7.555  0.00  0.00    +0.000 A 
ATOM     20  N   UNL     1      45.720   4.708   8.680  0.00  0.00    +0.000 NA
ENDBRANCH  14  15
ENDBRANCH  12  14
ENDBRANCH   1  12
TORSDOF 4
ENDMDL
MODEL 4
REMARK VINA RESULT:    -6.054      2.894      6.381
REMARK INTER + INTRA:          -8.025
REMARK INTER:                  -7.575
REMARK INTRA:                  -0.451
REMARK UNBOUND:                -0.556
REMARK  Name = 
REMARK  5 active torsions:
REMARK  status: ('A' for Active; 'I' for Inactive)
REMARK    1  A    between atoms: C_1  and  C_2
REMARK    2  A    between atoms: C_2  and  O_3
REMARK    3  A    between atoms: C_2  and  C_13
REMARK    4  A    between atoms: O_3  and  C_4
REMARK    5  A    between atoms: C_7  and  C_8
REMARK                            x       y       z     vdW  Elec       q    Type
REMARK                         _______ _______ _______ _____ _____    ______ ____
ROOT
ATOM      1  C   UNL     1      46.323   6.377  12.054  0.00  0.00    +0.000 A 
ATOM      2  C   UNL     1      47.092   7.516  12.273  0.00  0.00    +0.000 A 
ATOM      3  C   UNL     1      47.955   7.562  13.369  0.00  0.00    +0.000 A 
ATOM      4  C   UNL     1      48.025   6.456  14.209  0.00  0.00    +0.000 A 
ATOM      5  N   UNL     1      47.304   5.317  14.018  0.00  0.00    +0.000 NA
ATOM      6  C   UNL     1      46.471   5.318  12.948  0.00  0.00    +0.000 A 
ENDROOT
BRANCH   4   7
ATOM      7  C   UNL     1      48.911   6.501  15.415  0.00  0.00    +0.000 C 
ATOM      8  N   UNL     1      48.270   6.443  16.623  0.00  0.00    +0.000 N 
ATOM      9  O   UNL     1      50.129   6.591  15.337  0.00  0.00    +0.000 OA
ATOM     10  H   UNL     1      47.258   6.387  16.652  0.00  0.00    +0.000 HD
ATOM     11  H   UNL     1      48.809   6.496  17.475  0.00  0.00    +0.000 HD
ENDBRANCH   4   7
BRANCH   1  12
ATOM     12  O   UNL     1      45.383   6.219  11.078  0.00  0.00    +0.000 OA
BRANCH  12  14
ATOM     13  C   UNL     1      43.232   5.229  10.855  0.00  0.00    +0.000 C 
ATOM     14  C   UNL     1      44.729   4.939  10.980  0.00  0.00    +0.000 C 
BRANCH  14  15
ATOM     15  C   UNL     1      45.181   4.106   9.789  0.00  0.00    +0.000 A 
ATOM     16  C   UNL     1      45.048   2.718   9.773  0.00  0.00    +0.000 A 
ATOM     17  C   UNL     1      45.490   2.009   8.657  0.00  0.00    +0.000 A 
ATOM     18  C   UNL     1      46.061   2.696   7.594  0.00  0.00    +0.000 A 
ATOM     19  C   UNL     1      46.162   4.072   7.687  0.00  0.00    +0.000 A 
ATOM     20  N   UNL     1      45.736   4.788   8.752  0.00  0.00    +0.000 NA
ENDBRANCH  14  15
ENDBRANCH  12  14
ENDBRANCH   1  12
TORSDOF 4
ENDMDL
MODEL 5
REMARK VINA RESULT:    -6.027      2.166      6.061
REMARK INTER + INTRA:          -7.992
REMARK INTER:                  -7.505
REMARK INTRA:                  -0.488
REMARK UNBOUND:                -0.556
REMARK  Name = 
REMARK  5 active torsions:
REMARK  status: ('A' for Active; 'I' for Inactive)
REMARK    1  A    between atoms: C_1  and  C_2
REMARK    2  A    between atoms: C_2  and  O_3
REMARK    3  A    between atoms: C_2  and  C_13
REMARK    4  A    between atoms: O_3  and  C_4
REMARK    5  A    between atoms: C_7  and  C_8
REMARK                            x       y       z     vdW  Elec       q    Type
REMARK                         _______ _______ _______ _____ _____    ______ ____
ROOT
ATOM      1  C   UNL     1      45.444   4.713  10.986  0.00  0.00    +0.000 A 
ATOM      2  C   UNL     1      45.996   5.959  10.705  0.00  0.00    +0.000 A 
ATOM      3  C   UNL     1      46.718   6.629  11.694  0.00  0.00    +0.000 A 
ATOM      4  C   UNL     1      46.870   6.021  12.935  0.00  0.00    +0.000 A 
ATOM      5  N   UNL     1      46.362   4.796  13.243  0.00  0.00    +0.000 NA
ATOM      6  C   UNL     1      45.659   4.184  12.258  0.00  0.00    +0.000 A 
ENDROOT
BRANCH   4   7
ATOM      7  C   UNL     1      47.603   6.743  14.024  0.00  0.00    +0.000 C 
ATOM      8  N   UNL     1      47.267   8.058  14.192  0.00  0.00    +0.000 N 
ATOM      9  O   UNL     1      48.454   6.202  14.718  0.00  0.00    +0.000 OA
ATOM     10  H   UNL     1      46.570   8.480  13.588  0.00  0.00    +0.000 HD
ATOM     11  H   UNL     1      47.744   8.608  14.893  0.00  0.00    +0.000 HD
ENDBRANCH   4   7
BRANCH   1  12
ATOM     12  O   UNL     1      44.652   3.979  10.152  0.00  0.00    +0.000 OA
BRANCH  12  14
ATOM     13  C   UNL     1      43.807   1.792   9.754  0.00  0.00    +0.000 C 
ATOM     14  C   UNL     1      45.077   2.641   9.830  0.00  0.00    +0.000 C 
BRANCH  14  15
ATOM     15  C   UNL     1      45.833   2.535   8.514  0.00  0.00    +0.000 A 
ATOM     16  C   UNL     1      45.899   3.601   7.618  0.00  0.00    +0.000 A 
ATOM     17  C   UNL     1      46.598   3.439   6.423  0.00  0.00    +0.000 A 
ATOM     18  C   UNL     1      47.204   2.220   6.147  0.00  0.00    +0.000 A 
ATOM     19  C   UNL     1      47.089   1.209   7.083  0.00  0.00    +0.000 A 
ATOM     20  N   UNL     1      46.424   1.338   8.253  0.00  0.00    +0.000 NA
ENDBRANCH  14  15
ENDBRANCH  12  14
ENDBRANCH   1  12
TORSDOF 4
ENDMDL
MODEL 6
REMARK VINA RESULT:    -5.875      2.577      5.557
REMARK INTER + INTRA:          -7.805
REMARK INTER:                  -8.020
REMARK INTRA:                   0.215
REMARK UNBOUND:                -0.556
REMARK  Name = 
REMARK  5 active torsions:
REMARK  status: ('A' for Active; 'I' for Inactive)
REMARK    1  A    between atoms: C_1  and  C_2
REMARK    2  A    between atoms: C_2  and  O_3
REMARK    3  A    between atoms: C_2  and  C_13
REMARK    4  A    between atoms: O_3  and  C_4
REMARK    5  A    between atoms: C_7  and  C_8
REMARK                            x       y       z     vdW  Elec       q    Type
REMARK                         _______ _______ _______ _____ _____    ______ ____
ROOT
ATOM      1  C   UNL     1      45.094   4.415  12.940  0.00  0.00    +0.000 A 
ATOM      2  C   UNL     1      45.007   5.803  12.885  0.00  0.00    +0.000 A 
ATOM      3  C   UNL     1      46.138   6.573  13.162  0.00  0.00    +0.000 A 
ATOM      4  C   UNL     1      47.325   5.923  13.479  0.00  0.00    +0.000 A 
ATOM      5  N   UNL     1      47.456   4.569  13.524  0.00  0.00    +0.000 NA
ATOM      6  C   UNL     1      46.332   3.859  13.259  0.00  0.00    +0.000 A 
ENDROOT
BRANCH   4   7
ATOM      7  C   UNL     1      48.539   6.731  13.823  0.00  0.00    +0.000 C 
ATOM      8  N   UNL     1      49.449   6.889  12.813  0.00  0.00    +0.000 N 
ATOM      9  O   UNL     1      48.718   7.215  14.932  0.00  0.00    +0.000 OA
ATOM     10  H   UNL     1      49.278   6.460  11.910  0.00  0.00    +0.000 HD
ATOM     11  H   UNL     1      50.302   7.401  12.988  0.00  0.00    +0.000 HD
ENDBRANCH   4   7
BRANCH   1  12
ATOM     12  O   UNL     1      44.061   3.539  12.773  0.00  0.00    +0.000 OA
BRANCH  12  14
ATOM     13  C   UNL     1      42.655   4.988  11.517  0.00  0.00    +0.000 C 
ATOM     14  C   UNL     1      43.317   3.609  11.542  0.00  0.00    +0.000 C 
BRANCH  14  15
ATOM     15  C   UNL     1      44.172   3.439  10.295  0.00  0.00    +0.000 A 
ATOM     16  C   UNL     1      44.571   4.530   9.524  0.00  0.00    +0.000 A 
ATOM     17  C   UNL     1      45.345   4.309   8.387  0.00  0.00    +0.000 A 
ATOM     18  C   UNL     1      45.694   3.010   8.041  0.00  0.00    +0.000 A 
ATOM     19  C   UNL     1      45.257   1.980   8.853  0.00  0.00    +0.000 A 
ATOM     20  N   UNL     1      44.511   2.164   9.966  0.00  0.00    +0.000 NA
ENDBRANCH  14  15
ENDBRANCH  12  14
ENDBRANCH   1  12
TORSDOF 4
ENDMDL
MODEL 7
REMARK VINA RESULT:    -5.614      3.817      6.125
REMARK INTER + INTRA:          -7.483
REMARK INTER:                  -7.016
REMARK INTRA:                  -0.467
REMARK UNBOUND:                -0.556
REMARK  Name = 
REMARK  5 active torsions:
REMARK  status: ('A' for Active; 'I' for Inactive)
REMARK    1  A    between atoms: C_1  and  C_2
REMARK    2  A    between atoms: C_2  and  O_3
REMARK    3  A    between atoms: C_2  and  C_13
REMARK    4  A    between atoms: O_3  and  C_4
REMARK    5  A    between atoms: C_7  and  C_8
REMARK                            x       y       z     vdW  Elec       q    Type
REMARK                         _______ _______ _______ _____ _____    ______ ____
ROOT
ATOM      1  C   UNL     1      46.774   4.364  13.820  0.00  0.00    +0.000 A 
ATOM      2  C   UNL     1      46.215   3.304  13.113  0.00  0.00    +0.000 A 
ATOM      3  C   UNL     1      45.122   3.536  12.276  0.00  0.00    +0.000 A 
ATOM      4  C   UNL     1      44.629   4.832  12.170  0.00  0.00    +0.000 A 
ATOM      5  N   UNL     1      45.160   5.898  12.829  0.00  0.00    +0.000 NA
ATOM      6  C   UNL     1      46.213   5.627  13.639  0.00  0.00    +0.000 A 
ENDROOT
BRANCH   4   7
ATOM      7  C   UNL     1      43.430   5.096  11.312  0.00  0.00    +0.000 C 
ATOM      8  N   UNL     1      43.629   4.970   9.963  0.00  0.00    +0.000 N 
ATOM      9  O   UNL     1      42.343   5.412  11.776  0.00  0.00    +0.000 OA
ATOM     10  H   UNL     1      44.548   4.724   9.611  0.00  0.00    +0.000 HD
ATOM     11  H   UNL     1      42.867   5.161   9.329  0.00  0.00    +0.000 HD
ENDBRANCH   4   7
BRANCH   1  12
ATOM     12  O   UNL     1      47.787   4.276  14.730  0.00  0.00    +0.000 OA
BRANCH  12  14
ATOM     13  C   UNL     1      48.307   2.696  16.429  0.00  0.00    +0.000 C 
ATOM     14  C   UNL     1      47.444   3.910  16.080  0.00  0.00    +0.000 C 
BRANCH  14  15
ATOM     15  C   UNL     1      47.691   5.013  17.099  0.00  0.00    +0.000 A 
ATOM     16  C   UNL     1      48.668   5.987  16.902  0.00  0.00    +0.000 A 
ATOM     17  C   UNL     1      48.854   6.965  17.878  0.00  0.00    +0.000 A 
ATOM     18  C   UNL     1      48.070   6.944  19.024  0.00  0.00    +0.000 A 
ATOM     19  C   UNL     1      47.125   5.943  19.148  0.00  0.00    +0.000 A 
ATOM     20  N   UNL     1      46.917   4.984  18.217  0.00  0.00    +0.000 NA
ENDBRANCH  14  15
ENDBRANCH  12  14
ENDBRANCH   1  12
TORSDOF 4
ENDMDL
MODEL 8
REMARK VINA RESULT:    -5.568      3.056      5.126
REMARK INTER + INTRA:          -7.426
REMARK INTER:                  -6.951
REMARK INTRA:                  -0.475
REMARK UNBOUND:                -0.556
REMARK  Name = 
REMARK  5 active torsions:
REMARK  status: ('A' for Active; 'I' for Inactive)
REMARK    1  A    between atoms: C_1  and  C_2
REMARK    2  A    between atoms: C_2  and  O_3
REMARK    3  A    between atoms: C_2  and  C_13
REMARK    4  A    between atoms: O_3  and  C_4
REMARK    5  A    between atoms: C_7  and  C_8
REMARK                            x       y       z     vdW  Elec       q    Type
REMARK                         _______ _______ _______ _____ _____    ______ ____
ROOT
ATOM      1  C   UNL     1      46.166   6.026  12.575  0.00  0.00    +0.000 A 
ATOM      2  C   UNL     1      45.788   6.033  11.236  0.00  0.00    +0.000 A 
ATOM      3  C   UNL     1      45.050   4.964  10.725  0.00  0.00    +0.000 A 
ATOM      4  C   UNL     1      44.709   3.922  11.579  0.00  0.00    +0.000 A 
ATOM      5  N   UNL     1      45.043   3.887  12.898  0.00  0.00    +0.000 NA
ATOM      6  C   UNL     1      45.768   4.939  13.351  0.00  0.00    +0.000 A 
ENDROOT
BRANCH   4   7
ATOM      7  C   UNL     1      43.956   2.744  11.041  0.00  0.00    +0.000 C 
ATOM      8  N   UNL     1      44.484   2.168   9.918  0.00  0.00    +0.000 N 
ATOM      9  O   UNL     1      42.931   2.323  11.560  0.00  0.00    +0.000 OA
ATOM     10  H   UNL     1      45.325   2.554   9.503  0.00  0.00    +0.000 HD
ATOM     11  H   UNL     1      44.009   1.386   9.490  0.00  0.00    +0.000 HD
ENDBRANCH   4   7
BRANCH   1  12
ATOM     12  O   UNL     1      46.951   6.956  13.192  0.00  0.00    +0.000 OA
BRANCH  12  14
ATOM     13  C   UNL     1      49.230   7.489  12.773  0.00  0.00    +0.000 C 
ATOM     14  C   UNL     1      48.290   6.568  13.553  0.00  0.00    +0.000 C 
BRANCH  14  15
ATOM     15  C   UNL     1      48.586   6.690  15.041  0.00  0.00    +0.000 A 
ATOM     16  C   UNL     1      48.874   7.920  15.633  0.00  0.00    +0.000 A 
ATOM     17  C   UNL     1      49.148   7.965  16.999  0.00  0.00    +0.000 A 
ATOM     18  C   UNL     1      49.137   6.789  17.736  0.00  0.00    +0.000 A 
ATOM     19  C   UNL     1      48.847   5.609  17.077  0.00  0.00    +0.000 A 
ATOM     20  N   UNL     1      48.571   5.534  15.755  0.00  0.00    +0.000 NA
ENDBRANCH  14  15
ENDBRANCH  12  14
ENDBRANCH   1  12
TORSDOF 4
ENDMDL
MODEL 9
REMARK VINA RESULT:    -5.246      4.386      8.060
REMARK INTER + INTRA:          -7.029
REMARK INTER:                  -6.554
REMARK INTRA:                  -0.476
REMARK UNBOUND:                -0.556
REMARK  Name = 
REMARK  5 active torsions:
REMARK  status: ('A' for Active; 'I' for Inactive)
REMARK    1  A    between atoms: C_1  and  C_2
REMARK    2  A    between atoms: C_2  and  O_3
REMARK    3  A    between atoms: C_2  and  C_13
REMARK    4  A    between atoms: O_3  and  C_4
REMARK    5  A    between atoms: C_7  and  C_8
REMARK                            x       y       z     vdW  Elec       q    Type
REMARK                         _______ _______ _______ _____ _____    ______ ____
ROOT
ATOM      1  C   UNL     1      47.715   4.915  15.329  0.00  0.00    +0.000 A 
ATOM      2  C   UNL     1      48.500   5.901  15.919  0.00  0.00    +0.000 A 
ATOM      3  C   UNL     1      48.603   5.957  17.310  0.00  0.00    +0.000 A 
ATOM      4  C   UNL     1      47.918   5.013  18.067  0.00  0.00    +0.000 A 
ATOM      5  N   UNL     1      47.156   4.022  17.527  0.00  0.00    +0.000 NA
ATOM      6  C   UNL     1      47.074   4.010  16.174  0.00  0.00    +0.000 A 
ENDROOT
BRANCH   4   7
ATOM      7  C   UNL     1      47.979   5.081  19.562  0.00  0.00    +0.000 C 
ATOM      8  N   UNL     1      46.962   5.771  20.164  0.00  0.00    +0.000 N 
ATOM      9  O   UNL     1      48.879   4.565  20.210  0.00  0.00    +0.000 OA
ATOM     10  H   UNL     1      46.241   6.202  19.595  0.00  0.00    +0.000 HD
ATOM     11  H   UNL     1      46.960   5.876  21.168  0.00  0.00    +0.000 HD
ENDBRANCH   4   7
BRANCH   1  12
ATOM     12  O   UNL     1      47.457   4.785  13.996  0.00  0.00    +0.000 OA
BRANCH  12  14
ATOM     13  C   UNL     1      47.166   6.646  12.543  0.00  0.00    +0.000 C 
ATOM     14  C   UNL     1      46.438   5.630  13.426  0.00  0.00    +0.000 C 
BRANCH  14  15
ATOM     15  C   UNL     1      45.413   4.879  12.589  0.00  0.00    +0.000 A 
ATOM     16  C   UNL     1      45.254   5.129  11.226  0.00  0.00    +0.000 A 
ATOM     17  C   UNL     1      44.290   4.416  10.516  0.00  0.00    +0.000 A 
ATOM     18  C   UNL     1      43.506   3.482  11.179  0.00  0.00    +0.000 A 
ATOM     19  C   UNL     1      43.720   3.294  12.532  0.00  0.00    +0.000 A 
ATOM     20  N   UNL     1      44.651   3.965  13.247  0.00  0.00    +0.000 NA
ENDBRANCH  14  15
ENDBRANCH  12  14
ENDBRANCH   1  12
TORSDOF 4
ENDMDL
