MODEL 1
REMARK VINA RESULT:    -8.993      0.000      0.000
REMARK INTER + INTRA:         -11.662
REMARK INTER:                 -11.096
REMARK INTRA:                  -0.566
REMARK UNBOUND:                -0.566
REMARK  Name = 
REMARK  4 active torsions:
REMARK  status: ('A' for Active; 'I' for Inactive)
REMARK    1  A    between atoms: C_2  and  C_3
REMARK    2  A    between atoms: N_7  and  C_8
REMARK    3  A    between atoms: C_8  and  C_9
REMARK    4  A    between atoms: C_13  and  C_14
REMARK                            x       y       z     vdW  Elec       q    Type
REMARK                         _______ _______ _______ _____ _____    ______ ____
ROOT
ATOM      1  C   UNL     1      43.961   4.825  11.340  0.00  0.00    +0.000 C 
ATOM      2  C   UNL     1      42.801   4.823  12.320  0.00  0.00    +0.000 C 
ATOM      3  C   UNL     1      42.976   5.973  11.380  0.00  0.00    +0.000 C 
ENDROOT
BRANCH   1   8
ATOM      4  C   UNL     1      46.621   2.558   7.481  0.00  0.00    +0.000 A 
ATOM      5  C   UNL     1      46.340   3.916   7.596  0.00  0.00    +0.000 A 
ATOM      6  C   UNL     1      45.490   4.353   8.620  0.00  0.00    +0.000 A 
ATOM      7  C   UNL     1      44.925   3.415   9.474  0.00  0.00    +0.000 A 
ATOM      8  N   UNL     1      43.884   3.719  10.358  0.00  0.00    +0.000 N 
ATOM      9  N   UNL     1      45.229   2.101   9.402  0.00  0.00    +0.000 NA
ATOM     10  C   UNL     1      46.068   1.699   8.417  0.00  0.00    +0.000 A 
ATOM     11  H   UNL     1      43.718   2.819  10.811  0.00  0.00    +0.000 HD
BRANCH   4  13
ATOM     12  N   UNL     1      48.063   1.611   5.550  0.00  0.00    +0.000 NA
ATOM     13  C   UNL     1      47.403   2.035   6.404  0.00  0.00    +0.000 C 
ENDBRANCH   4  13
ENDBRANCH   1   8
BRANCH   1  14
ATOM     14  C   UNL     1      45.391   5.051  11.807  0.00  0.00    +0.000 A 
ATOM     15  C   UNL     1      46.105   6.178  11.365  0.00  0.00    +0.000 A 
ATOM     16  C   UNL     1      47.173   6.680  12.104  0.00  0.00    +0.000 A 
ATOM     17  C   UNL     1      47.564   6.040  13.280  0.00  0.00    +0.000 A 
ATOM     18  C   UNL     1      46.948   4.849  13.698  0.00  0.00    +0.000 A 
ATOM     19  C   UNL     1      45.901   4.342  12.909  0.00  0.00    +0.000 A 
BRANCH  18  20
ATOM     20  C   UNL     1      47.284   4.211  14.984  0.00  0.00    +0.000 A 
ATOM     21  C   UNL     1      46.941   4.801  16.204  0.00  0.00    +0.000 A 
ATOM     22  C   UNL     1      47.227   4.132  17.390  0.00  0.00    +0.000 A 
ATOM     23  C   UNL     1      47.838   2.887  17.336  0.00  0.00    +0.000 A 
ATOM     24  C   UNL     1      48.131   2.359  16.090  0.00  0.00    +0.000 A 
ATOM     25  N   UNL     1      47.865   2.982  14.916  0.00  0.00    +0.000 NA
ENDBRANCH  18  20
ENDBRANCH   1  14
TORSDOF 4
ENDMDL
MODEL 2
REMARK VINA RESULT:    -8.605      1.859      3.148
REMARK INTER + INTRA:         -11.184
REMARK INTER:                 -10.057
REMARK INTRA:                  -1.127
REMARK UNBOUND:                -0.566
REMARK  Name = 
REMARK  4 active torsions:
REMARK  status: ('A' for Active; 'I' for Inactive)
REMARK    1  A    between atoms: C_2  and  C_3
REMARK    2  A    between atoms: N_7  and  C_8
REMARK    3  A    between atoms: C_8  and  C_9
REMARK    4  A    between atoms: C_13  and  C_14
REMARK                            x       y       z     vdW  Elec       q    Type
REMARK                         _______ _______ _______ _____ _____    ______ ____
ROOT
ATOM      1  C   UNL     1      43.667   5.094  11.265  0.00  0.00    +0.000 C 
ATOM      2  C   UNL     1      42.281   5.526  11.708  0.00  0.00    +0.000 C 
ATOM      3  C   UNL     1      43.160   6.490  10.976  0.00  0.00    +0.000 C 
ENDROOT
BRANCH   1   8
ATOM      4  C   UNL     1      46.599   2.675   7.707  0.00  0.00    +0.000 A 
ATOM      5  C   UNL     1      46.387   4.046   7.799  0.00  0.00    +0.000 A 
ATOM      6  C   UNL     1      45.456   4.532   8.726  0.00  0.00    +0.000 A 
ATOM      7  C   UNL     1      44.747   3.629   9.507  0.00  0.00    +0.000 A 
ATOM      8  N   UNL     1      43.635   3.993  10.273  0.00  0.00    +0.000 N 
ATOM      9  N   UNL     1      44.980   2.300   9.461  0.00  0.00    +0.000 NA
ATOM     10  C   UNL     1      45.898   1.849   8.571  0.00  0.00    +0.000 A 
ATOM     11  H   UNL     1      43.368   3.105  10.700  0.00  0.00    +0.000 HD
BRANCH   4  13
ATOM     12  N   UNL     1      48.158   1.616   5.931  0.00  0.00    +0.000 NA
ATOM     13  C   UNL     1      47.463   2.106   6.719  0.00  0.00    +0.000 C 
ENDBRANCH   4  13
ENDBRANCH   1   8
BRANCH   1  14
ATOM     14  C   UNL     1      44.795   4.901  12.267  0.00  0.00    +0.000 A 
ATOM     15  C   UNL     1      45.053   3.626  12.798  0.00  0.00    +0.000 A 
ATOM     16  C   UNL     1      46.310   3.305  13.303  0.00  0.00    +0.000 A 
ATOM     17  C   UNL     1      47.320   4.268  13.315  0.00  0.00    +0.000 A 
ATOM     18  C   UNL     1      47.071   5.585  12.895  0.00  0.00    +0.000 A 
ATOM     19  C   UNL     1      45.780   5.892  12.431  0.00  0.00    +0.000 A 
BRANCH  18  20
ATOM     20  C   UNL     1      48.147   6.590  12.812  0.00  0.00    +0.000 A 
ATOM     21  C   UNL     1      48.255   7.457  11.721  0.00  0.00    +0.000 A 
ATOM     22  C   UNL     1      49.252   8.427  11.715  0.00  0.00    +0.000 A 
ATOM     23  C   UNL     1      50.113   8.520  12.799  0.00  0.00    +0.000 A 
ATOM     24  C   UNL     1      49.933   7.637  13.852  0.00  0.00    +0.000 A 
ATOM     25  N   UNL     1      48.972   6.683  13.890  0.00  0.00    +0.000 NA
ENDBRANCH  18  20
ENDBRANCH   1  14
TORSDOF 4
ENDMDL
MODEL 3
REMARK VINA RESULT:    -7.054      2.792      6.790
REMARK INTER + INTRA:          -9.270
REMARK INTER:                  -8.211
REMARK INTRA:                  -1.059
REMARK UNBOUND:                -0.566
REMARK  Name = 
REMARK  4 active torsions:
REMARK  status: ('A' for Active; 'I' for Inactive)
REMARK    1  A    between atoms: C_2  and  C_3
REMARK    2  A    between atoms: N_7  and  C_8
REMARK    3  A    between atoms: C_8  and  C_9
REMARK    4  A    between atoms: C_13  and  C_14
REMARK                            x       y       z     vdW  Elec       q    Type
REMARK                         _______ _______ _______ _____ _____    ______ ____
ROOT
ATOM      1  C   UNL     1      46.278   4.845  13.728  0.00  0.00    +0.000 C 
ATOM      2  C   UNL     1      46.369   4.053  15.020  0.00  0.00    +0.000 C 
ATOM      3  C   UNL     1      47.415   3.876  13.966  0.00  0.00    +0.000 C 
ENDROOT
BRANCH   1   8
ATOM      4  C   UNL     1      48.460   9.134  11.743  0.00  0.00    +0.000 A 
ATOM      5  C   UNL     1      49.117   7.947  12.049  0.00  0.00    +0.000 A 
ATOM      6  C   UNL     1      48.416   6.930  12.711  0.00  0.00    +0.000 A 
ATOM      7  C   UNL     1      47.093   7.148  13.072  0.00  0.00    +0.000 A 
ATOM      8  N   UNL     1      46.392   6.306  13.942  0.00  0.00    +0.000 N 
ATOM      9  N   UNL     1      46.432   8.276  12.736  0.00  0.00    +0.000 NA
ATOM     10  C   UNL     1      47.120   9.241  12.079  0.00  0.00    +0.000 A 
ATOM     11  H   UNL     1      45.478   6.757  13.987  0.00  0.00    +0.000 HD
BRANCH   4  13
ATOM     12  N   UNL     1      49.719  11.132  10.680  0.00  0.00    +0.000 NA
ATOM     13  C   UNL     1      49.140  10.246  11.154  0.00  0.00    +0.000 C 
ENDBRANCH   4  13
ENDBRANCH   1   8
BRANCH   1  14
ATOM     14  C   UNL     1      45.229   4.522  12.674  0.00  0.00    +0.000 A 
ATOM     15  C   UNL     1      44.018   5.234  12.646  0.00  0.00    +0.000 A 
ATOM     16  C   UNL     1      43.274   5.328  11.474  0.00  0.00    +0.000 A 
ATOM     17  C   UNL     1      43.714   4.683  10.318  0.00  0.00    +0.000 A 
ATOM     18  C   UNL     1      44.861   3.871  10.333  0.00  0.00    +0.000 A 
ATOM     19  C   UNL     1      45.568   3.759  11.542  0.00  0.00    +0.000 A 
BRANCH  18  20
ATOM     20  C   UNL     1      45.393   3.258   9.102  0.00  0.00    +0.000 A 
ATOM     21  C   UNL     1      45.727   4.030   7.986  0.00  0.00    +0.000 A 
ATOM     22  C   UNL     1      46.282   3.413   6.869  0.00  0.00    +0.000 A 
ATOM     23  C   UNL     1      46.501   2.043   6.891  0.00  0.00    +0.000 A 
ATOM     24  C   UNL     1      46.160   1.347   8.039  0.00  0.00    +0.000 A 
ATOM     25  N   UNL     1      45.621   1.917   9.144  0.00  0.00    +0.000 NA
ENDBRANCH  18  20
ENDBRANCH   1  14
TORSDOF 4
ENDMDL
MODEL 4
REMARK VINA RESULT:    -6.993      2.756      8.032
REMARK INTER + INTRA:          -9.194
REMARK INTER:                  -8.199
REMARK INTRA:                  -0.995
REMARK UNBOUND:                -0.566
REMARK  Name = 
REMARK  4 active torsions:
REMARK  status: ('A' for Active; 'I' for Inactive)
REMARK    1  A    between atoms: C_2  and  C_3
REMARK    2  A    between atoms: N_7  and  C_8
REMARK    3  A    between atoms: C_8  and  C_9
REMARK    4  A    between atoms: C_13  and  C_14
REMARK                            x       y       z     vdW  Elec       q    Type
REMARK                         _______ _______ _______ _____ _____    ______ ____
ROOT
ATOM      1  C   UNL     1      48.912   7.785  12.624  0.00  0.00    +0.000 C 
ATOM      2  C   UNL     1      49.783   7.838  11.382  0.00  0.00    +0.000 C 
ATOM      3  C   UNL     1      49.460   9.100  12.115  0.00  0.00    +0.000 C 
ENDROOT
BRANCH   1   8
ATOM      4  C   UNL     1      48.611   6.985  17.760  0.00  0.00    +0.000 A 
ATOM      5  C   UNL     1      48.701   8.220  17.126  0.00  0.00    +0.000 A 
ATOM      6  C   UNL     1      48.919   8.263  15.743  0.00  0.00    +0.000 A 
ATOM      7  C   UNL     1      49.070   7.072  15.046  0.00  0.00    +0.000 A 
ATOM      8  N   UNL     1      49.532   7.015  13.727  0.00  0.00    +0.000 N 
ATOM      9  N   UNL     1      48.935   5.868  15.642  0.00  0.00    +0.000 NA
ATOM     10  C   UNL     1      48.706   5.845  16.977  0.00  0.00    +0.000 A 
ATOM     11  H   UNL     1      49.525   6.011  13.541  0.00  0.00    +0.000 HD
BRANCH   4  13
ATOM     12  N   UNL     1      48.349   6.770  20.327  0.00  0.00    +0.000 NA
ATOM     13  C   UNL     1      48.484   6.868  19.179  0.00  0.00    +0.000 C 
ENDBRANCH   4  13
ENDBRANCH   1   8
BRANCH   1  14
ATOM     14  C   UNL     1      47.418   7.513  12.532  0.00  0.00    +0.000 A 
ATOM     15  C   UNL     1      46.499   8.552  12.757  0.00  0.00    +0.000 A 
ATOM     16  C   UNL     1      45.213   8.494  12.227  0.00  0.00    +0.000 A 
ATOM     17  C   UNL     1      44.816   7.377  11.491  0.00  0.00    +0.000 A 
ATOM     18  C   UNL     1      45.667   6.270  11.337  0.00  0.00    +0.000 A 
ATOM     19  C   UNL     1      46.944   6.339  11.919  0.00  0.00    +0.000 A 
BRANCH  18  20
ATOM     20  C   UNL     1      45.301   5.123  10.485  0.00  0.00    +0.000 A 
ATOM     21  C   UNL     1      45.671   5.065   9.138  0.00  0.00    +0.000 A 
ATOM     22  C   UNL     1      45.354   3.935   8.391  0.00  0.00    +0.000 A 
ATOM     23  C   UNL     1      44.685   2.885   9.002  0.00  0.00    +0.000 A 
ATOM     24  C   UNL     1      44.367   3.007  10.345  0.00  0.00    +0.000 A 
ATOM     25  N   UNL     1      44.663   4.092  11.102  0.00  0.00    +0.000 NA
ENDBRANCH  18  20
ENDBRANCH   1  14
TORSDOF 4
ENDMDL
MODEL 5
REMARK VINA RESULT:    -6.493      1.747      7.115
REMARK INTER + INTRA:          -8.577
REMARK INTER:                  -8.733
REMARK INTRA:                   0.156
REMARK UNBOUND:                -0.566
REMARK  Name = 
REMARK  4 active torsions:
REMARK  status: ('A' for Active; 'I' for Inactive)
REMARK    1  A    between atoms: C_2  and  C_3
REMARK    2  A    between atoms: N_7  and  C_8
REMARK    3  A    between atoms: C_8  and  C_9
REMARK    4  A    between atoms: C_13  and  C_14
REMARK                            x       y       z     vdW  Elec       q    Type
REMARK                         _______ _______ _______ _____ _____    ______ ____
ROOT
ATOM      1  C   UNL     1      44.553   3.464  12.297  0.00  0.00    +0.000 C 
ATOM      2  C   UNL     1      43.453   3.920  13.239  0.00  0.00    +0.000 C 
ATOM      3  C   UNL     1      43.311   2.625  12.506  0.00  0.00    +0.000 C 
ENDROOT
BRANCH   1   8
ATOM      4  C   UNL     1      48.123   5.764  15.308  0.00  0.00    +0.000 A 
ATOM      5  C   UNL     1      47.632   6.250  14.101  0.00  0.00    +0.000 A 
ATOM      6  C   UNL     1      46.777   5.445  13.337  0.00  0.00    +0.000 A 
ATOM      7  C   UNL     1      46.468   4.170  13.791  0.00  0.00    +0.000 A 
ATOM      8  N   UNL     1      45.835   3.210  12.993  0.00  0.00    +0.000 N 
ATOM      9  N   UNL     1      46.899   3.706  14.983  0.00  0.00    +0.000 NA
ATOM     10  C   UNL     1      47.709   4.506  15.718  0.00  0.00    +0.000 A 
ATOM     11  H   UNL     1      45.773   2.412  13.627  0.00  0.00    +0.000 HD
BRANCH   4  13
ATOM     12  N   UNL     1      49.854   7.058  16.734  0.00  0.00    +0.000 NA
ATOM     13  C   UNL     1      49.072   6.494  16.090  0.00  0.00    +0.000 C 
ENDBRANCH   4  13
ENDBRANCH   1   8
BRANCH   1  14
ATOM     14  C   UNL     1      44.778   4.143  10.954  0.00  0.00    +0.000 A 
ATOM     15  C   UNL     1      45.002   5.529  10.897  0.00  0.00    +0.000 A 
ATOM     16  C   UNL     1      45.674   6.099   9.819  0.00  0.00    +0.000 A 
ATOM     17  C   UNL     1      46.103   5.293   8.764  0.00  0.00    +0.000 A 
ATOM     18  C   UNL     1      45.802   3.921   8.731  0.00  0.00    +0.000 A 
ATOM     19  C   UNL     1      45.085   3.381   9.812  0.00  0.00    +0.000 A 
BRANCH  18  20
ATOM     20  C   UNL     1      46.327   3.037   7.674  0.00  0.00    +0.000 A 
ATOM     21  C   UNL     1      46.647   3.527   6.404  0.00  0.00    +0.000 A 
ATOM     22  C   UNL     1      47.194   2.666   5.458  0.00  0.00    +0.000 A 
ATOM     23  C   UNL     1      47.421   1.340   5.800  0.00  0.00    +0.000 A 
ATOM     24  C   UNL     1      47.095   0.933   7.083  0.00  0.00    +0.000 A 
ATOM     25  N   UNL     1      46.563   1.745   8.028  0.00  0.00    +0.000 NA
ENDBRANCH  18  20
ENDBRANCH   1  14
TORSDOF 4
ENDMDL
MODEL 6
REMARK VINA RESULT:    -6.393      2.656      4.616
REMARK INTER + INTRA:          -8.454
REMARK INTER:                  -8.029
REMARK INTRA:                  -0.425
REMARK UNBOUND:                -0.566
REMARK  Name = 
REMARK  4 active torsions:
REMARK  status: ('A' for Active; 'I' for Inactive)
REMARK    1  A    between atoms: C_2  and  C_3
REMARK    2  A    between atoms: N_7  and  C_8
REMARK    3  A    between atoms: C_8  and  C_9
REMARK    4  A    between atoms: C_13  and  C_14
REMARK                            x       y       z     vdW  Elec       q    Type
REMARK                         _______ _______ _______ _____ _____    ______ ____
ROOT
ATOM      1  C   UNL     1      47.536   8.456  13.321  0.00  0.00    +0.000 C 
ATOM      2  C   UNL     1      47.502   9.822  12.658  0.00  0.00    +0.000 C 
ATOM      3  C   UNL     1      48.326   8.727  12.060  0.00  0.00    +0.000 C 
ENDROOT
BRANCH   1   8
ATOM      4  C   UNL     1      44.959   4.414  11.290  0.00  0.00    +0.000 A 
ATOM      5  C   UNL     1      45.680   5.368  10.579  0.00  0.00    +0.000 A 
ATOM      6  C   UNL     1      46.200   6.477  11.258  0.00  0.00    +0.000 A 
ATOM      7  C   UNL     1      45.955   6.611  12.618  0.00  0.00    +0.000 A 
ATOM      8  N   UNL     1      46.213   7.789  13.327  0.00  0.00    +0.000 N 
ATOM      9  N   UNL     1      45.299   5.667  13.327  0.00  0.00    +0.000 NA
ATOM     10  C   UNL     1      44.819   4.591  12.657  0.00  0.00    +0.000 A 
ATOM     11  H   UNL     1      45.917   7.540  14.272  0.00  0.00    +0.000 HD
BRANCH   4  13
ATOM     12  N   UNL     1      43.817   2.422  10.092  0.00  0.00    +0.000 NA
ATOM     13  C   UNL     1      44.322   3.308  10.644  0.00  0.00    +0.000 C 
ENDBRANCH   4  13
ENDBRANCH   1   8
BRANCH   1  14
ATOM     14  C   UNL     1      48.274   8.231  14.632  0.00  0.00    +0.000 A 
ATOM     15  C   UNL     1      48.286   9.237  15.613  0.00  0.00    +0.000 A 
ATOM     16  C   UNL     1      48.503   8.923  16.952  0.00  0.00    +0.000 A 
ATOM     17  C   UNL     1      48.743   7.601  17.325  0.00  0.00    +0.000 A 
ATOM     18  C   UNL     1      48.848   6.583  16.362  0.00  0.00    +0.000 A 
ATOM     19  C   UNL     1      48.668   6.936  15.014  0.00  0.00    +0.000 A 
BRANCH  18  20
ATOM     20  C   UNL     1      49.008   5.168  16.744  0.00  0.00    +0.000 A 
ATOM     21  C   UNL     1      47.940   4.267  16.677  0.00  0.00    +0.000 A 
ATOM     22  C   UNL     1      48.155   2.929  16.991  0.00  0.00    +0.000 A 
ATOM     23  C   UNL     1      49.428   2.514  17.354  0.00  0.00    +0.000 A 
ATOM     24  C   UNL     1      50.439   3.460  17.380  0.00  0.00    +0.000 A 
ATOM     25  N   UNL     1      50.266   4.770  17.079  0.00  0.00    +0.000 NA
ENDBRANCH  18  20
ENDBRANCH   1  14
TORSDOF 4
ENDMDL
