MODEL 1
REMARK VINA RESULT:    -7.837      0.000      0.000
REMARK INTER + INTRA:         -11.697
REMARK INTER:                 -10.585
REMARK INTRA:                  -1.112
REMARK UNBOUND:                -1.112
REMARK  Name = 
REMARK  6 active torsions:
REMARK  status: ('A' for Active; 'I' for Inactive)
REMARK    1  A    between atoms: C_2  and  C_25
REMARK    2  A    between atoms: N_3  and  C_4
REMARK    3  A    between atoms: C_4  and  C_5
REMARK    4  A    between atoms: C_8  and  C_9
REMARK    5  A    between atoms: C_9  and  N_10
REMARK    6  A    between atoms: C_11  and  C_13
REMARK                            x       y       z     vdW  Elec       q    Type
REMARK                         _______ _______ _______ _____ _____    ______ ____
ROOT
ATOM      1  C   UNL     1      44.998   5.963  10.933  0.00  0.00    +0.000 A 
ATOM      2  C   UNL     1      44.377   6.675  11.968  0.00  0.00    +0.000 A 
ATOM      3  C   UNL     1      45.132   7.456  12.852  0.00  0.00    +0.000 A 
ATOM      4  C   UNL     1      46.521   7.557  12.707  0.00  0.00    +0.000 A 
ATOM      5  C   UNL     1      47.142   6.843  11.674  0.00  0.00    +0.000 A 
ATOM      6  C   UNL     1      46.388   6.064  10.789  0.00  0.00    +0.000 A 
ENDROOT
BRANCH   1   7
ATOM      7  C   UNL     1      44.198   5.065  10.028  0.00  0.00    +0.000 C 
BRANCH   7  10
ATOM      8  O   UNL     1      44.933   2.453   9.791  0.00  0.00    +0.000 OA
ATOM      9  C   UNL     1      45.285   3.205   8.883  0.00  0.00    +0.000 C 
ATOM     10  N   UNL     1      44.950   4.547   8.911  0.00  0.00    +0.000 N 
ATOM     11  H   UNL     1      45.223   5.151   8.148  0.00  0.00    +0.000 HD
BRANCH   9  12
ATOM     12  C   UNL     1      46.065   2.730   7.747  0.00  0.00    +0.000 A 
ATOM     13  C   UNL     1      46.331   3.446   6.591  0.00  0.00    +0.000 A 
ATOM     14  C   UNL     1      47.097   2.709   5.645  0.00  0.00    +0.000 A 
ATOM     15  C   UNL     1      47.397   1.448   6.108  0.00  0.00    +0.000 A 
ATOM     16  S   UNL     1      46.768   1.171   7.677  0.00  0.00    +0.000 S 
ENDBRANCH   9  12
ENDBRANCH   7  10
ENDBRANCH   1   7
BRANCH   4  17
ATOM     17  C   UNL     1      47.345   8.381  13.663  0.00  0.00    +0.000 C 
BRANCH  17  18
ATOM     18  N   UNL     1      47.704   7.623  14.837  0.00  0.00    +0.000 N 
ATOM     19  C   UNL     1      48.903   6.960  14.916  0.00  0.00    +0.000 C 
ATOM     20  O   UNL     1      49.746   7.032  14.026  0.00  0.00    +0.000 OA
ATOM     21  H   UNL     1      46.950   7.365  15.465  0.00  0.00    +0.000 HD
BRANCH  19  22
ATOM     22  C   UNL     1      49.157   6.203  16.149  0.00  0.00    +0.000 A 
ATOM     23  C   UNL     1      50.200   6.576  16.986  0.00  0.00    +0.000 A 
ATOM     24  S   UNL     1      50.327   5.621  18.393  0.00  0.00    +0.000 S 
ATOM     25  C   UNL     1      49.023   4.639  17.910  0.00  0.00    +0.000 A 
ATOM     26  N   UNL     1      48.616   3.590  18.673  0.00  0.00    +0.000 NA
ATOM     27  C   UNL     1      47.634   2.916  18.177  0.00  0.00    +0.000 A 
ATOM     28  N   UNL     1      47.019   3.198  16.984  0.00  0.00    +0.000 N 
ATOM     29  C   UNL     1      47.377   4.262  16.193  0.00  0.00    +0.000 A 
ATOM     30  O   UNL     1      46.782   4.508  15.147  0.00  0.00    +0.000 OA
ATOM     31  C   UNL     1      48.484   5.049  16.702  0.00  0.00    +0.000 A 
ATOM     32  H   UNL     1      46.247   2.637  16.654  0.00  0.00    +0.000 HD
ENDBRANCH  19  22
ENDBRANCH  17  18
ENDBRANCH   4  17
TORSDOF 6
ENDMDL
MODEL 2
REMARK VINA RESULT:    -7.282      1.273      1.592
REMARK INTER + INTRA:         -10.948
REMARK INTER:                 -10.016
REMARK INTRA:                  -0.932
REMARK UNBOUND:                -1.112
REMARK  Name = 
REMARK  6 active torsions:
REMARK  status: ('A' for Active; 'I' for Inactive)
REMARK    1  A    between atoms: C_2  and  C_25
REMARK    2  A    between atoms: N_3  and  C_4
REMARK    3  A    between atoms: C_4  and  C_5
REMARK    4  A    between atoms: C_8  and  C_9
REMARK    5  A    between atoms: C_9  and  N_10
REMARK    6  A    between atoms: C_11  and  C_13
REMARK                            x       y       z     vdW  Elec       q    Type
REMARK                         _______ _______ _______ _____ _____    ______ ____
ROOT
ATOM      1  C   UNL     1      45.084   6.240  11.362  0.00  0.00    +0.000 A 
ATOM      2  C   UNL     1      46.222   5.702  11.978  0.00  0.00    +0.000 A 
ATOM      3  C   UNL     1      47.022   6.489  12.816  0.00  0.00    +0.000 A 
ATOM      4  C   UNL     1      46.687   7.825  13.072  0.00  0.00    +0.000 A 
ATOM      5  C   UNL     1      45.550   8.362  12.455  0.00  0.00    +0.000 A 
ATOM      6  C   UNL     1      44.751   7.576  11.620  0.00  0.00    +0.000 A 
ENDROOT
BRANCH   1   7
ATOM      7  C   UNL     1      44.266   5.418  10.403  0.00  0.00    +0.000 C 
BRANCH   7  10
ATOM      8  O   UNL     1      44.291   2.708  10.130  0.00  0.00    +0.000 OA
ATOM      9  C   UNL     1      45.008   3.342   9.358  0.00  0.00    +0.000 C 
ATOM     10  N   UNL     1      45.054   4.724   9.414  0.00  0.00    +0.000 N 
ATOM     11  H   UNL     1      45.627   5.236   8.758  0.00  0.00    +0.000 HD
BRANCH   9  12
ATOM     12  C   UNL     1      45.838   2.682   8.358  0.00  0.00    +0.000 A 
ATOM     13  C   UNL     1      46.085   1.322   8.281  0.00  0.00    +0.000 A 
ATOM     14  C   UNL     1      46.958   0.976   7.211  0.00  0.00    +0.000 A 
ATOM     15  C   UNL     1      47.351   2.086   6.498  0.00  0.00    +0.000 A 
ATOM     16  S   UNL     1      46.658   3.526   7.113  0.00  0.00    +0.000 S 
ENDBRANCH   9  12
ENDBRANCH   7  10
ENDBRANCH   1   7
BRANCH   4  17
ATOM     17  C   UNL     1      47.550   8.686  13.960  0.00  0.00    +0.000 C 
BRANCH  17  18
ATOM     18  N   UNL     1      47.795   8.051  15.232  0.00  0.00    +0.000 N 
ATOM     19  C   UNL     1      49.030   8.104  15.828  0.00  0.00    +0.000 C 
ATOM     20  O   UNL     1      49.960   8.742  15.341  0.00  0.00    +0.000 OA
ATOM     21  H   UNL     1      47.129   7.344  15.527  0.00  0.00    +0.000 HD
BRANCH  19  22
ATOM     22  C   UNL     1      49.172   7.406  17.112  0.00  0.00    +0.000 A 
ATOM     23  C   UNL     1      49.638   8.095  18.224  0.00  0.00    +0.000 A 
ATOM     24  S   UNL     1      49.699   7.148  19.642  0.00  0.00    +0.000 S 
ATOM     25  C   UNL     1      49.154   5.767  18.809  0.00  0.00    +0.000 A 
ATOM     26  N   UNL     1      49.006   4.577  19.449  0.00  0.00    +0.000 NA
ATOM     27  C   UNL     1      48.610   3.609  18.694  0.00  0.00    +0.000 A 
ATOM     28  N   UNL     1      48.347   3.724  17.353  0.00  0.00    +0.000 N 
ATOM     29  C   UNL     1      48.457   4.910  16.669  0.00  0.00    +0.000 A 
ATOM     30  O   UNL     1      48.179   4.987  15.476  0.00  0.00    +0.000 OA
ATOM     31  C   UNL     1      48.907   6.031  17.473  0.00  0.00    +0.000 A 
ATOM     32  H   UNL     1      48.029   2.929  16.817  0.00  0.00    +0.000 HD
ENDBRANCH  19  22
ENDBRANCH  17  18
ENDBRANCH   4  17
TORSDOF 6
ENDMDL
MODEL 3
REMARK VINA RESULT:    -7.112      1.913      2.313
REMARK INTER + INTRA:         -10.719
REMARK INTER:                  -9.833
REMARK INTRA:                  -0.886
REMARK UNBOUND:                -1.112
REMARK  Name = 
REMARK  6 active torsions:
REMARK  status: ('A' for Active; 'I' for Inactive)
REMARK    1  A    between atoms: C_2  and  C_25
REMARK    2  A    between atoms: N_3  and  C_4
REMARK    3  A    between atoms: C_4  and  C_5
REMARK    4  A    between atoms: C_8  and  C_9
REMARK    5  A    between atoms: C_9  and  N_10
REMARK    6  A    between atoms: C_11  and  C_13
REMARK                            x       y       z     vdW  Elec       q    Type
REMARK                         _______ _______ _______ _____ _____    ______ ____
ROOT
ATOM      1  C   UNL     1      44.659   5.293  11.545  0.00  0.00    +0.000 A 
ATOM      2  C   UNL     1      44.268   6.558  11.084  0.00  0.00    +0.000 A 
ATOM      3  C   UNL     1      44.844   7.720  11.612  0.00  0.00    +0.000 A 
ATOM      4  C   UNL     1      45.838   7.640  12.596  0.00  0.00    +0.000 A 
ATOM      5  C   UNL     1      46.226   6.376  13.057  0.00  0.00    +0.000 A 
ATOM      6  C   UNL     1      45.652   5.215  12.529  0.00  0.00    +0.000 A 
ENDROOT
BRANCH   1   7
ATOM      7  C   UNL     1      43.989   4.046  11.033  0.00  0.00    +0.000 C 
BRANCH   7  10
ATOM      8  O   UNL     1      44.456   4.414   8.375  0.00  0.00    +0.000 OA
ATOM      9  C   UNL     1      45.025   3.459   8.904  0.00  0.00    +0.000 C 
ATOM     10  N   UNL     1      44.856   3.199  10.252  0.00  0.00    +0.000 N 
ATOM     11  H   UNL     1      45.348   2.427  10.681  0.00  0.00    +0.000 HD
BRANCH   9  12
ATOM     12  C   UNL     1      45.892   2.563   8.149  0.00  0.00    +0.000 A 
ATOM     13  C   UNL     1      45.975   1.190   8.310  0.00  0.00    +0.000 A 
ATOM     14  C   UNL     1      46.933   0.587   7.447  0.00  0.00    +0.000 A 
ATOM     15  C   UNL     1      47.554   1.520   6.647  0.00  0.00    +0.000 A 
ATOM     16  S   UNL     1      46.969   3.104   6.933  0.00  0.00    +0.000 S 
ENDBRANCH   9  12
ENDBRANCH   7  10
ENDBRANCH   1   7
BRANCH   4  17
ATOM     17  C   UNL     1      46.453   8.886  13.183  0.00  0.00    +0.000 C 
BRANCH  17  18
ATOM     18  N   UNL     1      46.945   8.651  14.518  0.00  0.00    +0.000 N 
ATOM     19  C   UNL     1      48.171   9.120  14.917  0.00  0.00    +0.000 C 
ATOM     20  O   UNL     1      48.874   9.810  14.183  0.00  0.00    +0.000 OA
ATOM     21  H   UNL     1      46.499   7.909  15.047  0.00  0.00    +0.000 HD
BRANCH  19  22
ATOM     22  C   UNL     1      48.580   8.806  16.293  0.00  0.00    +0.000 A 
ATOM     23  C   UNL     1      48.696   9.826  17.228  0.00  0.00    +0.000 A 
ATOM     24  S   UNL     1      49.136   9.283  18.784  0.00  0.00    +0.000 S 
ATOM     25  C   UNL     1      49.240   7.670  18.252  0.00  0.00    +0.000 A 
ATOM     26  N   UNL     1      49.603   6.674  19.103  0.00  0.00    +0.000 NA
ATOM     27  C   UNL     1      49.664   5.503  18.563  0.00  0.00    +0.000 A 
ATOM     28  N   UNL     1      49.394   5.239  17.244  0.00  0.00    +0.000 N 
ATOM     29  C   UNL     1      48.998   6.207  16.354  0.00  0.00    +0.000 A 
ATOM     30  O   UNL     1      48.728   5.930  15.189  0.00  0.00    +0.000 OA
ATOM     31  C   UNL     1      48.920   7.545  16.911  0.00  0.00    +0.000 A 
ATOM     32  H   UNL     1      49.450   4.298  16.883  0.00  0.00    +0.000 HD
ENDBRANCH  19  22
ENDBRANCH  17  18
ENDBRANCH   4  17
TORSDOF 6
ENDMDL
MODEL 4
REMARK VINA RESULT:    -7.017      2.386      2.706
REMARK INTER + INTRA:         -10.590
REMARK INTER:                  -9.644
REMARK INTRA:                  -0.946
REMARK UNBOUND:                -1.112
REMARK  Name = 
REMARK  6 active torsions:
REMARK  status: ('A' for Active; 'I' for Inactive)
REMARK    1  A    between atoms: C_2  and  C_25
REMARK    2  A    between atoms: N_3  and  C_4
REMARK    3  A    between atoms: C_4  and  C_5
REMARK    4  A    between atoms: C_8  and  C_9
REMARK    5  A    between atoms: C_9  and  N_10
REMARK    6  A    between atoms: C_11  and  C_13
REMARK                            x       y       z     vdW  Elec       q    Type
REMARK                         _______ _______ _______ _____ _____    ______ ____
ROOT
ATOM      1  C   UNL     1      45.510   4.217  12.427  0.00  0.00    +0.000 A 
ATOM      2  C   UNL     1      45.513   5.613  12.302  0.00  0.00    +0.000 A 
ATOM      3  C   UNL     1      46.291   6.406  13.154  0.00  0.00    +0.000 A 
ATOM      4  C   UNL     1      47.100   5.818  14.135  0.00  0.00    +0.000 A 
ATOM      5  C   UNL     1      47.096   4.423  14.261  0.00  0.00    +0.000 A 
ATOM      6  C   UNL     1      46.319   3.630  13.409  0.00  0.00    +0.000 A 
ENDROOT
BRANCH   1   7
ATOM      7  C   UNL     1      44.618   3.367  11.562  0.00  0.00    +0.000 C 
BRANCH   7  10
ATOM      8  O   UNL     1      44.767   4.415   9.053  0.00  0.00    +0.000 OA
ATOM      9  C   UNL     1      45.322   3.330   9.227  0.00  0.00    +0.000 C 
ATOM     10  N   UNL     1      45.308   2.725  10.470  0.00  0.00    +0.000 N 
ATOM     11  H   UNL     1      45.788   1.846  10.608  0.00  0.00    +0.000 HD
BRANCH   9  12
ATOM     12  C   UNL     1      46.011   2.634   8.147  0.00  0.00    +0.000 A 
ATOM     13  C   UNL     1      46.314   1.283   8.119  0.00  0.00    +0.000 A 
ATOM     14  C   UNL     1      47.017   0.897   6.943  0.00  0.00    +0.000 A 
ATOM     15  C   UNL     1      47.228   1.967   6.103  0.00  0.00    +0.000 A 
ATOM     16  S   UNL     1      46.568   3.418   6.731  0.00  0.00    +0.000 S 
ENDBRANCH   9  12
ENDBRANCH   7  10
ENDBRANCH   1   7
BRANCH   4  17
ATOM     17  C   UNL     1      47.929   6.664  15.068  0.00  0.00    +0.000 C 
BRANCH  17  18
ATOM     18  N   UNL     1      49.053   5.924  15.590  0.00  0.00    +0.000 N 
ATOM     19  C   UNL     1      49.324   5.896  16.935  0.00  0.00    +0.000 C 
ATOM     20  O   UNL     1      48.592   6.441  17.757  0.00  0.00    +0.000 OA
ATOM     21  H   UNL     1      49.781   5.670  14.929  0.00  0.00    +0.000 HD
BRANCH  19  22
ATOM     22  C   UNL     1      50.505   5.128  17.353  0.00  0.00    +0.000 A 
ATOM     23  C   UNL     1      51.633   5.795  17.811  0.00  0.00    +0.000 A 
ATOM     24  S   UNL     1      52.895   4.754  18.296  0.00  0.00    +0.000 S 
ATOM     25  C   UNL     1      51.997   3.375  17.861  0.00  0.00    +0.000 A 
ATOM     26  N   UNL     1      52.519   2.127  18.002  0.00  0.00    +0.000 NA
ATOM     27  C   UNL     1      51.741   1.174  17.612  0.00  0.00    +0.000 A 
ATOM     28  N   UNL     1      50.485   1.357  17.093  0.00  0.00    +0.000 N 
ATOM     29  C   UNL     1      49.906   2.595  16.956  0.00  0.00    +0.000 A 
ATOM     30  O   UNL     1      48.765   2.722  16.521  0.00  0.00    +0.000 OA
ATOM     31  C   UNL     1      50.744   3.703  17.374  0.00  0.00    +0.000 A 
ATOM     32  H   UNL     1      49.920   0.568  16.814  0.00  0.00    +0.000 HD
ENDBRANCH  19  22
ENDBRANCH  17  18
ENDBRANCH   4  17
TORSDOF 6
ENDMDL
MODEL 5
REMARK VINA RESULT:    -6.744      1.958      2.857
REMARK INTER + INTRA:         -10.222
REMARK INTER:                  -9.619
REMARK INTRA:                  -0.602
REMARK UNBOUND:                -1.112
REMARK  Name = 
REMARK  6 active torsions:
REMARK  status: ('A' for Active; 'I' for Inactive)
REMARK    1  A    between atoms: C_2  and  C_25
REMARK    2  A    between atoms: N_3  and  C_4
REMARK    3  A    between atoms: C_4  and  C_5
REMARK    4  A    between atoms: C_8  and  C_9
REMARK    5  A    between atoms: C_9  and  N_10
REMARK    6  A    between atoms: C_11  and  C_13
REMARK                            x       y       z     vdW  Elec       q    Type
REMARK                         _______ _______ _______ _____ _____    ______ ____
ROOT
ATOM      1  C   UNL     1      44.699   5.427  11.386  0.00  0.00    +0.000 A 
ATOM      2  C   UNL     1      45.725   4.920  12.195  0.00  0.00    +0.000 A 
ATOM      3  C   UNL     1      46.586   5.784  12.884  0.00  0.00    +0.000 A 
ATOM      4  C   UNL     1      46.425   7.172  12.794  0.00  0.00    +0.000 A 
ATOM      5  C   UNL     1      45.400   7.678  11.984  0.00  0.00    +0.000 A 
ATOM      6  C   UNL     1      44.539   6.816  11.298  0.00  0.00    +0.000 A 
ENDROOT
BRANCH   1   7
ATOM      7  C   UNL     1      43.820   4.503  10.587  0.00  0.00    +0.000 C 
BRANCH   7  10
ATOM      8  O   UNL     1      45.357   4.937   8.381  0.00  0.00    +0.000 OA
ATOM      9  C   UNL     1      45.292   3.776   8.783  0.00  0.00    +0.000 C 
ATOM     10  N   UNL     1      44.544   3.460   9.903  0.00  0.00    +0.000 N 
ATOM     11  H   UNL     1      44.518   2.507  10.239  0.00  0.00    +0.000 HD
BRANCH   9  12
ATOM     12  C   UNL     1      45.989   2.687   8.110  0.00  0.00    +0.000 A 
ATOM     13  C   UNL     1      45.876   1.341   8.417  0.00  0.00    +0.000 A 
ATOM     14  C   UNL     1      46.701   0.515   7.603  0.00  0.00    +0.000 A 
ATOM     15  C   UNL     1      47.420   1.256   6.692  0.00  0.00    +0.000 A 
ATOM     16  S   UNL     1      47.085   2.931   6.817  0.00  0.00    +0.000 S 
ENDBRANCH   9  12
ENDBRANCH   7  10
ENDBRANCH   1   7
BRANCH   4  17
ATOM     17  C   UNL     1      47.357   8.111  13.518  0.00  0.00    +0.000 C 
BRANCH  17  18
ATOM     18  N   UNL     1      47.667   7.628  14.841  0.00  0.00    +0.000 N 
ATOM     19  C   UNL     1      48.875   7.037  15.118  0.00  0.00    +0.000 C 
ATOM     20  O   UNL     1      49.764   6.951  14.275  0.00  0.00    +0.000 OA
ATOM     21  H   UNL     1      46.885   7.481  15.471  0.00  0.00    +0.000 HD
BRANCH  19  22
ATOM     22  C   UNL     1      49.076   6.564  16.494  0.00  0.00    +0.000 A 
ATOM     23  C   UNL     1      48.766   5.251  16.823  0.00  0.00    +0.000 A 
ATOM     24  S   UNL     1      49.100   4.854  18.448  0.00  0.00    +0.000 S 
ATOM     25  C   UNL     1      49.624   6.439  18.784  0.00  0.00    +0.000 A 
ATOM     26  N   UNL     1      50.035   6.790  20.032  0.00  0.00    +0.000 NA
ATOM     27  C   UNL     1      50.381   8.027  20.153  0.00  0.00    +0.000 A 
ATOM     28  N   UNL     1      50.354   8.947  19.136  0.00  0.00    +0.000 N 
ATOM     29  C   UNL     1      49.973   8.632  17.854  0.00  0.00    +0.000 A 
ATOM     30  O   UNL     1      49.995   9.471  16.958  0.00  0.00    +0.000 OA
ATOM     31  C   UNL     1      49.565   7.252  17.666  0.00  0.00    +0.000 A 
ATOM     32  H   UNL     1      50.648   9.900  19.292  0.00  0.00    +0.000 HD
ENDBRANCH  19  22
ENDBRANCH  17  18
ENDBRANCH   4  17
TORSDOF 6
ENDMDL
MODEL 6
REMARK VINA RESULT:    -6.438      4.642      7.428
REMARK INTER + INTRA:          -9.808
REMARK INTER:                  -8.932
REMARK INTRA:                  -0.876
REMARK UNBOUND:                -1.112
REMARK  Name = 
REMARK  6 active torsions:
REMARK  status: ('A' for Active; 'I' for Inactive)
REMARK    1  A    between atoms: C_2  and  C_25
REMARK    2  A    between atoms: N_3  and  C_4
REMARK    3  A    between atoms: C_4  and  C_5
REMARK    4  A    between atoms: C_8  and  C_9
REMARK    5  A    between atoms: C_9  and  N_10
REMARK    6  A    between atoms: C_11  and  C_13
REMARK                            x       y       z     vdW  Elec       q    Type
REMARK                         _______ _______ _______ _____ _____    ______ ____
ROOT
ATOM      1  C   UNL     1      50.328   8.969  11.479  0.00  0.00    +0.000 A 
ATOM      2  C   UNL     1      49.897   7.645  11.645  0.00  0.00    +0.000 A 
ATOM      3  C   UNL     1      48.622   7.366  12.151  0.00  0.00    +0.000 A 
ATOM      4  C   UNL     1      47.742   8.405  12.481  0.00  0.00    +0.000 A 
ATOM      5  C   UNL     1      48.174   9.728  12.317  0.00  0.00    +0.000 A 
ATOM      6  C   UNL     1      49.447  10.007  11.811  0.00  0.00    +0.000 A 
ENDROOT
BRANCH   1   7
ATOM      7  C   UNL     1      51.724   9.271  11.006  0.00  0.00    +0.000 C 
BRANCH   7  10
ATOM      8  O   UNL     1      52.715   9.442   8.475  0.00  0.00    +0.000 OA
ATOM      9  C   UNL     1      52.822   8.350   9.032  0.00  0.00    +0.000 C 
ATOM     10  N   UNL     1      52.357   8.170  10.322  0.00  0.00    +0.000 N 
ATOM     11  H   UNL     1      52.473   7.276  10.780  0.00  0.00    +0.000 HD
BRANCH   9  12
ATOM     12  C   UNL     1      53.434   7.203   8.371  0.00  0.00    +0.000 A 
ATOM     13  C   UNL     1      52.853   6.440   7.372  0.00  0.00    +0.000 A 
ATOM     14  C   UNL     1      53.684   5.367   6.941  0.00  0.00    +0.000 A 
ATOM     15  C   UNL     1      54.879   5.344   7.623  0.00  0.00    +0.000 A 
ATOM     16  S   UNL     1      54.994   6.618   8.763  0.00  0.00    +0.000 S 
ENDBRANCH   9  12
ENDBRANCH   7  10
ENDBRANCH   1   7
BRANCH   4  17
ATOM     17  C   UNL     1      46.373   8.116  13.042  0.00  0.00    +0.000 C 
BRANCH  17  18
ATOM     18  N   UNL     1      45.931   6.788  12.692  0.00  0.00    +0.000 N 
ATOM     19  C   UNL     1      44.967   6.588  11.735  0.00  0.00    +0.000 C 
ATOM     20  O   UNL     1      44.486   7.518  11.093  0.00  0.00    +0.000 OA
ATOM     21  H   UNL     1      46.138   6.046  13.353  0.00  0.00    +0.000 HD
BRANCH  19  22
ATOM     22  C   UNL     1      44.579   5.196  11.473  0.00  0.00    +0.000 A 
ATOM     23  C   UNL     1      43.847   4.494  12.421  0.00  0.00    +0.000 A 
ATOM     24  S   UNL     1      43.443   2.908  11.940  0.00  0.00    +0.000 S 
ATOM     25  C   UNL     1      44.277   3.084  10.467  0.00  0.00    +0.000 A 
ATOM     26  N   UNL     1      44.345   2.061   9.574  0.00  0.00    +0.000 NA
ATOM     27  C   UNL     1      45.029   2.322   8.511  0.00  0.00    +0.000 A 
ATOM     28  N   UNL     1      45.652   3.518   8.259  0.00  0.00    +0.000 N 
ATOM     29  C   UNL     1      45.589   4.588   9.118  0.00  0.00    +0.000 A 
ATOM     30  O   UNL     1      46.128   5.657   8.846  0.00  0.00    +0.000 OA
ATOM     31  C   UNL     1      44.837   4.343  10.335  0.00  0.00    +0.000 A 
ATOM     32  H   UNL     1      46.165   3.664   7.402  0.00  0.00    +0.000 HD
ENDBRANCH  19  22
ENDBRANCH  17  18
ENDBRANCH   4  17
TORSDOF 6
ENDMDL
MODEL 7
REMARK VINA RESULT:    -6.077      5.558      8.256
REMARK INTER + INTRA:          -9.320
REMARK INTER:                  -8.407
REMARK INTRA:                  -0.913
REMARK UNBOUND:                -1.112
REMARK  Name = 
REMARK  6 active torsions:
REMARK  status: ('A' for Active; 'I' for Inactive)
REMARK    1  A    between atoms: C_2  and  C_25
REMARK    2  A    between atoms: N_3  and  C_4
REMARK    3  A    between atoms: C_4  and  C_5
REMARK    4  A    between atoms: C_8  and  C_9
REMARK    5  A    between atoms: C_9  and  N_10
REMARK    6  A    between atoms: C_11  and  C_13
REMARK                            x       y       z     vdW  Elec       q    Type
REMARK                         _______ _______ _______ _____ _____    ______ ____
ROOT
ATOM      1  C   UNL     1      48.990   6.987  13.754  0.00  0.00    +0.000 A 
ATOM      2  C   UNL     1      48.882   7.080  12.360  0.00  0.00    +0.000 A 
ATOM      3  C   UNL     1      49.825   7.801  11.616  0.00  0.00    +0.000 A 
ATOM      4  C   UNL     1      50.908   8.425  12.250  0.00  0.00    +0.000 A 
ATOM      5  C   UNL     1      51.014   8.333  13.644  0.00  0.00    +0.000 A 
ATOM      6  C   UNL     1      50.073   7.612  14.386  0.00  0.00    +0.000 A 
ENDROOT
BRANCH   1   7
ATOM      7  C   UNL     1      47.938   6.277  14.562  0.00  0.00    +0.000 C 
BRANCH   7  10
ATOM      8  O   UNL     1      46.816   3.841  14.084  0.00  0.00    +0.000 OA
ATOM      9  C   UNL     1      46.203   4.819  13.658  0.00  0.00    +0.000 C 
ATOM     10  N   UNL     1      46.689   6.098  13.862  0.00  0.00    +0.000 N 
ATOM     11  H   UNL     1      46.165   6.896  13.529  0.00  0.00    +0.000 HD
BRANCH   9  12
ATOM     12  C   UNL     1      44.950   4.685  12.925  0.00  0.00    +0.000 A 
ATOM     13  C   UNL     1      43.899   5.586  12.947  0.00  0.00    +0.000 A 
ATOM     14  C   UNL     1      42.795   5.170  12.150  0.00  0.00    +0.000 A 
ATOM     15  C   UNL     1      43.037   3.960  11.539  0.00  0.00    +0.000 A 
ATOM     16  S   UNL     1      44.591   3.347  11.919  0.00  0.00    +0.000 S 
ENDBRANCH   9  12
ENDBRANCH   7  10
ENDBRANCH   1   7
BRANCH   4  17
ATOM     17  C   UNL     1      51.920   9.217  11.461  0.00  0.00    +0.000 C 
BRANCH  17  18
ATOM     18  N   UNL     1      52.173   8.613  10.175  0.00  0.00    +0.000 N 
ATOM     19  C   UNL     1      53.288   8.937   9.444  0.00  0.00    +0.000 C 
ATOM     20  O   UNL     1      54.148   9.702   9.874  0.00  0.00    +0.000 OA
ATOM     21  H   UNL     1      51.384   8.172   9.712  0.00  0.00    +0.000 HD
BRANCH  19  22
ATOM     22  C   UNL     1      53.435   8.277   8.140  0.00  0.00    +0.000 A 
ATOM     23  C   UNL     1      53.440   9.039   6.978  0.00  0.00    +0.000 A 
ATOM     24  S   UNL     1      53.663   8.121   5.558  0.00  0.00    +0.000 S 
ATOM     25  C   UNL     1      53.709   6.666   6.440  0.00  0.00    +0.000 A 
ATOM     26  N   UNL     1      53.857   5.470   5.809  0.00  0.00    +0.000 NA
ATOM     27  C   UNL     1      53.851   4.447   6.595  0.00  0.00    +0.000 A 
ATOM     28  N   UNL     1      53.711   4.511   7.958  0.00  0.00    +0.000 N 
ATOM     29  C   UNL     1      53.585   5.697   8.640  0.00  0.00    +0.000 A 
ATOM     30  O   UNL     1      53.498   5.722   9.865  0.00  0.00    +0.000 OA
ATOM     31  C   UNL     1      53.579   6.880   7.801  0.00  0.00    +0.000 A 
ATOM     32  H   UNL     1      53.724   3.673   8.520  0.00  0.00    +0.000 HD
ENDBRANCH  19  22
ENDBRANCH  17  18
ENDBRANCH   4  17
TORSDOF 6
ENDMDL
MODEL 8
REMARK VINA RESULT:    -5.992      2.450      3.250
REMARK INTER + INTRA:          -9.205
REMARK INTER:                  -8.326
REMARK INTRA:                  -0.879
REMARK UNBOUND:                -1.112
REMARK  Name = 
REMARK  6 active torsions:
REMARK  status: ('A' for Active; 'I' for Inactive)
REMARK    1  A    between atoms: C_2  and  C_25
REMARK    2  A    between atoms: N_3  and  C_4
REMARK    3  A    between atoms: C_4  and  C_5
REMARK    4  A    between atoms: C_8  and  C_9
REMARK    5  A    between atoms: C_9  and  N_10
REMARK    6  A    between atoms: C_11  and  C_13
REMARK                            x       y       z     vdW  Elec       q    Type
REMARK                         _______ _______ _______ _____ _____    ______ ____
ROOT
ATOM      1  C   UNL     1      45.573   5.400  11.859  0.00  0.00    +0.000 A 
ATOM      2  C   UNL     1      46.042   6.714  11.733  0.00  0.00    +0.000 A 
ATOM      3  C   UNL     1      46.902   7.262  12.694  0.00  0.00    +0.000 A 
ATOM      4  C   UNL     1      47.327   6.498  13.789  0.00  0.00    +0.000 A 
ATOM      5  C   UNL     1      46.856   5.185  13.915  0.00  0.00    +0.000 A 
ATOM      6  C   UNL     1      45.998   4.638  12.955  0.00  0.00    +0.000 A 
ENDROOT
BRANCH   1   7
ATOM      7  C   UNL     1      44.591   4.835  10.869  0.00  0.00    +0.000 C 
BRANCH   7  10
ATOM      8  O   UNL     1      45.753   5.117   8.422  0.00  0.00    +0.000 OA
ATOM      9  C   UNL     1      45.676   3.970   8.862  0.00  0.00    +0.000 C 
ATOM     10  N   UNL     1      45.110   3.729  10.101  0.00  0.00    +0.000 N 
ATOM     11  H   UNL     1      45.074   2.786  10.464  0.00  0.00    +0.000 HD
BRANCH   9  12
ATOM     12  C   UNL     1      46.166   2.821   8.111  0.00  0.00    +0.000 A 
ATOM     13  C   UNL     1      45.987   1.492   8.457  0.00  0.00    +0.000 A 
ATOM     14  C   UNL     1      46.605   0.593   7.543  0.00  0.00    +0.000 A 
ATOM     15  C   UNL     1      47.239   1.263   6.521  0.00  0.00    +0.000 A 
ATOM     16  S   UNL     1      47.072   2.962   6.665  0.00  0.00    +0.000 S 
ENDBRANCH   9  12
ENDBRANCH   7  10
ENDBRANCH   1   7
BRANCH   4  17
ATOM     17  C   UNL     1      48.239   7.084  14.837  0.00  0.00    +0.000 C 
BRANCH  17  18
ATOM     18  N   UNL     1      49.127   6.084  15.379  0.00  0.00    +0.000 N 
ATOM     19  C   UNL     1      48.915   5.542  16.622  0.00  0.00    +0.000 C 
ATOM     20  O   UNL     1      47.933   5.833  17.299  0.00  0.00    +0.000 OA
ATOM     21  H   UNL     1      50.044   6.005  14.950  0.00  0.00    +0.000 HD
BRANCH  19  22
ATOM     22  C   UNL     1      49.894   4.548  17.081  0.00  0.00    +0.000 A 
ATOM     23  C   UNL     1      49.497   3.232  17.284  0.00  0.00    +0.000 A 
ATOM     24  S   UNL     1      50.764   2.201  17.774  0.00  0.00    +0.000 S 
ATOM     25  C   UNL     1      51.880   3.487  17.784  0.00  0.00    +0.000 A 
ATOM     26  N   UNL     1      53.175   3.287  18.145  0.00  0.00    +0.000 NA
ATOM     27  C   UNL     1      53.905   4.351  18.132  0.00  0.00    +0.000 A 
ATOM     28  N   UNL     1      53.455   5.600  17.790  0.00  0.00    +0.000 N 
ATOM     29  C   UNL     1      52.163   5.846  17.393  0.00  0.00    +0.000 A 
ATOM     30  O   UNL     1      51.802   6.970  17.057  0.00  0.00    +0.000 OA
ATOM     31  C   UNL     1      51.298   4.682  17.397  0.00  0.00    +0.000 A 
ATOM     32  H   UNL     1      54.080   6.393  17.789  0.00  0.00    +0.000 HD
ENDBRANCH  19  22
ENDBRANCH  17  18
ENDBRANCH   4  17
TORSDOF 6
ENDMDL
MODEL 9
REMARK VINA RESULT:    -5.866      3.348      4.678
REMARK INTER + INTRA:          -9.035
REMARK INTER:                  -8.162
REMARK INTRA:                  -0.874
REMARK UNBOUND:                -1.112
REMARK  Name = 
REMARK  6 active torsions:
REMARK  status: ('A' for Active; 'I' for Inactive)
REMARK    1  A    between atoms: C_2  and  C_25
REMARK    2  A    between atoms: N_3  and  C_4
REMARK    3  A    between atoms: C_4  and  C_5
REMARK    4  A    between atoms: C_8  and  C_9
REMARK    5  A    between atoms: C_9  and  N_10
REMARK    6  A    between atoms: C_11  and  C_13
REMARK                            x       y       z     vdW  Elec       q    Type
REMARK                         _______ _______ _______ _____ _____    ______ ____
ROOT
ATOM      1  C   UNL     1      48.351   7.592  13.174  0.00  0.00    +0.000 A 
ATOM      2  C   UNL     1      49.265   8.638  13.368  0.00  0.00    +0.000 A 
ATOM      3  C   UNL     1      49.944   8.778  14.584  0.00  0.00    +0.000 A 
ATOM      4  C   UNL     1      49.739   7.863  15.625  0.00  0.00    +0.000 A 
ATOM      5  C   UNL     1      48.825   6.820  15.431  0.00  0.00    +0.000 A 
ATOM      6  C   UNL     1      48.148   6.679  14.216  0.00  0.00    +0.000 A 
ENDROOT
BRANCH   1   7
ATOM      7  C   UNL     1      47.565   7.484  11.895  0.00  0.00    +0.000 C 
BRANCH   7  10
ATOM      8  O   UNL     1      44.863   7.360  11.582  0.00  0.00    +0.000 OA
ATOM      9  C   UNL     1      45.459   6.284  11.620  0.00  0.00    +0.000 C 
ATOM     10  N   UNL     1      46.834   6.247  11.766  0.00  0.00    +0.000 N 
ATOM     11  H   UNL     1      47.316   5.358  11.771  0.00  0.00    +0.000 HD
BRANCH   9  12
ATOM     12  C   UNL     1      44.758   5.010  11.517  0.00  0.00    +0.000 A 
ATOM     13  C   UNL     1      44.845   4.122  10.458  0.00  0.00    +0.000 A 
ATOM     14  C   UNL     1      44.022   2.973  10.628  0.00  0.00    +0.000 A 
ATOM     15  C   UNL     1      43.332   3.016  11.818  0.00  0.00    +0.000 A 
ATOM     16  S   UNL     1      43.689   4.427  12.720  0.00  0.00    +0.000 S 
ENDBRANCH   9  12
ENDBRANCH   7  10
ENDBRANCH   1   7
BRANCH   4  17
ATOM     17  C   UNL     1      50.454   8.014  16.944  0.00  0.00    +0.000 C 
BRANCH  17  18
ATOM     18  N   UNL     1      51.272   6.863  17.235  0.00  0.00    +0.000 N 
ATOM     19  C   UNL     1      50.943   5.991  18.242  0.00  0.00    +0.000 C 
ATOM     20  O   UNL     1      49.910   6.113  18.896  0.00  0.00    +0.000 OA
ATOM     21  H   UNL     1      52.222   6.872  16.875  0.00  0.00    +0.000 HD
BRANCH  19  22
ATOM     22  C   UNL     1      51.858   4.863  18.463  0.00  0.00    +0.000 A 
ATOM     23  C   UNL     1      53.062   5.072  19.124  0.00  0.00    +0.000 A 
ATOM     24  S   UNL     1      53.983   3.652  19.335  0.00  0.00    +0.000 S 
ATOM     25  C   UNL     1      52.832   2.715  18.502  0.00  0.00    +0.000 A 
ATOM     26  N   UNL     1      53.025   1.384  18.303  0.00  0.00    +0.000 NA
ATOM     27  C   UNL     1      52.085   0.801  17.637  0.00  0.00    +0.000 A 
ATOM     28  N   UNL     1      50.968   1.431  17.151  0.00  0.00    +0.000 N 
ATOM     29  C   UNL     1      50.717   2.767  17.351  0.00  0.00    +0.000 A 
ATOM     30  O   UNL     1      49.689   3.292  16.935  0.00  0.00    +0.000 OA
ATOM     31  C   UNL     1      51.748   3.471  18.090  0.00  0.00    +0.000 A 
ATOM     32  H   UNL     1      50.262   0.916  16.645  0.00  0.00    +0.000 HD
ENDBRANCH  19  22
ENDBRANCH  17  18
ENDBRANCH   4  17
TORSDOF 6
ENDMDL
