MODEL 1
REMARK VINA RESULT:    -8.429      0.000      0.000
REMARK INTER + INTRA:         -13.164
REMARK INTER:                 -11.879
REMARK INTRA:                  -1.285
REMARK UNBOUND:                -1.285
REMARK  Name = 
REMARK  8 active torsions:
REMARK  status: ('A' for Active; 'I' for Inactive)
REMARK    1  A    between atoms: C_1  and  O_2
REMARK    2  A    between atoms: O_2  and  C_3
REMARK    3  A    between atoms: C_6  and  C_7
REMARK    4  A    between atoms: C_7  and  N_8
REMARK    5  A    between atoms: C_9  and  C_11
REMARK    6  A    between atoms: C_22  and  C_23
REMARK    7  A    between atoms: C_23  and  N_24
REMARK    8  A    between atoms: C_25  and  C_27
REMARK                            x       y       z     vdW  Elec       q    Type
REMARK                         _______ _______ _______ _____ _____    ______ ____
ROOT
ATOM      1  C   UNL     1      48.689   5.707  18.994  0.00  0.00    +0.000 A 
ATOM      2  C   UNL     1      48.701   7.100  18.858  0.00  0.00    +0.000 A 
ATOM      3  C   UNL     1      48.698   7.699  17.595  0.00  0.00    +0.000 A 
ATOM      4  C   UNL     1      48.697   6.917  16.438  0.00  0.00    +0.000 A 
ATOM      5  C   UNL     1      48.694   5.524  16.572  0.00  0.00    +0.000 A 
ATOM      6  C   UNL     1      48.646   4.907  17.837  0.00  0.00    +0.000 A 
ENDROOT
BRANCH   1   8
ATOM      7  C   UNL     1      49.935   5.110  20.934  0.00  0.00    +0.000 C 
ATOM      8  O   UNL     1      48.712   5.053  20.201  0.00  0.00    +0.000 OA
ENDBRANCH   1   8
BRANCH   4   9
ATOM      9  C   UNL     1      48.723   7.556  15.074  0.00  0.00    +0.000 C 
BRANCH   9  10
ATOM     10  N   UNL     1      47.513   7.276  14.343  0.00  0.00    +0.000 N 
ATOM     11  C   UNL     1      47.509   6.415  13.277  0.00  0.00    +0.000 C 
ATOM     12  O   UNL     1      48.517   5.805  12.929  0.00  0.00    +0.000 OA
ATOM     13  H   UNL     1      46.754   7.943  14.443  0.00  0.00    +0.000 HD
BRANCH  11  14
ATOM     14  C   UNL     1      46.218   6.205  12.609  0.00  0.00    +0.000 A 
ATOM     15  C   UNL     1      45.558   7.281  12.030  0.00  0.00    +0.000 A 
ATOM     16  S   UNL     1      44.091   6.855  11.268  0.00  0.00    +0.000 S 
ATOM     17  C   UNL     1      44.262   5.226  11.729  0.00  0.00    +0.000 A 
ATOM     18  N   UNL     1      43.310   4.307  11.416  0.00  0.00    +0.000 NA
ATOM     19  C   UNL     1      43.551   3.117  11.858  0.00  0.00    +0.000 A 
ATOM     20  N   UNL     1      44.666   2.761  12.572  0.00  0.00    +0.000 N 
ATOM     21  C   UNL     1      45.675   3.644  12.870  0.00  0.00    +0.000 A 
ATOM     22  O   UNL     1      46.695   3.277  13.443  0.00  0.00    +0.000 OA
ATOM     23  C   UNL     1      45.437   5.004  12.426  0.00  0.00    +0.000 A 
ATOM     24  H   UNL     1      44.806   1.807  12.871  0.00  0.00    +0.000 HD
ENDBRANCH  11  14
ENDBRANCH   9  10
ENDBRANCH   4   9
BRANCH   6  25
ATOM     25  C   UNL     1      48.539   3.403  17.896  0.00  0.00    +0.000 C 
BRANCH  25  26
ATOM     26  N   UNL     1      49.815   2.776  18.114  0.00  0.00    +0.000 N 
ATOM     27  C   UNL     1      50.441   1.991  17.174  0.00  0.00    +0.000 C 
ATOM     28  O   UNL     1      49.974   1.768  16.064  0.00  0.00    +0.000 OA
ATOM     29  H   UNL     1      50.306   3.036  18.955  0.00  0.00    +0.000 HD
BRANCH  27  30
ATOM     30  C   UNL     1      51.698   1.438  17.605  0.00  0.00    +0.000 A 
ATOM     31  C   UNL     1      52.981   1.947  17.669  0.00  0.00    +0.000 A 
ATOM     32  C   UNL     1      53.764   0.908  18.203  0.00  0.00    +0.000 A 
ATOM     33  N   UNL     1      53.049  -0.189  18.453  0.00  0.00    +0.000 NA
ATOM     34  N   UNL     1      51.796   0.168  18.110  0.00  0.00    +0.000 N 
ATOM     35  H   UNL     1      51.039  -0.497  18.244  0.00  0.00    +0.000 HD
ENDBRANCH  27  30
ENDBRANCH  25  26
ENDBRANCH   6  25
TORSDOF 7
ENDMDL
MODEL 2
REMARK VINA RESULT:    -8.299      3.563      8.380
REMARK INTER + INTRA:         -12.980
REMARK INTER:                 -11.673
REMARK INTRA:                  -1.307
REMARK UNBOUND:                -1.285
REMARK  Name = 
REMARK  8 active torsions:
REMARK  status: ('A' for Active; 'I' for Inactive)
REMARK    1  A    between atoms: C_1  and  O_2
REMARK    2  A    between atoms: O_2  and  C_3
REMARK    3  A    between atoms: C_6  and  C_7
REMARK    4  A    between atoms: C_7  and  N_8
REMARK    5  A    between atoms: C_9  and  C_11
REMARK    6  A    between atoms: C_22  and  C_23
REMARK    7  A    between atoms: C_23  and  N_24
REMARK    8  A    between atoms: C_25  and  C_27
REMARK                            x       y       z     vdW  Elec       q    Type
REMARK                         _______ _______ _______ _____ _____    ______ ____
ROOT
ATOM      1  C   UNL     1      43.768   4.329  11.697  0.00  0.00    +0.000 A 
ATOM      2  C   UNL     1      44.030   4.689  13.025  0.00  0.00    +0.000 A 
ATOM      3  C   UNL     1      44.889   5.750  13.324  0.00  0.00    +0.000 A 
ATOM      4  C   UNL     1      45.517   6.466  12.304  0.00  0.00    +0.000 A 
ATOM      5  C   UNL     1      45.263   6.102  10.977  0.00  0.00    +0.000 A 
ATOM      6  C   UNL     1      44.362   5.068  10.658  0.00  0.00    +0.000 A 
ENDROOT
BRANCH   1   8
ATOM      7  C   UNL     1      43.313   1.994  11.819  0.00  0.00    +0.000 C 
ATOM      8  O   UNL     1      42.953   3.286  11.332  0.00  0.00    +0.000 OA
ENDBRANCH   1   8
BRANCH   4   9
ATOM      9  C   UNL     1      46.467   7.592  12.620  0.00  0.00    +0.000 C 
BRANCH   9  10
ATOM     10  N   UNL     1      47.095   7.402  13.903  0.00  0.00    +0.000 N 
ATOM     11  C   UNL     1      48.176   6.572  14.048  0.00  0.00    +0.000 C 
ATOM     12  O   UNL     1      48.691   5.998  13.092  0.00  0.00    +0.000 OA
ATOM     13  H   UNL     1      46.548   7.650  14.722  0.00  0.00    +0.000 HD
BRANCH  11  14
ATOM     14  C   UNL     1      48.735   6.456  15.402  0.00  0.00    +0.000 A 
ATOM     15  C   UNL     1      49.665   7.387  15.847  0.00  0.00    +0.000 A 
ATOM     16  S   UNL     1      50.184   7.123  17.451  0.00  0.00    +0.000 S 
ATOM     17  C   UNL     1      49.222   5.727  17.590  0.00  0.00    +0.000 A 
ATOM     18  N   UNL     1      49.228   4.983  18.729  0.00  0.00    +0.000 NA
ATOM     19  C   UNL     1      48.479   3.931  18.684  0.00  0.00    +0.000 A 
ATOM     20  N   UNL     1      47.714   3.564  17.607  0.00  0.00    +0.000 N 
ATOM     21  C   UNL     1      47.641   4.308  16.455  0.00  0.00    +0.000 A 
ATOM     22  O   UNL     1      46.889   3.993  15.540  0.00  0.00    +0.000 OA
ATOM     23  C   UNL     1      48.492   5.483  16.441  0.00  0.00    +0.000 A 
ATOM     24  H   UNL     1      47.133   2.738  17.643  0.00  0.00    +0.000 HD
ENDBRANCH  11  14
ENDBRANCH   9  10
ENDBRANCH   4   9
BRANCH   6  25
ATOM     25  C   UNL     1      44.061   4.804   9.203  0.00  0.00    +0.000 C 
BRANCH  25  26
ATOM     26  N   UNL     1      44.862   3.735   8.668  0.00  0.00    +0.000 N 
ATOM     27  C   UNL     1      46.072   3.937   8.047  0.00  0.00    +0.000 C 
ATOM     28  O   UNL     1      46.582   5.041   7.907  0.00  0.00    +0.000 OA
ATOM     29  H   UNL     1      44.557   2.798   8.877  0.00  0.00    +0.000 HD
BRANCH  27  30
ATOM     30  C   UNL     1      46.697   2.735   7.561  0.00  0.00    +0.000 A 
ATOM     31  C   UNL     1      46.502   1.394   7.830  0.00  0.00    +0.000 A 
ATOM     32  C   UNL     1      47.422   0.715   7.011  0.00  0.00    +0.000 A 
ATOM     33  N   UNL     1      48.161   1.548   6.280  0.00  0.00    +0.000 NA
ATOM     34  N   UNL     1      47.682   2.763   6.608  0.00  0.00    +0.000 N 
ATOM     35  H   UNL     1      48.064   3.586   6.149  0.00  0.00    +0.000 HD
ENDBRANCH  27  30
ENDBRANCH  25  26
ENDBRANCH   6  25
TORSDOF 7
ENDMDL
MODEL 3
REMARK VINA RESULT:    -8.295      3.653      8.834
REMARK INTER + INTRA:         -12.975
REMARK INTER:                 -11.840
REMARK INTRA:                  -1.135
REMARK UNBOUND:                -1.285
REMARK  Name = 
REMARK  8 active torsions:
REMARK  status: ('A' for Active; 'I' for Inactive)
REMARK    1  A    between atoms: C_1  and  O_2
REMARK    2  A    between atoms: O_2  and  C_3
REMARK    3  A    between atoms: C_6  and  C_7
REMARK    4  A    between atoms: C_7  and  N_8
REMARK    5  A    between atoms: C_9  and  C_11
REMARK    6  A    between atoms: C_22  and  C_23
REMARK    7  A    between atoms: C_23  and  N_24
REMARK    8  A    between atoms: C_25  and  C_27
REMARK                            x       y       z     vdW  Elec       q    Type
REMARK                         _______ _______ _______ _____ _____    ______ ____
ROOT
ATOM      1  C   UNL     1      45.450   6.432  11.707  0.00  0.00    +0.000 A 
ATOM      2  C   UNL     1      46.261   6.721  12.811  0.00  0.00    +0.000 A 
ATOM      3  C   UNL     1      46.746   5.699  13.633  0.00  0.00    +0.000 A 
ATOM      4  C   UNL     1      46.421   4.366  13.377  0.00  0.00    +0.000 A 
ATOM      5  C   UNL     1      45.603   4.076  12.278  0.00  0.00    +0.000 A 
ATOM      6  C   UNL     1      45.148   5.090  11.413  0.00  0.00    +0.000 A 
ENDROOT
BRANCH   1   8
ATOM      7  C   UNL     1      44.587   8.638  11.467  0.00  0.00    +0.000 C 
ATOM      8  O   UNL     1      44.923   7.385  10.872  0.00  0.00    +0.000 OA
ENDBRANCH   1   8
BRANCH   4   9
ATOM      9  C   UNL     1      46.917   3.262  14.275  0.00  0.00    +0.000 C 
BRANCH   9  10
ATOM     10  N   UNL     1      47.845   3.764  15.255  0.00  0.00    +0.000 N 
ATOM     11  C   UNL     1      47.553   3.727  16.594  0.00  0.00    +0.000 C 
ATOM     12  O   UNL     1      46.520   3.220  17.022  0.00  0.00    +0.000 OA
ATOM     13  H   UNL     1      48.562   4.401  14.923  0.00  0.00    +0.000 HD
BRANCH  11  14
ATOM     14  C   UNL     1      48.575   4.265  17.503  0.00  0.00    +0.000 A 
ATOM     15  C   UNL     1      48.321   5.432  18.212  0.00  0.00    +0.000 A 
ATOM     16  S   UNL     1      49.599   5.896  19.244  0.00  0.00    +0.000 S 
ATOM     17  C   UNL     1      50.555   4.583  18.741  0.00  0.00    +0.000 A 
ATOM     18  N   UNL     1      51.814   4.408  19.226  0.00  0.00    +0.000 NA
ATOM     19  C   UNL     1      52.439   3.391  18.732  0.00  0.00    +0.000 A 
ATOM     20  N   UNL     1      51.914   2.525  17.808  0.00  0.00    +0.000 N 
ATOM     21  C   UNL     1      50.632   2.636  17.326  0.00  0.00    +0.000 A 
ATOM     22  O   UNL     1      50.167   1.801  16.559  0.00  0.00    +0.000 OA
ATOM     23  C   UNL     1      49.898   3.783  17.823  0.00  0.00    +0.000 A 
ATOM     24  H   UNL     1      52.449   1.735  17.476  0.00  0.00    +0.000 HD
ENDBRANCH  11  14
ENDBRANCH   9  10
ENDBRANCH   4   9
BRANCH   6  25
ATOM     25  C   UNL     1      44.359   4.686  10.192  0.00  0.00    +0.000 C 
BRANCH  25  26
ATOM     26  N   UNL     1      45.202   4.178   9.143  0.00  0.00    +0.000 N 
ATOM     27  C   UNL     1      45.271   2.846   8.809  0.00  0.00    +0.000 C 
ATOM     28  O   UNL     1      44.612   1.977   9.364  0.00  0.00    +0.000 OA
ATOM     29  H   UNL     1      45.661   4.864   8.564  0.00  0.00    +0.000 HD
BRANCH  27  30
ATOM     30  C   UNL     1      46.197   2.548   7.748  0.00  0.00    +0.000 A 
ATOM     31  C   UNL     1      46.645   3.267   6.656  0.00  0.00    +0.000 A 
ATOM     32  C   UNL     1      47.565   2.422   6.010  0.00  0.00    +0.000 A 
ATOM     33  N   UNL     1      47.693   1.247   6.626  0.00  0.00    +0.000 NA
ATOM     34  N   UNL     1      46.877   1.360   7.691  0.00  0.00    +0.000 N 
ATOM     35  H   UNL     1      46.822   0.592   8.356  0.00  0.00    +0.000 HD
ENDBRANCH  27  30
ENDBRANCH  25  26
ENDBRANCH   6  25
TORSDOF 7
ENDMDL
MODEL 4
REMARK VINA RESULT:    -7.649      3.509      8.528
REMARK INTER + INTRA:         -12.065
REMARK INTER:                 -11.123
REMARK INTRA:                  -0.942
REMARK UNBOUND:                -1.285
REMARK  Name = 
REMARK  8 active torsions:
REMARK  status: ('A' for Active; 'I' for Inactive)
REMARK    1  A    between atoms: C_1  and  O_2
REMARK    2  A    between atoms: O_2  and  C_3
REMARK    3  A    between atoms: C_6  and  C_7
REMARK    4  A    between atoms: C_7  and  N_8
REMARK    5  A    between atoms: C_9  and  C_11
REMARK    6  A    between atoms: C_22  and  C_23
REMARK    7  A    between atoms: C_23  and  N_24
REMARK    8  A    between atoms: C_25  and  C_27
REMARK                            x       y       z     vdW  Elec       q    Type
REMARK                         _______ _______ _______ _____ _____    ______ ____
ROOT
ATOM      1  C   UNL     1      44.328   5.997  11.498  0.00  0.00    +0.000 A 
ATOM      2  C   UNL     1      44.850   7.240  11.878  0.00  0.00    +0.000 A 
ATOM      3  C   UNL     1      46.106   7.335  12.483  0.00  0.00    +0.000 A 
ATOM      4  C   UNL     1      46.863   6.190  12.735  0.00  0.00    +0.000 A 
ATOM      5  C   UNL     1      46.339   4.947  12.363  0.00  0.00    +0.000 A 
ATOM      6  C   UNL     1      45.097   4.838  11.707  0.00  0.00    +0.000 A 
ENDROOT
BRANCH   1   8
ATOM      7  C   UNL     1      41.976   5.784  11.802  0.00  0.00    +0.000 C 
ATOM      8  O   UNL     1      43.095   5.828  10.918  0.00  0.00    +0.000 OA
ENDBRANCH   1   8
BRANCH   4   9
ATOM      9  C   UNL     1      48.205   6.284  13.414  0.00  0.00    +0.000 C 
BRANCH   9  10
ATOM     10  N   UNL     1      48.061   6.421  14.840  0.00  0.00    +0.000 N 
ATOM     11  C   UNL     1      49.143   6.675  15.643  0.00  0.00    +0.000 C 
ATOM     12  O   UNL     1      50.269   6.847  15.184  0.00  0.00    +0.000 OA
ATOM     13  H   UNL     1      47.217   6.038  15.254  0.00  0.00    +0.000 HD
BRANCH  11  14
ATOM     14  C   UNL     1      48.877   6.798  17.082  0.00  0.00    +0.000 A 
ATOM     15  C   UNL     1      48.580   8.041  17.626  0.00  0.00    +0.000 A 
ATOM     16  S   UNL     1      48.265   7.997  19.303  0.00  0.00    +0.000 S 
ATOM     17  C   UNL     1      48.562   6.324  19.370  0.00  0.00    +0.000 A 
ATOM     18  N   UNL     1      48.496   5.648  20.549  0.00  0.00    +0.000 NA
ATOM     19  C   UNL     1      48.779   4.391  20.460  0.00  0.00    +0.000 A 
ATOM     20  N   UNL     1      49.110   3.746  19.297  0.00  0.00    +0.000 N 
ATOM     21  C   UNL     1      49.144   4.377  18.077  0.00  0.00    +0.000 A 
ATOM     22  O   UNL     1      49.368   3.756  17.044  0.00  0.00    +0.000 OA
ATOM     23  C   UNL     1      48.867   5.800  18.126  0.00  0.00    +0.000 A 
ATOM     24  H   UNL     1      49.300   2.754  19.291  0.00  0.00    +0.000 HD
ENDBRANCH  11  14
ENDBRANCH   9  10
ENDBRANCH   4   9
BRANCH   6  25
ATOM     25  C   UNL     1      44.649   3.474  11.245  0.00  0.00    +0.000 C 
BRANCH  25  26
ATOM     26  N   UNL     1      45.466   2.968  10.174  0.00  0.00    +0.000 N 
ATOM     27  C   UNL     1      45.230   3.247   8.849  0.00  0.00    +0.000 C 
ATOM     28  O   UNL     1      44.314   3.961   8.463  0.00  0.00    +0.000 OA
ATOM     29  H   UNL     1      46.311   2.489  10.442  0.00  0.00    +0.000 HD
BRANCH  27  30
ATOM     30  C   UNL     1      46.151   2.618   7.938  0.00  0.00    +0.000 A 
ATOM     31  C   UNL     1      46.918   3.094   6.892  0.00  0.00    +0.000 A 
ATOM     32  C   UNL     1      47.623   1.976   6.411  0.00  0.00    +0.000 A 
ATOM     33  N   UNL     1      47.327   0.864   7.083  0.00  0.00    +0.000 NA
ATOM     34  N   UNL     1      46.457   1.285   8.021  0.00  0.00    +0.000 N 
ATOM     35  H   UNL     1      46.100   0.617   8.700  0.00  0.00    +0.000 HD
ENDBRANCH  27  30
ENDBRANCH  25  26
ENDBRANCH   6  25
TORSDOF 7
ENDMDL
MODEL 5
REMARK VINA RESULT:    -7.599      4.164      8.926
REMARK INTER + INTRA:         -11.994
REMARK INTER:                 -10.692
REMARK INTRA:                  -1.302
REMARK UNBOUND:                -1.285
REMARK  Name = 
REMARK  8 active torsions:
REMARK  status: ('A' for Active; 'I' for Inactive)
REMARK    1  A    between atoms: C_1  and  O_2
REMARK    2  A    between atoms: O_2  and  C_3
REMARK    3  A    between atoms: C_6  and  C_7
REMARK    4  A    between atoms: C_7  and  N_8
REMARK    5  A    between atoms: C_9  and  C_11
REMARK    6  A    between atoms: C_22  and  C_23
REMARK    7  A    between atoms: C_23  and  N_24
REMARK    8  A    between atoms: C_25  and  C_27
REMARK                            x       y       z     vdW  Elec       q    Type
REMARK                         _______ _______ _______ _____ _____    ______ ____
ROOT
ATOM      1  C   UNL     1      45.345   4.159  11.924  0.00  0.00    +0.000 A 
ATOM      2  C   UNL     1      45.744   4.079  13.264  0.00  0.00    +0.000 A 
ATOM      3  C   UNL     1      46.549   5.070  13.833  0.00  0.00    +0.000 A 
ATOM      4  C   UNL     1      46.986   6.156  13.071  0.00  0.00    +0.000 A 
ATOM      5  C   UNL     1      46.594   6.232  11.730  0.00  0.00    +0.000 A 
ATOM      6  C   UNL     1      45.742   5.269  11.156  0.00  0.00    +0.000 A 
ENDROOT
BRANCH   1   8
ATOM      7  C   UNL     1      43.394   2.794  11.982  0.00  0.00    +0.000 C 
ATOM      8  O   UNL     1      44.573   3.213  11.296  0.00  0.00    +0.000 OA
ENDBRANCH   1   8
BRANCH   4   9
ATOM      9  C   UNL     1      47.878   7.212  13.671  0.00  0.00    +0.000 C 
BRANCH   9  10
ATOM     10  N   UNL     1      47.886   7.134  15.109  0.00  0.00    +0.000 N 
ATOM     11  C   UNL     1      49.034   6.844  15.799  0.00  0.00    +0.000 C 
ATOM     12  O   UNL     1      50.113   6.690  15.233  0.00  0.00    +0.000 OA
ATOM     13  H   UNL     1      46.988   7.003  15.566  0.00  0.00    +0.000 HD
BRANCH  11  14
ATOM     14  C   UNL     1      48.924   6.793  17.263  0.00  0.00    +0.000 A 
ATOM     15  C   UNL     1      49.328   5.653  17.946  0.00  0.00    +0.000 A 
ATOM     16  S   UNL     1      49.163   5.775  19.640  0.00  0.00    +0.000 S 
ATOM     17  C   UNL     1      48.500   7.337  19.517  0.00  0.00    +0.000 A 
ATOM     18  N   UNL     1      48.098   8.016  20.625  0.00  0.00    +0.000 NA
ATOM     19  C   UNL     1      47.581   9.174  20.383  0.00  0.00    +0.000 A 
ATOM     20  N   UNL     1      47.442   9.721  19.134  0.00  0.00    +0.000 N 
ATOM     21  C   UNL     1      47.876   9.093  17.992  0.00  0.00    +0.000 A 
ATOM     22  O   UNL     1      47.808   9.642  16.898  0.00  0.00    +0.000 OA
ATOM     23  C   UNL     1      48.434   7.771  18.206  0.00  0.00    +0.000 A 
ATOM     24  H   UNL     1      47.048  10.643  19.013  0.00  0.00    +0.000 HD
ENDBRANCH  11  14
ENDBRANCH   9  10
ENDBRANCH   4   9
BRANCH   6  25
ATOM     25  C   UNL     1      45.281   5.477   9.735  0.00  0.00    +0.000 C 
BRANCH  25  26
ATOM     26  N   UNL     1      46.035   4.688   8.798  0.00  0.00    +0.000 N 
ATOM     27  C   UNL     1      45.475   3.706   8.015  0.00  0.00    +0.000 C 
ATOM     28  O   UNL     1      44.284   3.426   8.036  0.00  0.00    +0.000 OA
ATOM     29  H   UNL     1      46.990   4.969   8.641  0.00  0.00    +0.000 HD
BRANCH  27  30
ATOM     30  C   UNL     1      46.412   3.019   7.165  0.00  0.00    +0.000 A 
ATOM     31  C   UNL     1      46.834   3.224   5.866  0.00  0.00    +0.000 A 
ATOM     32  C   UNL     1      47.783   2.216   5.622  0.00  0.00    +0.000 A 
ATOM     33  N   UNL     1      47.953   1.415   6.674  0.00  0.00    +0.000 NA
ATOM     34  N   UNL     1      47.133   1.940   7.604  0.00  0.00    +0.000 N 
ATOM     35  H   UNL     1      47.105   1.523   8.531  0.00  0.00    +0.000 HD
ENDBRANCH  27  30
ENDBRANCH  25  26
ENDBRANCH   6  25
TORSDOF 7
ENDMDL
MODEL 6
REMARK VINA RESULT:    -7.597      1.966      2.425
REMARK INTER + INTRA:         -11.990
REMARK INTER:                 -10.697
REMARK INTRA:                  -1.293
REMARK UNBOUND:                -1.285
REMARK  Name = 
REMARK  8 active torsions:
REMARK  status: ('A' for Active; 'I' for Inactive)
REMARK    1  A    between atoms: C_1  and  O_2
REMARK    2  A    between atoms: O_2  and  C_3
REMARK    3  A    between atoms: C_6  and  C_7
REMARK    4  A    between atoms: C_7  and  N_8
REMARK    5  A    between atoms: C_9  and  C_11
REMARK    6  A    between atoms: C_22  and  C_23
REMARK    7  A    between atoms: C_23  and  N_24
REMARK    8  A    between atoms: C_25  and  C_27
REMARK                            x       y       z     vdW  Elec       q    Type
REMARK                         _______ _______ _______ _____ _____    ______ ____
ROOT
ATOM      1  C   UNL     1      48.819   6.725  17.412  0.00  0.00    +0.000 A 
ATOM      2  C   UNL     1      48.885   7.971  16.777  0.00  0.00    +0.000 A 
ATOM      3  C   UNL     1      48.629   8.094  15.409  0.00  0.00    +0.000 A 
ATOM      4  C   UNL     1      48.312   6.972  14.641  0.00  0.00    +0.000 A 
ATOM      5  C   UNL     1      48.253   5.724  15.273  0.00  0.00    +0.000 A 
ATOM      6  C   UNL     1      48.460   5.592  16.660  0.00  0.00    +0.000 A 
ENDROOT
BRANCH   1   8
ATOM      7  C   UNL     1      50.264   7.135  19.260  0.00  0.00    +0.000 C 
ATOM      8  O   UNL     1      49.079   6.529  18.746  0.00  0.00    +0.000 OA
ENDBRANCH   1   8
BRANCH   4   9
ATOM      9  C   UNL     1      48.062   7.093  13.160  0.00  0.00    +0.000 C 
BRANCH   9  10
ATOM     10  N   UNL     1      47.259   6.000  12.675  0.00  0.00    +0.000 N 
ATOM     11  C   UNL     1      45.917   6.153  12.441  0.00  0.00    +0.000 C 
ATOM     12  O   UNL     1      45.349   7.233  12.583  0.00  0.00    +0.000 OA
ATOM     13  H   UNL     1      47.637   5.065  12.795  0.00  0.00    +0.000 HD
BRANCH  11  14
ATOM     14  C   UNL     1      45.199   4.971  11.945  0.00  0.00    +0.000 A 
ATOM     15  C   UNL     1      44.480   4.179  12.831  0.00  0.00    +0.000 A 
ATOM     16  S   UNL     1      43.681   2.869  12.083  0.00  0.00    +0.000 S 
ATOM     17  C   UNL     1      44.309   3.285  10.559  0.00  0.00    +0.000 A 
ATOM     18  N   UNL     1      44.035   2.533   9.459  0.00  0.00    +0.000 NA
ATOM     19  C   UNL     1      44.605   2.943   8.376  0.00  0.00    +0.000 A 
ATOM     20  N   UNL     1      45.414   4.047   8.289  0.00  0.00    +0.000 N 
ATOM     21  C   UNL     1      45.680   4.862   9.362  0.00  0.00    +0.000 A 
ATOM     22  O   UNL     1      46.345   5.885   9.234  0.00  0.00    +0.000 OA
ATOM     23  C   UNL     1      45.091   4.425  10.613  0.00  0.00    +0.000 A 
ATOM     24  H   UNL     1      45.813   4.327   7.405  0.00  0.00    +0.000 HD
ENDBRANCH  11  14
ENDBRANCH   9  10
ENDBRANCH   4   9
BRANCH   6  25
ATOM     25  C   UNL     1      48.276   4.231  17.284  0.00  0.00    +0.000 C 
BRANCH  25  26
ATOM     26  N   UNL     1      49.532   3.604  17.601  0.00  0.00    +0.000 N 
ATOM     27  C   UNL     1      49.967   2.443  17.008  0.00  0.00    +0.000 C 
ATOM     28  O   UNL     1      49.332   1.846  16.148  0.00  0.00    +0.000 OA
ATOM     29  H   UNL     1      50.154   4.124  18.200  0.00  0.00    +0.000 HD
BRANCH  27  30
ATOM     30  C   UNL     1      51.240   1.972  17.490  0.00  0.00    +0.000 A 
ATOM     31  C   UNL     1      52.425   2.608  17.803  0.00  0.00    +0.000 A 
ATOM     32  C   UNL     1      53.288   1.588  18.240  0.00  0.00    +0.000 A 
ATOM     33  N   UNL     1      52.713   0.386  18.201  0.00  0.00    +0.000 NA
ATOM     34  N   UNL     1      51.464   0.649  17.772  0.00  0.00    +0.000 N 
ATOM     35  H   UNL     1      50.798  -0.114  17.689  0.00  0.00    +0.000 HD
ENDBRANCH  27  30
ENDBRANCH  25  26
ENDBRANCH   6  25
TORSDOF 7
ENDMDL
MODEL 7
REMARK VINA RESULT:    -7.514      3.514      6.698
REMARK INTER + INTRA:         -11.874
REMARK INTER:                  -9.728
REMARK INTRA:                  -2.146
REMARK UNBOUND:                -1.285
REMARK  Name = 
REMARK  8 active torsions:
REMARK  status: ('A' for Active; 'I' for Inactive)
REMARK    1  A    between atoms: C_1  and  O_2
REMARK    2  A    between atoms: O_2  and  C_3
REMARK    3  A    between atoms: C_6  and  C_7
REMARK    4  A    between atoms: C_7  and  N_8
REMARK    5  A    between atoms: C_9  and  C_11
REMARK    6  A    between atoms: C_22  and  C_23
REMARK    7  A    between atoms: C_23  and  N_24
REMARK    8  A    between atoms: C_25  and  C_27
REMARK                            x       y       z     vdW  Elec       q    Type
REMARK                         _______ _______ _______ _____ _____    ______ ____
ROOT
ATOM      1  C   UNL     1      45.080   4.679  11.815  0.00  0.00    +0.000 A 
ATOM      2  C   UNL     1      44.552   5.753  11.088  0.00  0.00    +0.000 A 
ATOM      3  C   UNL     1      44.863   7.072  11.429  0.00  0.00    +0.000 A 
ATOM      4  C   UNL     1      45.697   7.349  12.514  0.00  0.00    +0.000 A 
ATOM      5  C   UNL     1      46.220   6.277  13.246  0.00  0.00    +0.000 A 
ATOM      6  C   UNL     1      45.956   4.941  12.884  0.00  0.00    +0.000 A 
ENDROOT
BRANCH   1   8
ATOM      7  C   UNL     1      43.459   2.935  11.776  0.00  0.00    +0.000 C 
ATOM      8  O   UNL     1      44.802   3.361  11.548  0.00  0.00    +0.000 OA
ENDBRANCH   1   8
BRANCH   4   9
ATOM      9  C   UNL     1      46.013   8.769  12.904  0.00  0.00    +0.000 C 
BRANCH   9  10
ATOM     10  N   UNL     1      46.771   8.819  14.128  0.00  0.00    +0.000 N 
ATOM     11  C   UNL     1      48.063   9.276  14.146  0.00  0.00    +0.000 C 
ATOM     12  O   UNL     1      48.615   9.710  13.138  0.00  0.00    +0.000 OA
ATOM     13  H   UNL     1      46.439   8.242  14.896  0.00  0.00    +0.000 HD
BRANCH  11  14
ATOM     14  C   UNL     1      48.738   9.283  15.451  0.00  0.00    +0.000 A 
ATOM     15  C   UNL     1      48.743  10.440  16.219  0.00  0.00    +0.000 A 
ATOM     16  S   UNL     1      49.540  10.263  17.718  0.00  0.00    +0.000 S 
ATOM     17  C   UNL     1      49.949   8.649  17.371  0.00  0.00    +0.000 A 
ATOM     18  N   UNL     1      50.683   7.909  18.246  0.00  0.00    +0.000 NA
ATOM     19  C   UNL     1      50.950   6.713  17.841  0.00  0.00    +0.000 A 
ATOM     20  N   UNL     1      50.539   6.184  16.645  0.00  0.00    +0.000 N 
ATOM     21  C   UNL     1      49.758   6.877  15.751  0.00  0.00    +0.000 A 
ATOM     22  O   UNL     1      49.343   6.349  14.726  0.00  0.00    +0.000 OA
ATOM     23  C   UNL     1      49.458   8.240  16.144  0.00  0.00    +0.000 A 
ATOM     24  H   UNL     1      50.764   5.232  16.395  0.00  0.00    +0.000 HD
ENDBRANCH  11  14
ENDBRANCH   9  10
ENDBRANCH   4   9
BRANCH   6  25
ATOM     25  C   UNL     1      46.640   3.842  13.659  0.00  0.00    +0.000 C 
BRANCH  25  26
ATOM     26  N   UNL     1      46.901   4.220  15.022  0.00  0.00    +0.000 N 
ATOM     27  C   UNL     1      47.730   3.508  15.857  0.00  0.00    +0.000 C 
ATOM     28  O   UNL     1      48.328   2.498  15.512  0.00  0.00    +0.000 OA
ATOM     29  H   UNL     1      46.545   5.116  15.316  0.00  0.00    +0.000 HD
BRANCH  27  30
ATOM     30  C   UNL     1      47.832   4.044  17.189  0.00  0.00    +0.000 A 
ATOM     31  C   UNL     1      48.548   3.664  18.308  0.00  0.00    +0.000 A 
ATOM     32  C   UNL     1      48.230   4.617  19.292  0.00  0.00    +0.000 A 
ATOM     33  N   UNL     1      47.369   5.533  18.851  0.00  0.00    +0.000 NA
ATOM     34  N   UNL     1      47.167   5.182  17.566  0.00  0.00    +0.000 N 
ATOM     35  H   UNL     1      46.563   5.757  16.985  0.00  0.00    +0.000 HD
ENDBRANCH  27  30
ENDBRANCH  25  26
ENDBRANCH   6  25
TORSDOF 7
ENDMDL
MODEL 8
REMARK VINA RESULT:    -7.497      3.564      8.252
REMARK INTER + INTRA:         -11.850
REMARK INTER:                 -10.813
REMARK INTRA:                  -1.037
REMARK UNBOUND:                -1.285
REMARK  Name = 
REMARK  8 active torsions:
REMARK  status: ('A' for Active; 'I' for Inactive)
REMARK    1  A    between atoms: C_1  and  O_2
REMARK    2  A    between atoms: O_2  and  C_3
REMARK    3  A    between atoms: C_6  and  C_7
REMARK    4  A    between atoms: C_7  and  N_8
REMARK    5  A    between atoms: C_9  and  C_11
REMARK    6  A    between atoms: C_22  and  C_23
REMARK    7  A    between atoms: C_23  and  N_24
REMARK    8  A    between atoms: C_25  and  C_27
REMARK                            x       y       z     vdW  Elec       q    Type
REMARK                         _______ _______ _______ _____ _____    ______ ____
ROOT
ATOM      1  C   UNL     1      44.151   9.311  11.224  0.00  0.00    +0.000 A 
ATOM      2  C   UNL     1      45.017  10.408  11.301  0.00  0.00    +0.000 A 
ATOM      3  C   UNL     1      46.343  10.249  11.713  0.00  0.00    +0.000 A 
ATOM      4  C   UNL     1      46.830   8.990  12.070  0.00  0.00    +0.000 A 
ATOM      5  C   UNL     1      45.964   7.893  12.002  0.00  0.00    +0.000 A 
ATOM      6  C   UNL     1      44.639   8.030  11.541  0.00  0.00    +0.000 A 
ENDROOT
BRANCH   1   8
ATOM      7  C   UNL     1      42.504  10.422   9.910  0.00  0.00    +0.000 C 
ATOM      8  O   UNL     1      42.833   9.398  10.848  0.00  0.00    +0.000 OA
ENDBRANCH   1   8
BRANCH   4   9
ATOM      9  C   UNL     1      48.250   8.816  12.543  0.00  0.00    +0.000 C 
BRANCH   9  10
ATOM     10  N   UNL     1      48.295   8.272  13.875  0.00  0.00    +0.000 N 
ATOM     11  C   UNL     1      48.680   6.975  14.101  0.00  0.00    +0.000 C 
ATOM     12  O   UNL     1      49.052   6.238  13.192  0.00  0.00    +0.000 OA
ATOM     13  H   UNL     1      47.761   8.761  14.588  0.00  0.00    +0.000 HD
BRANCH  11  14
ATOM     14  C   UNL     1      48.689   6.529  15.501  0.00  0.00    +0.000 A 
ATOM     15  C   UNL     1      49.293   7.317  16.472  0.00  0.00    +0.000 A 
ATOM     16  S   UNL     1      49.182   6.666  18.046  0.00  0.00    +0.000 S 
ATOM     17  C   UNL     1      48.368   5.286  17.478  0.00  0.00    +0.000 A 
ATOM     18  N   UNL     1      48.004   4.287  18.327  0.00  0.00    +0.000 NA
ATOM     19  C   UNL     1      47.425   3.284  17.756  0.00  0.00    +0.000 A 
ATOM     20  N   UNL     1      47.164   3.195  16.413  0.00  0.00    +0.000 N 
ATOM     21  C   UNL     1      47.470   4.198  15.525  0.00  0.00    +0.000 A 
ATOM     22  O   UNL     1      47.153   4.121  14.344  0.00  0.00    +0.000 OA
ATOM     23  C   UNL     1      48.154   5.334  16.112  0.00  0.00    +0.000 A 
ATOM     24  H   UNL     1      46.687   2.391  16.031  0.00  0.00    +0.000 HD
ENDBRANCH  11  14
ENDBRANCH   9  10
ENDBRANCH   4   9
BRANCH   6  25
ATOM     25  C   UNL     1      43.800   6.785  11.396  0.00  0.00    +0.000 C 
BRANCH  25  26
ATOM     26  N   UNL     1      44.411   5.816  10.526  0.00  0.00    +0.000 N 
ATOM     27  C   UNL     1      43.956   4.525  10.395  0.00  0.00    +0.000 C 
ATOM     28  O   UNL     1      42.983   4.090  10.997  0.00  0.00    +0.000 OA
ATOM     29  H   UNL     1      45.129   6.158   9.906  0.00  0.00    +0.000 HD
BRANCH  27  30
ATOM     30  C   UNL     1      44.728   3.713   9.491  0.00  0.00    +0.000 A 
ATOM     31  C   UNL     1      45.447   3.996   8.346  0.00  0.00    +0.000 A 
ATOM     32  C   UNL     1      45.992   2.766   7.937  0.00  0.00    +0.000 A 
ATOM     33  N   UNL     1      45.644   1.765   8.745  0.00  0.00    +0.000 NA
ATOM     34  N   UNL     1      44.904   2.369   9.694  0.00  0.00    +0.000 N 
ATOM     35  H   UNL     1      44.541   1.815  10.465  0.00  0.00    +0.000 HD
ENDBRANCH  27  30
ENDBRANCH  25  26
ENDBRANCH   6  25
TORSDOF 7
ENDMDL
MODEL 9
REMARK VINA RESULT:    -7.385      3.851      8.581
REMARK INTER + INTRA:         -11.692
REMARK INTER:                 -10.675
REMARK INTRA:                  -1.017
REMARK UNBOUND:                -1.285
REMARK  Name = 
REMARK  8 active torsions:
REMARK  status: ('A' for Active; 'I' for Inactive)
REMARK    1  A    between atoms: C_1  and  O_2
REMARK    2  A    between atoms: O_2  and  C_3
REMARK    3  A    between atoms: C_6  and  C_7
REMARK    4  A    between atoms: C_7  and  N_8
REMARK    5  A    between atoms: C_9  and  C_11
REMARK    6  A    between atoms: C_22  and  C_23
REMARK    7  A    between atoms: C_23  and  N_24
REMARK    8  A    between atoms: C_25  and  C_27
REMARK                            x       y       z     vdW  Elec       q    Type
REMARK                         _______ _______ _______ _____ _____    ______ ____
ROOT
ATOM      1  C   UNL     1      45.295   4.082  11.983  0.00  0.00    +0.000 A 
ATOM      2  C   UNL     1      45.932   4.499  13.158  0.00  0.00    +0.000 A 
ATOM      3  C   UNL     1      46.516   5.766  13.247  0.00  0.00    +0.000 A 
ATOM      4  C   UNL     1      46.489   6.639  12.158  0.00  0.00    +0.000 A 
ATOM      5  C   UNL     1      45.860   6.220  10.980  0.00  0.00    +0.000 A 
ATOM      6  C   UNL     1      45.224   4.967  10.892  0.00  0.00    +0.000 A 
ENDROOT
BRANCH   1   8
ATOM      7  C   UNL     1      43.390   2.692  12.316  0.00  0.00    +0.000 C 
ATOM      8  O   UNL     1      44.719   2.846  11.820  0.00  0.00    +0.000 OA
ENDBRANCH   1   8
BRANCH   4   9
ATOM      9  C   UNL     1      47.142   7.995  12.237  0.00  0.00    +0.000 C 
BRANCH   9  10
ATOM     10  N   UNL     1      47.443   8.351  13.600  0.00  0.00    +0.000 N 
ATOM     11  C   UNL     1      48.737   8.499  14.027  0.00  0.00    +0.000 C 
ATOM     12  O   UNL     1      49.692   8.388  13.263  0.00  0.00    +0.000 OA
ATOM     13  H   UNL     1      46.710   8.196  14.286  0.00  0.00    +0.000 HD
BRANCH  11  14
ATOM     14  C   UNL     1      48.924   8.865  15.437  0.00  0.00    +0.000 A 
ATOM     15  C   UNL     1      49.004  10.205  15.798  0.00  0.00    +0.000 A 
ATOM     16  S   UNL     1      49.187  10.452  17.476  0.00  0.00    +0.000 S 
ATOM     17  C   UNL     1      49.215   8.778  17.775  0.00  0.00    +0.000 A 
ATOM     18  N   UNL     1      49.385   8.294  19.035  0.00  0.00    +0.000 NA
ATOM     19  C   UNL     1      49.422   7.005  19.112  0.00  0.00    +0.000 A 
ATOM     20  N   UNL     1      49.291   6.156  18.044  0.00  0.00    +0.000 N 
ATOM     21  C   UNL     1      49.072   6.598  16.762  0.00  0.00    +0.000 A 
ATOM     22  O   UNL     1      48.882   5.811  15.841  0.00  0.00    +0.000 OA
ATOM     23  C   UNL     1      49.056   8.040  16.615  0.00  0.00    +0.000 A 
ATOM     24  H   UNL     1      49.309   5.154  18.174  0.00  0.00    +0.000 HD
ENDBRANCH  11  14
ENDBRANCH   9  10
ENDBRANCH   4   9
BRANCH   6  25
ATOM     25  C   UNL     1      44.478   4.631   9.624  0.00  0.00    +0.000 C 
BRANCH  25  26
ATOM     26  N   UNL     1      45.354   4.148   8.590  0.00  0.00    +0.000 N 
ATOM     27  C   UNL     1      45.513   2.814   8.298  0.00  0.00    +0.000 C 
ATOM     28  O   UNL     1      44.914   1.920   8.881  0.00  0.00    +0.000 OA
ATOM     29  H   UNL     1      45.766   4.844   7.989  0.00  0.00    +0.000 HD
BRANCH  27  30
ATOM     30  C   UNL     1      46.457   2.546   7.245  0.00  0.00    +0.000 A 
ATOM     31  C   UNL     1      46.690   3.129   6.015  0.00  0.00    +0.000 A 
ATOM     32  C   UNL     1      47.771   2.417   5.466  0.00  0.00    +0.000 A 
ATOM     33  N   UNL     1      48.196   1.442   6.270  0.00  0.00    +0.000 NA
ATOM     34  N   UNL     1      47.404   1.561   7.353  0.00  0.00    +0.000 N 
ATOM     35  H   UNL     1      47.553   0.941   8.145  0.00  0.00    +0.000 HD
ENDBRANCH  27  30
ENDBRANCH  25  26
ENDBRANCH   6  25
TORSDOF 7
ENDMDL
