MODEL 1
REMARK VINA RESULT:    -7.860      0.000      0.000
REMARK INTER + INTRA:         -12.098
REMARK INTER:                 -10.847
REMARK INTRA:                  -1.251
REMARK UNBOUND:                -1.251
REMARK  Name = 
REMARK  7 active torsions:
REMARK  status: ('A' for Active; 'I' for Inactive)
REMARK    1  A    between atoms: N_1  and  C_2
REMARK    2  A    between atoms: C_2  and  N_3
REMARK    3  A    between atoms: C_2  and  C_16
REMARK    4  A    between atoms: C_4  and  C_6
REMARK    5  A    between atoms: C_19  and  C_20
REMARK    6  A    between atoms: C_20  and  N_21
REMARK    7  A    between atoms: C_22  and  C_24
REMARK                            x       y       z     vdW  Elec       q    Type
REMARK                         _______ _______ _______ _____ _____    ______ ____
ROOT
ATOM      1  C   UNL     1      47.429   3.255  16.554  0.00  0.00    +0.000 C 
ENDROOT
BRANCH   1   2
ATOM      2  C   UNL     1      48.826   3.691  16.976  0.00  0.00    +0.000 A 
ATOM      3  C   UNL     1      49.157   5.047  17.096  0.00  0.00    +0.000 A 
ATOM      4  C   UNL     1      50.442   5.440  17.504  0.00  0.00    +0.000 A 
ATOM      5  C   UNL     1      51.428   4.485  17.791  0.00  0.00    +0.000 A 
ATOM      6  C   UNL     1      51.099   3.130  17.671  0.00  0.00    +0.000 A 
ATOM      7  C   UNL     1      49.817   2.744  17.262  0.00  0.00    +0.000 A 
BRANCH   5   8
ATOM      8  C   UNL     1      52.806   4.885  18.260  0.00  0.00    +0.000 C 
BRANCH   8   9
ATOM      9  N   UNL     1      53.776   3.860  17.963  0.00  0.00    +0.000 N 
ATOM     10  C   UNL     1      54.176   2.916  18.874  0.00  0.00    +0.000 C 
ATOM     11  O   UNL     1      53.758   2.884  20.031  0.00  0.00    +0.000 OA
ATOM     12  H   UNL     1      54.203   3.837  17.039  0.00  0.00    +0.000 HD
BRANCH  10  13
ATOM     13  C   UNL     1      55.251   1.939  18.381  0.00  0.00    +0.000 C 
ATOM     14  C   UNL     1      54.844   1.258  17.071  0.00  0.00    +0.000 C 
ATOM     15  C   UNL     1      53.810   0.157  17.295  0.00  0.00    +0.000 C 
ATOM     16  C   UNL     1      54.240  -0.808  18.400  0.00  0.00    +0.000 C 
ATOM     17  N   UNL     1      54.578  -0.110  19.643  0.00  0.00    +0.000 NA
ATOM     18  C   UNL     1      55.637   0.892  19.433  0.00  0.00    +0.000 C 
ATOM     19  H   UNL     1      54.896  -0.789  20.337  0.00  0.00    +0.000 HD
ENDBRANCH  10  13
ENDBRANCH   8   9
ENDBRANCH   5   8
ENDBRANCH   1   2
BRANCH   1  20
ATOM     20  N   UNL     1      46.861   4.214  15.644  0.00  0.00    +0.000 N 
ATOM     21  C   UNL     1      46.856   4.065  14.280  0.00  0.00    +0.000 C 
ATOM     22  O   UNL     1      47.260   3.044  13.728  0.00  0.00    +0.000 OA
ATOM     23  H   UNL     1      46.872   5.167  15.993  0.00  0.00    +0.000 HD
BRANCH  21  24
ATOM     24  C   UNL     1      46.225   5.145  13.509  0.00  0.00    +0.000 A 
ATOM     25  C   UNL     1      46.878   6.363  13.372  0.00  0.00    +0.000 A 
ATOM     26  S   UNL     1      46.015   7.499  12.437  0.00  0.00    +0.000 S 
ATOM     27  C   UNL     1      44.722   6.417  12.214  0.00  0.00    +0.000 A 
ATOM     28  N   UNL     1      43.610   6.785  11.525  0.00  0.00    +0.000 NA
ATOM     29  C   UNL     1      42.699   5.872  11.455  0.00  0.00    +0.000 A 
ATOM     30  N   UNL     1      42.810   4.616  11.993  0.00  0.00    +0.000 N 
ATOM     31  C   UNL     1      43.930   4.189  12.666  0.00  0.00    +0.000 A 
ATOM     32  O   UNL     1      44.029   3.041  13.089  0.00  0.00    +0.000 OA
ATOM     33  C   UNL     1      44.966   5.191  12.808  0.00  0.00    +0.000 A 
ATOM     34  H   UNL     1      42.069   3.939  11.885  0.00  0.00    +0.000 HD
ENDBRANCH  21  24
ENDBRANCH   1  20
BRANCH   1  35
ATOM     35  N   UNL     1      46.548   3.197  17.702  0.00  0.00    +0.000 NA
ATOM     36  H   UNL     1      45.620   3.470  17.363  0.00  0.00    +0.000 HD
ATOM     37  H   UNL     1      46.820   3.936  18.343  0.00  0.00    +0.000 HD
ENDBRANCH   1  35
TORSDOF 7
ENDMDL
MODEL 2
REMARK VINA RESULT:    -7.726      2.941      9.750
REMARK INTER + INTRA:         -11.913
REMARK INTER:                 -10.329
REMARK INTRA:                  -1.584
REMARK UNBOUND:                -1.251
REMARK  Name = 
REMARK  7 active torsions:
REMARK  status: ('A' for Active; 'I' for Inactive)
REMARK    1  A    between atoms: N_1  and  C_2
REMARK    2  A    between atoms: C_2  and  N_3
REMARK    3  A    between atoms: C_2  and  C_16
REMARK    4  A    between atoms: C_4  and  C_6
REMARK    5  A    between atoms: C_19  and  C_20
REMARK    6  A    between atoms: C_20  and  N_21
REMARK    7  A    between atoms: C_22  and  C_24
REMARK                            x       y       z     vdW  Elec       q    Type
REMARK                         _______ _______ _______ _____ _____    ______ ____
ROOT
ATOM      1  C   UNL     1      47.983   4.069  17.682  0.00  0.00    +0.000 C 
ENDROOT
BRANCH   1   2
ATOM      2  C   UNL     1      47.802   4.707  16.311  0.00  0.00    +0.000 A 
ATOM      3  C   UNL     1      48.491   5.874  15.958  0.00  0.00    +0.000 A 
ATOM      4  C   UNL     1      48.333   6.445  14.686  0.00  0.00    +0.000 A 
ATOM      5  C   UNL     1      47.474   5.867  13.740  0.00  0.00    +0.000 A 
ATOM      6  C   UNL     1      46.785   4.701  14.092  0.00  0.00    +0.000 A 
ATOM      7  C   UNL     1      46.944   4.137  15.363  0.00  0.00    +0.000 A 
BRANCH   5   8
ATOM      8  C   UNL     1      47.312   6.448  12.356  0.00  0.00    +0.000 C 
BRANCH   8   9
ATOM      9  N   UNL     1      46.158   5.895  11.690  0.00  0.00    +0.000 N 
ATOM     10  C   UNL     1      44.982   6.582  11.528  0.00  0.00    +0.000 C 
ATOM     11  O   UNL     1      44.806   7.720  11.963  0.00  0.00    +0.000 OA
ATOM     12  H   UNL     1      46.204   4.943  11.333  0.00  0.00    +0.000 HD
BRANCH  10  13
ATOM     13  C   UNL     1      43.857   5.805  10.833  0.00  0.00    +0.000 C 
ATOM     14  C   UNL     1      42.676   5.550  11.775  0.00  0.00    +0.000 C 
ATOM     15  C   UNL     1      42.968   4.427  12.768  0.00  0.00    +0.000 C 
ATOM     16  C   UNL     1      43.498   3.176  12.069  0.00  0.00    +0.000 C 
ATOM     17  N   UNL     1      44.652   3.467  11.214  0.00  0.00    +0.000 NA
ATOM     18  C   UNL     1      44.335   4.491  10.204  0.00  0.00    +0.000 C 
ATOM     19  H   UNL     1      44.946   2.612  10.739  0.00  0.00    +0.000 HD
ENDBRANCH  10  13
ENDBRANCH   8   9
ENDBRANCH   5   8
ENDBRANCH   1   2
BRANCH   1  20
ATOM     20  N   UNL     1      49.342   3.627  17.852  0.00  0.00    +0.000 N 
ATOM     21  C   UNL     1      49.897   2.577  17.164  0.00  0.00    +0.000 C 
ATOM     22  O   UNL     1      49.296   1.986  16.270  0.00  0.00    +0.000 OA
ATOM     23  H   UNL     1      49.719   3.809  18.776  0.00  0.00    +0.000 HD
BRANCH  21  24
ATOM     24  C   UNL     1      51.302   2.271  17.465  0.00  0.00    +0.000 A 
ATOM     25  C   UNL     1      51.712   0.948  17.558  0.00  0.00    +0.000 A 
ATOM     26  S   UNL     1      53.375   0.770  17.898  0.00  0.00    +0.000 S 
ATOM     27  C   UNL     1      53.596   2.455  17.971  0.00  0.00    +0.000 A 
ATOM     28  N   UNL     1      54.808   2.990  18.276  0.00  0.00    +0.000 NA
ATOM     29  C   UNL     1      54.825   4.281  18.320  0.00  0.00    +0.000 A 
ATOM     30  N   UNL     1      53.744   5.085  18.066  0.00  0.00    +0.000 N 
ATOM     31  C   UNL     1      52.509   4.588  17.720  0.00  0.00    +0.000 A 
ATOM     32  O   UNL     1      51.572   5.329  17.441  0.00  0.00    +0.000 OA
ATOM     33  C   UNL     1      52.428   3.143  17.697  0.00  0.00    +0.000 A 
ATOM     34  H   UNL     1      53.828   6.090  18.097  0.00  0.00    +0.000 HD
ENDBRANCH  21  24
ENDBRANCH   1  20
BRANCH   1  35
ATOM     35  N   UNL     1      47.144   2.895  17.811  0.00  0.00    +0.000 NA
ATOM     36  H   UNL     1      46.742   2.728  16.884  0.00  0.00    +0.000 HD
ATOM     37  H   UNL     1      46.353   3.140  18.400  0.00  0.00    +0.000 HD
ENDBRANCH   1  35
TORSDOF 7
ENDMDL
MODEL 3
REMARK VINA RESULT:    -7.683      4.793      9.564
REMARK INTER + INTRA:         -11.854
REMARK INTER:                 -10.082
REMARK INTRA:                  -1.772
REMARK UNBOUND:                -1.251
REMARK  Name = 
REMARK  7 active torsions:
REMARK  status: ('A' for Active; 'I' for Inactive)
REMARK    1  A    between atoms: N_1  and  C_2
REMARK    2  A    between atoms: C_2  and  N_3
REMARK    3  A    between atoms: C_2  and  C_16
REMARK    4  A    between atoms: C_4  and  C_6
REMARK    5  A    between atoms: C_19  and  C_20
REMARK    6  A    between atoms: C_20  and  N_21
REMARK    7  A    between atoms: C_22  and  C_24
REMARK                            x       y       z     vdW  Elec       q    Type
REMARK                         _______ _______ _______ _____ _____    ______ ____
ROOT
ATOM      1  C   UNL     1      47.056   3.823  15.528  0.00  0.00    +0.000 C 
ENDROOT
BRANCH   1   2
ATOM      2  C   UNL     1      46.653   4.385  14.171  0.00  0.00    +0.000 A 
ATOM      3  C   UNL     1      45.900   3.624  13.267  0.00  0.00    +0.000 A 
ATOM      4  C   UNL     1      45.516   4.155  12.026  0.00  0.00    +0.000 A 
ATOM      5  C   UNL     1      45.885   5.457  11.656  0.00  0.00    +0.000 A 
ATOM      6  C   UNL     1      46.638   6.217  12.558  0.00  0.00    +0.000 A 
ATOM      7  C   UNL     1      47.020   5.682  13.794  0.00  0.00    +0.000 A 
BRANCH   5   8
ATOM      8  C   UNL     1      45.458   6.058  10.339  0.00  0.00    +0.000 C 
BRANCH   8   9
ATOM      9  N   UNL     1      45.103   5.033   9.388  0.00  0.00    +0.000 N 
ATOM     10  C   UNL     1      45.907   4.668   8.340  0.00  0.00    +0.000 C 
ATOM     11  O   UNL     1      46.989   5.206   8.107  0.00  0.00    +0.000 OA
ATOM     12  H   UNL     1      44.205   4.561   9.483  0.00  0.00    +0.000 HD
BRANCH  10  13
ATOM     13  C   UNL     1      45.332   3.590   7.413  0.00  0.00    +0.000 C 
ATOM     14  C   UNL     1      44.705   2.436   8.201  0.00  0.00    +0.000 C 
ATOM     15  C   UNL     1      45.762   1.503   8.789  0.00  0.00    +0.000 C 
ATOM     16  C   UNL     1      46.780   1.066   7.737  0.00  0.00    +0.000 C 
ATOM     17  N   UNL     1      47.380   2.207   7.041  0.00  0.00    +0.000 NA
ATOM     18  C   UNL     1      46.358   3.055   6.405  0.00  0.00    +0.000 C 
ATOM     19  H   UNL     1      48.022   1.867   6.323  0.00  0.00    +0.000 HD
ENDBRANCH  10  13
ENDBRANCH   8   9
ENDBRANCH   5   8
ENDBRANCH   1   2
BRANCH   1  20
ATOM     20  N   UNL     1      47.498   4.882  16.396  0.00  0.00    +0.000 N 
ATOM     21  C   UNL     1      47.876   4.695  17.702  0.00  0.00    +0.000 C 
ATOM     22  O   UNL     1      47.957   3.579  18.209  0.00  0.00    +0.000 OA
ATOM     23  H   UNL     1      47.105   5.790  16.167  0.00  0.00    +0.000 HD
BRANCH  21  24
ATOM     24  C   UNL     1      48.303   5.894  18.435  0.00  0.00    +0.000 A 
ATOM     25  C   UNL     1      47.737   6.182  19.670  0.00  0.00    +0.000 A 
ATOM     26  S   UNL     1      48.355   7.600  20.391  0.00  0.00    +0.000 S 
ATOM     27  C   UNL     1      49.372   7.899  19.061  0.00  0.00    +0.000 A 
ATOM     28  N   UNL     1      50.158   9.007  19.014  0.00  0.00    +0.000 NA
ATOM     29  C   UNL     1      50.859   9.119  17.936  0.00  0.00    +0.000 A 
ATOM     30  N   UNL     1      50.861   8.211  16.908  0.00  0.00    +0.000 N 
ATOM     31  C   UNL     1      50.110   7.059  16.929  0.00  0.00    +0.000 A 
ATOM     32  O   UNL     1      50.173   6.234  16.024  0.00  0.00    +0.000 OA
ATOM     33  C   UNL     1      49.273   6.908  18.101  0.00  0.00    +0.000 A 
ATOM     34  H   UNL     1      51.450   8.346  16.099  0.00  0.00    +0.000 HD
ENDBRANCH  21  24
ENDBRANCH   1  20
BRANCH   1  35
ATOM     35  N   UNL     1      48.171   2.909  15.388  0.00  0.00    +0.000 NA
ATOM     36  H   UNL     1      48.940   3.310  15.932  0.00  0.00    +0.000 HD
ATOM     37  H   UNL     1      48.485   2.945  14.423  0.00  0.00    +0.000 HD
ENDBRANCH   1  35
TORSDOF 7
ENDMDL
MODEL 4
REMARK VINA RESULT:    -7.404      2.458      4.079
REMARK INTER + INTRA:         -11.469
REMARK INTER:                 -10.020
REMARK INTRA:                  -1.449
REMARK UNBOUND:                -1.251
REMARK  Name = 
REMARK  7 active torsions:
REMARK  status: ('A' for Active; 'I' for Inactive)
REMARK    1  A    between atoms: N_1  and  C_2
REMARK    2  A    between atoms: C_2  and  N_3
REMARK    3  A    between atoms: C_2  and  C_16
REMARK    4  A    between atoms: C_4  and  C_6
REMARK    5  A    between atoms: C_19  and  C_20
REMARK    6  A    between atoms: C_20  and  N_21
REMARK    7  A    between atoms: C_22  and  C_24
REMARK                            x       y       z     vdW  Elec       q    Type
REMARK                         _______ _______ _______ _____ _____    ______ ____
ROOT
ATOM      1  C   UNL     1      47.438   3.305  16.526  0.00  0.00    +0.000 C 
ENDROOT
BRANCH   1   2
ATOM      2  C   UNL     1      48.843   3.757  16.902  0.00  0.00    +0.000 A 
ATOM      3  C   UNL     1      49.188   5.115  16.917  0.00  0.00    +0.000 A 
ATOM      4  C   UNL     1      50.479   5.525  17.282  0.00  0.00    +0.000 A 
ATOM      5  C   UNL     1      51.460   4.586  17.631  0.00  0.00    +0.000 A 
ATOM      6  C   UNL     1      51.117   3.229  17.616  0.00  0.00    +0.000 A 
ATOM      7  C   UNL     1      49.828   2.825  17.248  0.00  0.00    +0.000 A 
BRANCH   5   8
ATOM      8  C   UNL     1      52.846   5.006  18.056  0.00  0.00    +0.000 C 
BRANCH   8   9
ATOM      9  N   UNL     1      53.327   6.104  17.253  0.00  0.00    +0.000 N 
ATOM     10  C   UNL     1      53.438   7.387  17.723  0.00  0.00    +0.000 C 
ATOM     11  O   UNL     1      53.110   7.714  18.863  0.00  0.00    +0.000 OA
ATOM     12  H   UNL     1      53.584   5.931  16.283  0.00  0.00    +0.000 HD
BRANCH  10  13
ATOM     13  C   UNL     1      53.926   8.422  16.702  0.00  0.00    +0.000 C 
ATOM     14  C   UNL     1      52.911   9.553  16.507  0.00  0.00    +0.000 C 
ATOM     15  C   UNL     1      51.728   9.117  15.644  0.00  0.00    +0.000 C 
ATOM     16  C   UNL     1      52.187   8.453  14.347  0.00  0.00    +0.000 C 
ATOM     17  N   UNL     1      53.124   7.353  14.591  0.00  0.00    +0.000 NA
ATOM     18  C   UNL     1      54.303   7.801  15.351  0.00  0.00    +0.000 C 
ATOM     19  H   UNL     1      53.433   6.966  13.697  0.00  0.00    +0.000 HD
ENDBRANCH  10  13
ENDBRANCH   8   9
ENDBRANCH   5   8
ENDBRANCH   1   2
BRANCH   1  20
ATOM     20  N   UNL     1      46.836   4.246  15.620  0.00  0.00    +0.000 N 
ATOM     21  C   UNL     1      46.807   4.085  14.257  0.00  0.00    +0.000 C 
ATOM     22  O   UNL     1      47.217   3.066  13.707  0.00  0.00    +0.000 OA
ATOM     23  H   UNL     1      46.838   5.202  15.960  0.00  0.00    +0.000 HD
BRANCH  21  24
ATOM     24  C   UNL     1      46.143   5.147  13.489  0.00  0.00    +0.000 A 
ATOM     25  C   UNL     1      46.761   6.383  13.351  0.00  0.00    +0.000 A 
ATOM     26  S   UNL     1      45.863   7.496  12.420  0.00  0.00    +0.000 S 
ATOM     27  C   UNL     1      44.601   6.377  12.201  0.00  0.00    +0.000 A 
ATOM     28  N   UNL     1      43.475   6.715  11.517  0.00  0.00    +0.000 NA
ATOM     29  C   UNL     1      42.591   5.777  11.449  0.00  0.00    +0.000 A 
ATOM     30  N   UNL     1      42.739   4.524  11.986  0.00  0.00    +0.000 N 
ATOM     31  C   UNL     1      43.873   4.127  12.654  0.00  0.00    +0.000 A 
ATOM     32  O   UNL     1      44.005   2.983  13.076  0.00  0.00    +0.000 OA
ATOM     33  C   UNL     1      44.880   5.159  12.793  0.00  0.00    +0.000 A 
ATOM     34  H   UNL     1      42.017   3.826  11.880  0.00  0.00    +0.000 HD
ENDBRANCH  21  24
ENDBRANCH   1  20
BRANCH   1  35
ATOM     35  N   UNL     1      46.590   3.257  17.700  0.00  0.00    +0.000 NA
ATOM     36  H   UNL     1      47.067   2.648  18.372  0.00  0.00    +0.000 HD
ATOM     37  H   UNL     1      45.741   2.758  17.451  0.00  0.00    +0.000 HD
ENDBRANCH   1  35
TORSDOF 7
ENDMDL
MODEL 5
REMARK VINA RESULT:    -7.182      3.790      5.357
REMARK INTER + INTRA:         -11.162
REMARK INTER:                  -9.615
REMARK INTRA:                  -1.547
REMARK UNBOUND:                -1.251
REMARK  Name = 
REMARK  7 active torsions:
REMARK  status: ('A' for Active; 'I' for Inactive)
REMARK    1  A    between atoms: N_1  and  C_2
REMARK    2  A    between atoms: C_2  and  N_3
REMARK    3  A    between atoms: C_2  and  C_16
REMARK    4  A    between atoms: C_4  and  C_6
REMARK    5  A    between atoms: C_19  and  C_20
REMARK    6  A    between atoms: C_20  and  N_21
REMARK    7  A    between atoms: C_22  and  C_24
REMARK                            x       y       z     vdW  Elec       q    Type
REMARK                         _______ _______ _______ _____ _____    ______ ____
ROOT
ATOM      1  C   UNL     1      47.537   7.767  12.036  0.00  0.00    +0.000 C 
ENDROOT
BRANCH   1   2
ATOM      2  C   UNL     1      48.003   7.803  13.486  0.00  0.00    +0.000 A 
ATOM      3  C   UNL     1      48.139   9.016  14.173  0.00  0.00    +0.000 A 
ATOM      4  C   UNL     1      48.551   9.040  15.515  0.00  0.00    +0.000 A 
ATOM      5  C   UNL     1      48.846   7.851  16.198  0.00  0.00    +0.000 A 
ATOM      6  C   UNL     1      48.711   6.639  15.512  0.00  0.00    +0.000 A 
ATOM      7  C   UNL     1      48.302   6.621  14.173  0.00  0.00    +0.000 A 
BRANCH   5   8
ATOM      8  C   UNL     1      49.262   7.852  17.649  0.00  0.00    +0.000 C 
BRANCH   8   9
ATOM      9  N   UNL     1      49.187   6.528  18.214  0.00  0.00    +0.000 N 
ATOM     10  C   UNL     1      50.246   5.657  18.235  0.00  0.00    +0.000 C 
ATOM     11  O   UNL     1      51.343   5.926  17.747  0.00  0.00    +0.000 OA
ATOM     12  H   UNL     1      48.303   6.207  18.605  0.00  0.00    +0.000 HD
BRANCH  10  13
ATOM     13  C   UNL     1      49.953   4.278  18.839  0.00  0.00    +0.000 C 
ATOM     14  C   UNL     1      50.069   3.163  17.795  0.00  0.00    +0.000 C 
ATOM     15  C   UNL     1      48.858   3.120  16.866  0.00  0.00    +0.000 C 
ATOM     16  C   UNL     1      47.544   3.117  17.647  0.00  0.00    +0.000 C 
ATOM     17  N   UNL     1      47.466   4.226  18.601  0.00  0.00    +0.000 NA
ATOM     18  C   UNL     1      48.594   4.210  19.548  0.00  0.00    +0.000 C 
ATOM     19  H   UNL     1      46.592   4.160  19.126  0.00  0.00    +0.000 HD
ENDBRANCH  10  13
ENDBRANCH   8   9
ENDBRANCH   5   8
ENDBRANCH   1   2
BRANCH   1  20
ATOM     20  N   UNL     1      46.784   6.567  11.783  0.00  0.00    +0.000 N 
ATOM     21  C   UNL     1      45.417   6.531  11.667  0.00  0.00    +0.000 C 
ATOM     22  O   UNL     1      44.729   7.549  11.678  0.00  0.00    +0.000 OA
ATOM     23  H   UNL     1      47.229   5.723  12.131  0.00  0.00    +0.000 HD
BRANCH  21  24
ATOM     24  C   UNL     1      44.820   5.215  11.403  0.00  0.00    +0.000 A 
ATOM     25  C   UNL     1      44.016   4.619  12.365  0.00  0.00    +0.000 A 
ATOM     26  S   UNL     1      43.393   3.103  11.893  0.00  0.00    +0.000 S 
ATOM     27  C   UNL     1      44.207   3.172  10.401  0.00  0.00    +0.000 A 
ATOM     28  N   UNL     1      44.135   2.144   9.514  0.00  0.00    +0.000 NA
ATOM     29  C   UNL     1      44.821   2.321   8.435  0.00  0.00    +0.000 A 
ATOM     30  N   UNL     1      45.556   3.444   8.153  0.00  0.00    +0.000 N 
ATOM     31  C   UNL     1      45.629   4.522   9.003  0.00  0.00    +0.000 A 
ATOM     32  O   UNL     1      46.246   5.538   8.703  0.00  0.00    +0.000 OA
ATOM     33  C   UNL     1      44.909   4.355  10.248  0.00  0.00    +0.000 A 
ATOM     34  H   UNL     1      46.055   3.530   7.279  0.00  0.00    +0.000 HD
ENDBRANCH  21  24
ENDBRANCH   1  20
BRANCH   1  35
ATOM     35  N   UNL     1      48.673   7.742  11.139  0.00  0.00    +0.000 NA
ATOM     36  H   UNL     1      48.736   6.783  10.784  0.00  0.00    +0.000 HD
ATOM     37  H   UNL     1      49.514   7.872  11.694  0.00  0.00    +0.000 HD
ENDBRANCH   1  35
TORSDOF 7
ENDMDL
MODEL 6
REMARK VINA RESULT:    -7.126      2.552      4.422
REMARK INTER + INTRA:         -11.085
REMARK INTER:                  -9.597
REMARK INTRA:                  -1.489
REMARK UNBOUND:                -1.251
REMARK  Name = 
REMARK  7 active torsions:
REMARK  status: ('A' for Active; 'I' for Inactive)
REMARK    1  A    between atoms: N_1  and  C_2
REMARK    2  A    between atoms: C_2  and  N_3
REMARK    3  A    between atoms: C_2  and  C_16
REMARK    4  A    between atoms: C_4  and  C_6
REMARK    5  A    between atoms: C_19  and  C_20
REMARK    6  A    between atoms: C_20  and  N_21
REMARK    7  A    between atoms: C_22  and  C_24
REMARK                            x       y       z     vdW  Elec       q    Type
REMARK                         _______ _______ _______ _____ _____    ______ ____
ROOT
ATOM      1  C   UNL     1      47.436   3.292  16.501  0.00  0.00    +0.000 C 
ENDROOT
BRANCH   1   2
ATOM      2  C   UNL     1      48.785   3.829  16.959  0.00  0.00    +0.000 A 
ATOM      3  C   UNL     1      49.033   5.207  17.023  0.00  0.00    +0.000 A 
ATOM      4  C   UNL     1      50.272   5.695  17.464  0.00  0.00    +0.000 A 
ATOM      5  C   UNL     1      51.297   4.816  17.843  0.00  0.00    +0.000 A 
ATOM      6  C   UNL     1      51.051   3.440  17.780  0.00  0.00    +0.000 A 
ATOM      7  C   UNL     1      49.814   2.958  17.337  0.00  0.00    +0.000 A 
BRANCH   5   8
ATOM      8  C   UNL     1      52.627   5.320  18.349  0.00  0.00    +0.000 C 
BRANCH   8   9
ATOM      9  N   UNL     1      52.566   6.724  18.670  0.00  0.00    +0.000 N 
ATOM     10  C   UNL     1      52.468   7.200  19.952  0.00  0.00    +0.000 C 
ATOM     11  O   UNL     1      52.397   6.463  20.935  0.00  0.00    +0.000 OA
ATOM     12  H   UNL     1      52.579   7.405  17.912  0.00  0.00    +0.000 HD
BRANCH  10  13
ATOM     13  C   UNL     1      52.368   8.725  20.083  0.00  0.00    +0.000 C 
ATOM     14  C   UNL     1      50.988   9.165  20.581  0.00  0.00    +0.000 C 
ATOM     15  C   UNL     1      49.933   9.094  19.479  0.00  0.00    +0.000 C 
ATOM     16  C   UNL     1      50.396   9.799  18.204  0.00  0.00    +0.000 C 
ATOM     17  N   UNL     1      51.701   9.313  17.748  0.00  0.00    +0.000 NA
ATOM     18  C   UNL     1      52.732   9.463  18.789  0.00  0.00    +0.000 C 
ATOM     19  H   UNL     1      51.987   9.838  16.920  0.00  0.00    +0.000 HD
ENDBRANCH  10  13
ENDBRANCH   8   9
ENDBRANCH   5   8
ENDBRANCH   1   2
BRANCH   1  20
ATOM     20  N   UNL     1      46.805   4.224  15.605  0.00  0.00    +0.000 N 
ATOM     21  C   UNL     1      46.894   4.151  14.238  0.00  0.00    +0.000 C 
ATOM     22  O   UNL     1      47.449   3.219  13.663  0.00  0.00    +0.000 OA
ATOM     23  H   UNL     1      46.679   5.151  16.000  0.00  0.00    +0.000 HD
BRANCH  21  24
ATOM     24  C   UNL     1      46.178   5.189  13.482  0.00  0.00    +0.000 A 
ATOM     25  C   UNL     1      46.725   6.461  13.375  0.00  0.00    +0.000 A 
ATOM     26  S   UNL     1      45.775   7.538  12.454  0.00  0.00    +0.000 S 
ATOM     27  C   UNL     1      44.581   6.353  12.199  0.00  0.00    +0.000 A 
ATOM     28  N   UNL     1      43.446   6.639  11.508  0.00  0.00    +0.000 NA
ATOM     29  C   UNL     1      42.617   5.654  11.412  0.00  0.00    +0.000 A 
ATOM     30  N   UNL     1      42.832   4.401  11.927  0.00  0.00    +0.000 N 
ATOM     31  C   UNL     1      43.979   4.057  12.601  0.00  0.00    +0.000 A 
ATOM     32  O   UNL     1      44.173   2.915  13.002  0.00  0.00    +0.000 OA
ATOM     33  C   UNL     1      44.924   5.142  12.772  0.00  0.00    +0.000 A 
ATOM     34  H   UNL     1      42.152   3.666  11.799  0.00  0.00    +0.000 HD
ENDBRANCH  21  24
ENDBRANCH   1  20
BRANCH   1  35
ATOM     35  N   UNL     1      46.543   3.131  17.630  0.00  0.00    +0.000 NA
ATOM     36  H   UNL     1      45.614   2.952  17.238  0.00  0.00    +0.000 HD
ATOM     37  H   UNL     1      46.463   4.030  18.096  0.00  0.00    +0.000 HD
ENDBRANCH   1  35
TORSDOF 7
ENDMDL
MODEL 7
REMARK VINA RESULT:    -7.077      3.554      5.135
REMARK INTER + INTRA:         -11.017
REMARK INTER:                  -9.469
REMARK INTRA:                  -1.549
REMARK UNBOUND:                -1.251
REMARK  Name = 
REMARK  7 active torsions:
REMARK  status: ('A' for Active; 'I' for Inactive)
REMARK    1  A    between atoms: N_1  and  C_2
REMARK    2  A    between atoms: C_2  and  N_3
REMARK    3  A    between atoms: C_2  and  C_16
REMARK    4  A    between atoms: C_4  and  C_6
REMARK    5  A    between atoms: C_19  and  C_20
REMARK    6  A    between atoms: C_20  and  N_21
REMARK    7  A    between atoms: C_22  and  C_24
REMARK                            x       y       z     vdW  Elec       q    Type
REMARK                         _______ _______ _______ _____ _____    ______ ____
ROOT
ATOM      1  C   UNL     1      48.420   8.084  11.904  0.00  0.00    +0.000 C 
ENDROOT
BRANCH   1   2
ATOM      2  C   UNL     1      48.796   7.850  13.361  0.00  0.00    +0.000 A 
ATOM      3  C   UNL     1      48.281   6.761  14.077  0.00  0.00    +0.000 A 
ATOM      4  C   UNL     1      48.647   6.542  15.414  0.00  0.00    +0.000 A 
ATOM      5  C   UNL     1      49.529   7.413  16.070  0.00  0.00    +0.000 A 
ATOM      6  C   UNL     1      50.044   8.502  15.356  0.00  0.00    +0.000 A 
ATOM      7  C   UNL     1      49.674   8.717  14.023  0.00  0.00    +0.000 A 
BRANCH   5   8
ATOM      8  C   UNL     1      49.959   7.180  17.498  0.00  0.00    +0.000 C 
BRANCH   8   9
ATOM      9  N   UNL     1      49.623   5.846  17.932  0.00  0.00    +0.000 N 
ATOM     10  C   UNL     1      50.398   4.749  17.661  0.00  0.00    +0.000 C 
ATOM     11  O   UNL     1      51.434   4.808  16.999  0.00  0.00    +0.000 OA
ATOM     12  H   UNL     1      48.760   5.700  18.454  0.00  0.00    +0.000 HD
BRANCH  10  13
ATOM     13  C   UNL     1      49.847   3.411  18.170  0.00  0.00    +0.000 C 
ATOM     14  C   UNL     1      49.486   2.468  17.018  0.00  0.00    +0.000 C 
ATOM     15  C   UNL     1      48.173   2.863  16.345  0.00  0.00    +0.000 C 
ATOM     16  C   UNL     1      47.053   3.069  17.365  0.00  0.00    +0.000 C 
ATOM     17  N   UNL     1      47.434   4.010  18.421  0.00  0.00    +0.000 NA
ATOM     18  C   UNL     1      48.655   3.576  19.121  0.00  0.00    +0.000 C 
ATOM     19  H   UNL     1      46.673   4.085  19.099  0.00  0.00    +0.000 HD
ENDBRANCH  10  13
ENDBRANCH   8   9
ENDBRANCH   5   8
ENDBRANCH   1   2
BRANCH   1  20
ATOM     20  N   UNL     1      47.648   6.978  11.403  0.00  0.00    +0.000 N 
ATOM     21  C   UNL     1      46.277   6.964  11.347  0.00  0.00    +0.000 C 
ATOM     22  O   UNL     1      45.597   7.945  11.638  0.00  0.00    +0.000 OA
ATOM     23  H   UNL     1      48.103   6.077  11.514  0.00  0.00    +0.000 HD
BRANCH  21  24
ATOM     24  C   UNL     1      45.659   5.748  10.800  0.00  0.00    +0.000 A 
ATOM     25  C   UNL     1      45.756   5.480   9.441  0.00  0.00    +0.000 A 
ATOM     26  S   UNL     1      44.998   4.024   8.977  0.00  0.00    +0.000 S 
ATOM     27  C   UNL     1      44.481   3.721  10.568  0.00  0.00    +0.000 A 
ATOM     28  N   UNL     1      43.724   2.631  10.864  0.00  0.00    +0.000 NA
ATOM     29  C   UNL     1      43.383   2.540  12.106  0.00  0.00    +0.000 A 
ATOM     30  N   UNL     1      43.749   3.429  13.084  0.00  0.00    +0.000 N 
ATOM     31  C   UNL     1      44.542   4.524  12.837  0.00  0.00    +0.000 A 
ATOM     32  O   UNL     1      44.904   5.274  13.738  0.00  0.00    +0.000 OA
ATOM     33  C   UNL     1      44.918   4.694  11.448  0.00  0.00    +0.000 A 
ATOM     34  H   UNL     1      43.466   3.290  14.043  0.00  0.00    +0.000 HD
ENDBRANCH  21  24
ENDBRANCH   1  20
BRANCH   1  35
ATOM     35  N   UNL     1      49.608   8.168  11.080  0.00  0.00    +0.000 NA
ATOM     36  H   UNL     1      49.401   7.645  10.224  0.00  0.00    +0.000 HD
ATOM     37  H   UNL     1      50.344   7.639  11.538  0.00  0.00    +0.000 HD
ENDBRANCH   1  35
TORSDOF 7
ENDMDL
MODEL 8
REMARK VINA RESULT:    -6.945      4.169      5.944
REMARK INTER + INTRA:         -10.836
REMARK INTER:                  -9.393
REMARK INTRA:                  -1.443
REMARK UNBOUND:                -1.251
REMARK  Name = 
REMARK  7 active torsions:
REMARK  status: ('A' for Active; 'I' for Inactive)
REMARK    1  A    between atoms: N_1  and  C_2
REMARK    2  A    between atoms: C_2  and  N_3
REMARK    3  A    between atoms: C_2  and  C_16
REMARK    4  A    between atoms: C_4  and  C_6
REMARK    5  A    between atoms: C_19  and  C_20
REMARK    6  A    between atoms: C_20  and  N_21
REMARK    7  A    between atoms: C_22  and  C_24
REMARK                            x       y       z     vdW  Elec       q    Type
REMARK                         _______ _______ _______ _____ _____    ______ ____
ROOT
ATOM      1  C   UNL     1      47.531   3.867  16.632  0.00  0.00    +0.000 C 
ENDROOT
BRANCH   1   2
ATOM      2  C   UNL     1      48.284   4.744  17.624  0.00  0.00    +0.000 A 
ATOM      3  C   UNL     1      48.453   4.349  18.958  0.00  0.00    +0.000 A 
ATOM      4  C   UNL     1      49.164   5.155  19.861  0.00  0.00    +0.000 A 
ATOM      5  C   UNL     1      49.715   6.379  19.453  0.00  0.00    +0.000 A 
ATOM      6  C   UNL     1      49.546   6.774  18.121  0.00  0.00    +0.000 A 
ATOM      7  C   UNL     1      48.834   5.968  17.225  0.00  0.00    +0.000 A 
BRANCH   5   8
ATOM      8  C   UNL     1      50.508   7.246  20.400  0.00  0.00    +0.000 C 
BRANCH   8   9
ATOM      9  N   UNL     1      50.368   8.642  20.070  0.00  0.00    +0.000 N 
ATOM     10  C   UNL     1      49.306   9.409  20.476  0.00  0.00    +0.000 C 
ATOM     11  O   UNL     1      48.368   8.958  21.134  0.00  0.00    +0.000 OA
ATOM     12  H   UNL     1      51.080   9.088  19.495  0.00  0.00    +0.000 HD
BRANCH  10  13
ATOM     13  C   UNL     1      49.315  10.861  19.984  0.00  0.00    +0.000 C 
ATOM     14  C   UNL     1      47.973  11.262  19.365  0.00  0.00    +0.000 C 
ATOM     15  C   UNL     1      47.795  10.687  17.962  0.00  0.00    +0.000 C 
ATOM     16  C   UNL     1      49.007  10.971  17.075  0.00  0.00    +0.000 C 
ATOM     17  N   UNL     1      50.260  10.532  17.694  0.00  0.00    +0.000 NA
ATOM     18  C   UNL     1      50.464  11.158  19.012  0.00  0.00    +0.000 C 
ATOM     19  H   UNL     1      51.043  10.777  17.086  0.00  0.00    +0.000 HD
ENDBRANCH  10  13
ENDBRANCH   8   9
ENDBRANCH   5   8
ENDBRANCH   1   2
BRANCH   1  20
ATOM     20  N   UNL     1      46.921   4.676  15.612  0.00  0.00    +0.000 N 
ATOM     21  C   UNL     1      46.780   4.282  14.305  0.00  0.00    +0.000 C 
ATOM     22  O   UNL     1      47.084   3.156  13.921  0.00  0.00    +0.000 OA
ATOM     23  H   UNL     1      47.007   5.675  15.775  0.00  0.00    +0.000 HD
BRANCH  21  24
ATOM     24  C   UNL     1      46.126   5.241  13.402  0.00  0.00    +0.000 A 
ATOM     25  C   UNL     1      46.770   6.427  13.077  0.00  0.00    +0.000 A 
ATOM     26  S   UNL     1      45.881   7.417  12.009  0.00  0.00    +0.000 S 
ATOM     27  C   UNL     1      44.588   6.312  11.975  0.00  0.00    +0.000 A 
ATOM     28  N   UNL     1      43.457   6.578  11.268  0.00  0.00    +0.000 NA
ATOM     29  C   UNL     1      42.549   5.663  11.351  0.00  0.00    +0.000 A 
ATOM     30  N   UNL     1      42.678   4.498  12.061  0.00  0.00    +0.000 N 
ATOM     31  C   UNL     1      43.816   4.172  12.761  0.00  0.00    +0.000 A 
ATOM     32  O   UNL     1      43.929   3.097  13.341  0.00  0.00    +0.000 OA
ATOM     33  C   UNL     1      44.850   5.185  12.733  0.00  0.00    +0.000 A 
ATOM     34  H   UNL     1      41.937   3.812  12.069  0.00  0.00    +0.000 HD
ENDBRANCH  21  24
ENDBRANCH   1  20
BRANCH   1  35
ATOM     35  N   UNL     1      46.458   3.156  17.297  0.00  0.00    +0.000 NA
ATOM     36  H   UNL     1      46.490   2.195  16.944  0.00  0.00    +0.000 HD
ATOM     37  H   UNL     1      45.577   3.531  16.957  0.00  0.00    +0.000 HD
ENDBRANCH   1  35
TORSDOF 7
ENDMDL
MODEL 9
REMARK VINA RESULT:    -6.864      2.896      9.918
REMARK INTER + INTRA:         -10.723
REMARK INTER:                  -9.288
REMARK INTRA:                  -1.435
REMARK UNBOUND:                -1.251
REMARK  Name = 
REMARK  7 active torsions:
REMARK  status: ('A' for Active; 'I' for Inactive)
REMARK    1  A    between atoms: N_1  and  C_2
REMARK    2  A    between atoms: C_2  and  N_3
REMARK    3  A    between atoms: C_2  and  C_16
REMARK    4  A    between atoms: C_4  and  C_6
REMARK    5  A    between atoms: C_19  and  C_20
REMARK    6  A    between atoms: C_20  and  N_21
REMARK    7  A    between atoms: C_22  and  C_24
REMARK                            x       y       z     vdW  Elec       q    Type
REMARK                         _______ _______ _______ _____ _____    ______ ____
ROOT
ATOM      1  C   UNL     1      49.046   4.113  17.862  0.00  0.00    +0.000 C 
ENDROOT
BRANCH   1   2
ATOM      2  C   UNL     1      48.534   4.828  16.619  0.00  0.00    +0.000 A 
ATOM      3  C   UNL     1      47.533   4.262  15.819  0.00  0.00    +0.000 A 
ATOM      4  C   UNL     1      47.053   4.936  14.685  0.00  0.00    +0.000 A 
ATOM      5  C   UNL     1      47.571   6.186  14.318  0.00  0.00    +0.000 A 
ATOM      6  C   UNL     1      48.572   6.752  15.117  0.00  0.00    +0.000 A 
ATOM      7  C   UNL     1      49.049   6.075  16.245  0.00  0.00    +0.000 A 
BRANCH   5   8
ATOM      8  C   UNL     1      47.049   6.941  13.119  0.00  0.00    +0.000 C 
BRANCH   8   9
ATOM      9  N   UNL     1      45.701   6.543  12.800  0.00  0.00    +0.000 N 
ATOM     10  C   UNL     1      45.338   6.021  11.585  0.00  0.00    +0.000 C 
ATOM     11  O   UNL     1      46.132   5.874  10.656  0.00  0.00    +0.000 OA
ATOM     12  H   UNL     1      44.970   6.667  13.499  0.00  0.00    +0.000 HD
BRANCH  10  13
ATOM     13  C   UNL     1      43.847   5.702  11.424  0.00  0.00    +0.000 C 
ATOM     14  C   UNL     1      43.232   5.179  12.725  0.00  0.00    +0.000 C 
ATOM     15  C   UNL     1      43.611   3.725  12.994  0.00  0.00    +0.000 C 
ATOM     16  C   UNL     1      43.355   2.838  11.775  0.00  0.00    +0.000 C 
ATOM     17  N   UNL     1      43.998   3.360  10.567  0.00  0.00    +0.000 NA
ATOM     18  C   UNL     1      43.561   4.734  10.269  0.00  0.00    +0.000 C 
ATOM     19  H   UNL     1      43.768   2.759   9.774  0.00  0.00    +0.000 HD
ENDBRANCH  10  13
ENDBRANCH   8   9
ENDBRANCH   5   8
ENDBRANCH   1   2
BRANCH   1  20
ATOM     20  N   UNL     1      50.415   3.712  17.680  0.00  0.00    +0.000 N 
ATOM     21  C   UNL     1      51.431   4.040  18.543  0.00  0.00    +0.000 C 
ATOM     22  O   UNL     1      51.229   4.632  19.600  0.00  0.00    +0.000 OA
ATOM     23  H   UNL     1      50.676   3.574  16.709  0.00  0.00    +0.000 HD
BRANCH  21  24
ATOM     24  C   UNL     1      52.768   3.537  18.198  0.00  0.00    +0.000 A 
ATOM     25  C   UNL     1      53.867   4.379  18.302  0.00  0.00    +0.000 A 
ATOM     26  S   UNL     1      55.341   3.634  17.878  0.00  0.00    +0.000 S 
ATOM     27  C   UNL     1      54.558   2.172  17.503  0.00  0.00    +0.000 A 
ATOM     28  N   UNL     1      55.253   1.106  17.025  0.00  0.00    +0.000 NA
ATOM     29  C   UNL     1      54.528   0.071  16.760  0.00  0.00    +0.000 A 
ATOM     30  N   UNL     1      53.172  -0.001  16.951  0.00  0.00    +0.000 N 
ATOM     31  C   UNL     1      52.434   1.038  17.465  0.00  0.00    +0.000 A 
ATOM     32  O   UNL     1      51.231   0.930  17.681  0.00  0.00    +0.000 OA
ATOM     33  C   UNL     1      53.197   2.239  17.740  0.00  0.00    +0.000 A 
ATOM     34  H   UNL     1      52.665  -0.849  16.744  0.00  0.00    +0.000 HD
ENDBRANCH  21  24
ENDBRANCH   1  20
BRANCH   1  35
ATOM     35  N   UNL     1      48.286   2.903  18.102  0.00  0.00    +0.000 NA
ATOM     36  H   UNL     1      48.972   2.149  18.198  0.00  0.00    +0.000 HD
ATOM     37  H   UNL     1      47.773   2.684  17.253  0.00  0.00    +0.000 HD
ENDBRANCH   1  35
TORSDOF 7
ENDMDL
