MODEL 1
REMARK VINA RESULT:    -7.671      0.000      0.000
REMARK INTER + INTRA:         -10.732
REMARK INTER:                 -10.137
REMARK INTRA:                  -0.595
REMARK UNBOUND:                -0.595
REMARK  Name = 
REMARK  6 active torsions:
REMARK  status: ('A' for Active; 'I' for Inactive)
REMARK    1  A    between atoms: C_2  and  C_18
REMARK    2  A    between atoms: N_3  and  C_4
REMARK    3  A    between atoms: C_4  and  C_5
REMARK    4  A    between atoms: C_8  and  C_9
REMARK    5  A    between atoms: C_9  and  N_10
REMARK    6  A    between atoms: C_13  and  O_14
REMARK                            x       y       z     vdW  Elec       q    Type
REMARK                         _______ _______ _______ _____ _____    ______ ____
ROOT
ATOM      1  O   UNL     1      46.654   3.243  13.811  0.00  0.00    +0.000 OA
ATOM      2  C   UNL     1      46.440   4.401  14.171  0.00  0.00    +0.000 C 
ATOM      3  N   UNL     1      45.267   5.048  13.899  0.00  0.00    +0.000 N 
ATOM      4  H   UNL     1      45.133   6.011  14.179  0.00  0.00    +0.000 HD
ENDROOT
BRANCH   2   5
ATOM      5  C   UNL     1      47.440   5.191  14.877  0.00  0.00    +0.000 A 
ATOM      6  C   UNL     1      48.163   6.195  14.245  0.00  0.00    +0.000 A 
ATOM      7  S   UNL     1      49.271   6.975  15.287  0.00  0.00    +0.000 S 
ATOM      8  C   UNL     1      48.819   5.991  16.602  0.00  0.00    +0.000 A 
ATOM      9  N   UNL     1      49.396   6.135  17.824  0.00  0.00    +0.000 NA
ATOM     10  C   UNL     1      48.941   5.332  18.726  0.00  0.00    +0.000 A 
ATOM     11  N   UNL     1      47.960   4.394  18.524  0.00  0.00    +0.000 N 
ATOM     12  C   UNL     1      47.402   4.159  17.290  0.00  0.00    +0.000 A 
ATOM     13  O   UNL     1      46.579   3.261  17.140  0.00  0.00    +0.000 OA
ATOM     14  C   UNL     1      47.846   5.072  16.258  0.00  0.00    +0.000 A 
ATOM     15  H   UNL     1      47.658   3.781  19.266  0.00  0.00    +0.000 HD
ENDBRANCH   2   5
BRANCH   3  16
ATOM     16  C   UNL     1      44.159   4.389  13.259  0.00  0.00    +0.000 C 
BRANCH  16  17
ATOM     17  C   UNL     1      44.378   4.246  11.781  0.00  0.00    +0.000 A 
ATOM     18  C   UNL     1      43.872   3.133  11.133  0.00  0.00    +0.000 A 
ATOM     19  N   UNL     1      44.026   2.939   9.812  0.00  0.00    +0.000 NA
ATOM     20  C   UNL     1      44.718   3.883   9.121  0.00  0.00    +0.000 A 
ATOM     21  C   UNL     1      45.225   5.000   9.775  0.00  0.00    +0.000 A 
ATOM     22  N   UNL     1      45.080   5.202  11.110  0.00  0.00    +0.000 NA
BRANCH  20  23
ATOM     23  C   UNL     1      44.937   3.689   7.625  0.00  0.00    +0.000 C 
BRANCH  23  24
ATOM     24  N   UNL     1      46.315   3.399   7.169  0.00  0.00    +0.000 NA
ATOM     25  C   UNL     1      46.483   3.579   5.718  0.00  0.00    +0.000 C 
ATOM     26  C   UNL     1      47.282   2.388   5.202  0.00  0.00    +0.000 C 
ATOM     27  C   UNL     1      47.770   1.669   6.445  0.00  0.00    +0.000 C 
ATOM     28  C   UNL     1      46.759   2.039   7.525  0.00  0.00    +0.000 C 
BRANCH  27  29
ATOM     29  O   UNL     1      49.072   2.145   6.793  0.00  0.00    +0.000 OA
ATOM     30  H   UNL     1      49.443   2.522   5.973  0.00  0.00    +0.000 HD
ENDBRANCH  27  29
ENDBRANCH  23  24
ENDBRANCH  20  23
ENDBRANCH  16  17
ENDBRANCH   3  16
TORSDOF 6
ENDMDL
MODEL 2
REMARK VINA RESULT:    -7.444      3.277      3.869
REMARK INTER + INTRA:         -10.433
REMARK INTER:                  -9.673
REMARK INTRA:                  -0.759
REMARK UNBOUND:                -0.595
REMARK  Name = 
REMARK  6 active torsions:
REMARK  status: ('A' for Active; 'I' for Inactive)
REMARK    1  A    between atoms: C_2  and  C_18
REMARK    2  A    between atoms: N_3  and  C_4
REMARK    3  A    between atoms: C_4  and  C_5
REMARK    4  A    between atoms: C_8  and  C_9
REMARK    5  A    between atoms: C_9  and  N_10
REMARK    6  A    between atoms: C_13  and  O_14
REMARK                            x       y       z     vdW  Elec       q    Type
REMARK                         _______ _______ _______ _____ _____    ______ ____
ROOT
ATOM      1  O   UNL     1      44.495   8.416  11.160  0.00  0.00    +0.000 OA
ATOM      2  C   UNL     1      45.272   8.200  12.091  0.00  0.00    +0.000 C 
ATOM      3  N   UNL     1      45.063   7.202  13.001  0.00  0.00    +0.000 N 
ATOM      4  H   UNL     1      45.702   7.068  13.775  0.00  0.00    +0.000 HD
ENDROOT
BRANCH   2   5
ATOM      5  C   UNL     1      46.454   9.019  12.322  0.00  0.00    +0.000 A 
ATOM      6  C   UNL     1      46.402  10.407  12.292  0.00  0.00    +0.000 A 
ATOM      7  S   UNL     1      47.918  11.137  12.595  0.00  0.00    +0.000 S 
ATOM      8  C   UNL     1      48.680   9.623  12.766  0.00  0.00    +0.000 A 
ATOM      9  N   UNL     1      50.008   9.527  13.037  0.00  0.00    +0.000 NA
ATOM     10  C   UNL     1      50.441   8.317  13.156  0.00  0.00    +0.000 A 
ATOM     11  N   UNL     1      49.672   7.188  13.029  0.00  0.00    +0.000 N 
ATOM     12  C   UNL     1      48.343   7.232  12.679  0.00  0.00    +0.000 A 
ATOM     13  O   UNL     1      47.709   6.195  12.507  0.00  0.00    +0.000 OA
ATOM     14  C   UNL     1      47.801   8.572  12.586  0.00  0.00    +0.000 A 
ATOM     15  H   UNL     1      50.072   6.266  13.115  0.00  0.00    +0.000 HD
ENDBRANCH   2   5
BRANCH   3  16
ATOM     16  C   UNL     1      43.973   6.270  12.881  0.00  0.00    +0.000 C 
BRANCH  16  17
ATOM     17  C   UNL     1      44.293   5.166  11.915  0.00  0.00    +0.000 A 
ATOM     18  C   UNL     1      43.697   5.175  10.666  0.00  0.00    +0.000 A 
ATOM     19  N   UNL     1      43.937   4.223   9.749  0.00  0.00    +0.000 NA
ATOM     20  C   UNL     1      44.791   3.225  10.097  0.00  0.00    +0.000 A 
ATOM     21  C   UNL     1      45.389   3.219  11.352  0.00  0.00    +0.000 A 
ATOM     22  N   UNL     1      45.148   4.173  12.287  0.00  0.00    +0.000 NA
BRANCH  20  23
ATOM     23  C   UNL     1      45.071   2.112   9.094  0.00  0.00    +0.000 C 
BRANCH  23  24
ATOM     24  N   UNL     1      46.244   2.272   8.205  0.00  0.00    +0.000 NA
ATOM     25  C   UNL     1      46.029   3.282   7.157  0.00  0.00    +0.000 C 
ATOM     26  C   UNL     1      46.551   2.699   5.849  0.00  0.00    +0.000 C 
ATOM     27  C   UNL     1      47.292   1.436   6.247  0.00  0.00    +0.000 C 
ATOM     28  C   UNL     1      46.647   1.009   7.560  0.00  0.00    +0.000 C 
BRANCH  27  29
ATOM     29  O   UNL     1      48.676   1.735   6.441  0.00  0.00    +0.000 OA
ATOM     30  H   UNL     1      48.898   1.397   7.329  0.00  0.00    +0.000 HD
ENDBRANCH  27  29
ENDBRANCH  23  24
ENDBRANCH  20  23
ENDBRANCH  16  17
ENDBRANCH   3  16
TORSDOF 6
ENDMDL
MODEL 3
REMARK VINA RESULT:    -7.365      3.716      6.200
REMARK INTER + INTRA:         -10.327
REMARK INTER:                  -9.417
REMARK INTRA:                  -0.910
REMARK UNBOUND:                -0.595
REMARK  Name = 
REMARK  6 active torsions:
REMARK  status: ('A' for Active; 'I' for Inactive)
REMARK    1  A    between atoms: C_2  and  C_18
REMARK    2  A    between atoms: N_3  and  C_4
REMARK    3  A    between atoms: C_4  and  C_5
REMARK    4  A    between atoms: C_8  and  C_9
REMARK    5  A    between atoms: C_9  and  N_10
REMARK    6  A    between atoms: C_13  and  O_14
REMARK                            x       y       z     vdW  Elec       q    Type
REMARK                         _______ _______ _______ _____ _____    ______ ____
ROOT
ATOM      1  O   UNL     1      51.534   6.160  16.485  0.00  0.00    +0.000 OA
ATOM      2  C   UNL     1      51.250   5.357  17.375  0.00  0.00    +0.000 C 
ATOM      3  N   UNL     1      50.016   5.322  17.963  0.00  0.00    +0.000 N 
ATOM      4  H   UNL     1      49.822   4.673  18.715  0.00  0.00    +0.000 HD
ENDROOT
BRANCH   2   5
ATOM      5  C   UNL     1      52.221   4.408  17.903  0.00  0.00    +0.000 A 
ATOM      6  C   UNL     1      53.381   4.826  18.544  0.00  0.00    +0.000 A 
ATOM      7  S   UNL     1      54.354   3.524  19.073  0.00  0.00    +0.000 S 
ATOM      8  C   UNL     1      53.259   2.376  18.456  0.00  0.00    +0.000 A 
ATOM      9  N   UNL     1      53.492   1.042  18.573  0.00  0.00    +0.000 NA
ATOM     10  C   UNL     1      52.567   0.293  18.074  0.00  0.00    +0.000 A 
ATOM     11  N   UNL     1      51.425   0.750  17.466  0.00  0.00    +0.000 N 
ATOM     12  C   UNL     1      51.182   2.087  17.255  0.00  0.00    +0.000 A 
ATOM     13  O   UNL     1      50.181   2.449  16.643  0.00  0.00    +0.000 OA
ATOM     14  C   UNL     1      52.169   2.967  17.845  0.00  0.00    +0.000 A 
ATOM     15  H   UNL     1      50.745   0.115  17.077  0.00  0.00    +0.000 HD
ENDBRANCH   2   5
BRANCH   3  16
ATOM     16  C   UNL     1      48.931   6.155  17.516  0.00  0.00    +0.000 C 
BRANCH  16  17
ATOM     17  C   UNL     1      48.233   5.563  16.327  0.00  0.00    +0.000 A 
ATOM     18  C   UNL     1      47.456   4.431  16.500  0.00  0.00    +0.000 A 
ATOM     19  N   UNL     1      46.799   3.847  15.484  0.00  0.00    +0.000 NA
ATOM     20  C   UNL     1      46.934   4.408  14.253  0.00  0.00    +0.000 A 
ATOM     21  C   UNL     1      47.714   5.546  14.082  0.00  0.00    +0.000 A 
ATOM     22  N   UNL     1      48.386   6.139  15.102  0.00  0.00    +0.000 NA
BRANCH  20  23
ATOM     23  C   UNL     1      46.225   3.762  13.068  0.00  0.00    +0.000 C 
BRANCH  23  24
ATOM     24  N   UNL     1      45.235   4.583  12.335  0.00  0.00    +0.000 NA
ATOM     25  C   UNL     1      44.277   5.253  13.229  0.00  0.00    +0.000 C 
ATOM     26  C   UNL     1      42.891   5.083  12.620  0.00  0.00    +0.000 C 
ATOM     27  C   UNL     1      43.133   4.519  11.233  0.00  0.00    +0.000 C 
ATOM     28  C   UNL     1      44.476   3.804  11.338  0.00  0.00    +0.000 C 
BRANCH  27  29
ATOM     29  O   UNL     1      43.206   5.587  10.288  0.00  0.00    +0.000 OA
ATOM     30  H   UNL     1      43.362   6.394  10.812  0.00  0.00    +0.000 HD
ENDBRANCH  27  29
ENDBRANCH  23  24
ENDBRANCH  20  23
ENDBRANCH  16  17
ENDBRANCH   3  16
TORSDOF 6
ENDMDL
MODEL 4
REMARK VINA RESULT:    -7.310      1.768      2.249
REMARK INTER + INTRA:         -10.255
REMARK INTER:                  -9.508
REMARK INTRA:                  -0.747
REMARK UNBOUND:                -0.595
REMARK  Name = 
REMARK  6 active torsions:
REMARK  status: ('A' for Active; 'I' for Inactive)
REMARK    1  A    between atoms: C_2  and  C_18
REMARK    2  A    between atoms: N_3  and  C_4
REMARK    3  A    between atoms: C_4  and  C_5
REMARK    4  A    between atoms: C_8  and  C_9
REMARK    5  A    between atoms: C_9  and  N_10
REMARK    6  A    between atoms: C_13  and  O_14
REMARK                            x       y       z     vdW  Elec       q    Type
REMARK                         _______ _______ _______ _____ _____    ______ ____
ROOT
ATOM      1  O   UNL     1      48.212   7.715  12.665  0.00  0.00    +0.000 OA
ATOM      2  C   UNL     1      47.604   7.271  13.640  0.00  0.00    +0.000 C 
ATOM      3  N   UNL     1      46.238   7.226  13.692  0.00  0.00    +0.000 N 
ATOM      4  H   UNL     1      45.766   6.886  14.520  0.00  0.00    +0.000 HD
ENDROOT
BRANCH   2   5
ATOM      5  C   UNL     1      48.291   6.801  14.835  0.00  0.00    +0.000 A 
ATOM      6  C   UNL     1      49.307   7.535  15.434  0.00  0.00    +0.000 A 
ATOM      7  S   UNL     1      49.951   6.771  16.821  0.00  0.00    +0.000 S 
ATOM      8  C   UNL     1      48.898   5.443  16.652  0.00  0.00    +0.000 A 
ATOM      9  N   UNL     1      48.924   4.404  17.528  0.00  0.00    +0.000 NA
ATOM     10  C   UNL     1      48.057   3.479  17.284  0.00  0.00    +0.000 A 
ATOM     11  N   UNL     1      47.162   3.493  16.244  0.00  0.00    +0.000 N 
ATOM     12  C   UNL     1      47.149   4.482  15.289  0.00  0.00    +0.000 A 
ATOM     13  O   UNL     1      46.379   4.417  14.336  0.00  0.00    +0.000 OA
ATOM     14  C   UNL     1      48.071   5.567  15.552  0.00  0.00    +0.000 A 
ATOM     15  H   UNL     1      46.519   2.730  16.093  0.00  0.00    +0.000 HD
ENDBRANCH   2   5
BRANCH   3  16
ATOM     16  C   UNL     1      45.416   7.601  12.572  0.00  0.00    +0.000 C 
BRANCH  16  17
ATOM     17  C   UNL     1      45.254   6.469  11.600  0.00  0.00    +0.000 A 
ATOM     18  C   UNL     1      46.033   6.452  10.456  0.00  0.00    +0.000 A 
ATOM     19  N   UNL     1      45.946   5.471   9.542  0.00  0.00    +0.000 NA
ATOM     20  C   UNL     1      45.044   4.481   9.776  0.00  0.00    +0.000 A 
ATOM     21  C   UNL     1      44.264   4.500  10.927  0.00  0.00    +0.000 A 
ATOM     22  N   UNL     1      44.341   5.491  11.853  0.00  0.00    +0.000 NA
BRANCH  20  23
ATOM     23  C   UNL     1      44.896   3.362   8.752  0.00  0.00    +0.000 C 
BRANCH  23  24
ATOM     24  N   UNL     1      46.114   2.936   8.026  0.00  0.00    +0.000 NA
ATOM     25  C   UNL     1      46.199   3.508   6.673  0.00  0.00    +0.000 C 
ATOM     26  C   UNL     1      46.626   2.388   5.731  0.00  0.00    +0.000 C 
ATOM     27  C   UNL     1      47.021   1.238   6.638  0.00  0.00    +0.000 C 
ATOM     28  C   UNL     1      46.231   1.469   7.920  0.00  0.00    +0.000 C 
BRANCH  27  29
ATOM     29  O   UNL     1      48.425   1.293   6.896  0.00  0.00    +0.000 OA
ATOM     30  H   UNL     1      48.643   0.461   7.357  0.00  0.00    +0.000 HD
ENDBRANCH  27  29
ENDBRANCH  23  24
ENDBRANCH  20  23
ENDBRANCH  16  17
ENDBRANCH   3  16
TORSDOF 6
ENDMDL
MODEL 5
REMARK VINA RESULT:    -7.130      4.017      9.282
REMARK INTER + INTRA:         -10.018
REMARK INTER:                  -9.403
REMARK INTRA:                  -0.615
REMARK UNBOUND:                -0.595
REMARK  Name = 
REMARK  6 active torsions:
REMARK  status: ('A' for Active; 'I' for Inactive)
REMARK    1  A    between atoms: C_2  and  C_18
REMARK    2  A    between atoms: N_3  and  C_4
REMARK    3  A    between atoms: C_4  and  C_5
REMARK    4  A    between atoms: C_8  and  C_9
REMARK    5  A    between atoms: C_9  and  N_10
REMARK    6  A    between atoms: C_13  and  O_14
REMARK                            x       y       z     vdW  Elec       q    Type
REMARK                         _______ _______ _______ _____ _____    ______ ____
ROOT
ATOM      1  O   UNL     1      47.287   2.998  14.213  0.00  0.00    +0.000 OA
ATOM      2  C   UNL     1      46.970   4.113  14.630  0.00  0.00    +0.000 C 
ATOM      3  N   UNL     1      46.827   4.382  15.963  0.00  0.00    +0.000 N 
ATOM      4  H   UNL     1      46.534   5.299  16.275  0.00  0.00    +0.000 HD
ENDROOT
BRANCH   2   5
ATOM      5  C   UNL     1      46.678   5.224  13.734  0.00  0.00    +0.000 A 
ATOM      6  C   UNL     1      47.589   6.250  13.516  0.00  0.00    +0.000 A 
ATOM      7  S   UNL     1      47.012   7.431  12.423  0.00  0.00    +0.000 S 
ATOM      8  C   UNL     1      45.534   6.608  12.221  0.00  0.00    +0.000 A 
ATOM      9  N   UNL     1      44.563   7.090  11.401  0.00  0.00    +0.000 NA
ATOM     10  C   UNL     1      43.507   6.351  11.334  0.00  0.00    +0.000 A 
ATOM     11  N   UNL     1      43.326   5.172  12.012  0.00  0.00    +0.000 N 
ATOM     12  C   UNL     1      44.245   4.685  12.911  0.00  0.00    +0.000 A 
ATOM     13  O   UNL     1      44.011   3.663  13.549  0.00  0.00    +0.000 OA
ATOM     14  C   UNL     1      45.469   5.455  12.979  0.00  0.00    +0.000 A 
ATOM     15  H   UNL     1      42.468   4.647  11.934  0.00  0.00    +0.000 HD
ENDBRANCH   2   5
BRANCH   3  16
ATOM     16  C   UNL     1      47.133   3.409  16.978  0.00  0.00    +0.000 C 
BRANCH  16  17
ATOM     17  C   UNL     1      48.612   3.295  17.208  0.00  0.00    +0.000 A 
ATOM     18  C   UNL     1      49.275   4.336  17.836  0.00  0.00    +0.000 A 
ATOM     19  N   UNL     1      50.596   4.304  18.078  0.00  0.00    +0.000 NA
ATOM     20  C   UNL     1      51.277   3.201  17.669  0.00  0.00    +0.000 A 
ATOM     21  C   UNL     1      50.609   2.158  17.039  0.00  0.00    +0.000 A 
ATOM     22  N   UNL     1      49.275   2.183  16.785  0.00  0.00    +0.000 NA
BRANCH  20  23
ATOM     23  C   UNL     1      52.782   3.136  17.902  0.00  0.00    +0.000 C 
BRANCH  23  24
ATOM     24  N   UNL     1      53.295   2.033  18.747  0.00  0.00    +0.000 NA
ATOM     25  C   UNL     1      54.236   2.498  19.778  0.00  0.00    +0.000 C 
ATOM     26  C   UNL     1      55.413   1.529  19.789  0.00  0.00    +0.000 C 
ATOM     27  C   UNL     1      54.981   0.371  18.910  0.00  0.00    +0.000 C 
ATOM     28  C   UNL     1      53.951   0.972  17.960  0.00  0.00    +0.000 C 
BRANCH  27  29
ATOM     29  O   UNL     1      54.385  -0.647  19.717  0.00  0.00    +0.000 OA
ATOM     30  H   UNL     1      53.684  -0.202  20.229  0.00  0.00    +0.000 HD
ENDBRANCH  27  29
ENDBRANCH  23  24
ENDBRANCH  20  23
ENDBRANCH  16  17
ENDBRANCH   3  16
TORSDOF 6
ENDMDL
MODEL 6
REMARK VINA RESULT:    -7.050      2.854      9.443
REMARK INTER + INTRA:          -9.911
REMARK INTER:                  -9.092
REMARK INTRA:                  -0.820
REMARK UNBOUND:                -0.595
REMARK  Name = 
REMARK  6 active torsions:
REMARK  status: ('A' for Active; 'I' for Inactive)
REMARK    1  A    between atoms: C_2  and  C_18
REMARK    2  A    between atoms: N_3  and  C_4
REMARK    3  A    between atoms: C_4  and  C_5
REMARK    4  A    between atoms: C_8  and  C_9
REMARK    5  A    between atoms: C_9  and  N_10
REMARK    6  A    between atoms: C_13  and  O_14
REMARK                            x       y       z     vdW  Elec       q    Type
REMARK                         _______ _______ _______ _____ _____    ______ ____
ROOT
ATOM      1  O   UNL     1      44.717   7.403  11.724  0.00  0.00    +0.000 OA
ATOM      2  C   UNL     1      45.370   6.359  11.757  0.00  0.00    +0.000 C 
ATOM      3  N   UNL     1      46.706   6.341  12.046  0.00  0.00    +0.000 N 
ATOM      4  H   UNL     1      47.224   5.471  12.033  0.00  0.00    +0.000 HD
ENDROOT
BRANCH   2   5
ATOM      5  C   UNL     1      44.780   5.064  11.446  0.00  0.00    +0.000 A 
ATOM      6  C   UNL     1      44.003   4.371  12.367  0.00  0.00    +0.000 A 
ATOM      7  S   UNL     1      43.426   2.880  11.762  0.00  0.00    +0.000 S 
ATOM      8  C   UNL     1      44.204   3.118  10.265  0.00  0.00    +0.000 A 
ATOM      9  N   UNL     1      44.118   2.197   9.269  0.00  0.00    +0.000 NA
ATOM     10  C   UNL     1      44.742   2.521   8.187  0.00  0.00    +0.000 A 
ATOM     11  N   UNL     1      45.449   3.682   8.004  0.00  0.00    +0.000 N 
ATOM     12  C   UNL     1      45.630   4.607   9.006  0.00  0.00    +0.000 A 
ATOM     13  O   UNL     1      46.330   5.598   8.820  0.00  0.00    +0.000 OA
ATOM     14  C   UNL     1      44.903   4.309  10.221  0.00  0.00    +0.000 A 
ATOM     15  H   UNL     1      45.934   3.872   7.140  0.00  0.00    +0.000 HD
ENDBRANCH   2   5
BRANCH   3  16
ATOM     16  C   UNL     1      47.423   7.527  12.430  0.00  0.00    +0.000 C 
BRANCH  16  17
ATOM     17  C   UNL     1      47.972   7.417  13.823  0.00  0.00    +0.000 A 
ATOM     18  C   UNL     1      48.168   6.160  14.367  0.00  0.00    +0.000 A 
ATOM     19  N   UNL     1      48.658   5.982  15.606  0.00  0.00    +0.000 NA
ATOM     20  C   UNL     1      48.948   7.098  16.326  0.00  0.00    +0.000 A 
ATOM     21  C   UNL     1      48.750   8.359  15.776  0.00  0.00    +0.000 A 
ATOM     22  N   UNL     1      48.251   8.548  14.528  0.00  0.00    +0.000 NA
BRANCH  20  23
ATOM     23  C   UNL     1      49.482   6.940  17.745  0.00  0.00    +0.000 C 
BRANCH  23  24
ATOM     24  N   UNL     1      48.844   5.918  18.606  0.00  0.00    +0.000 NA
ATOM     25  C   UNL     1      47.605   6.400  19.237  0.00  0.00    +0.000 C 
ATOM     26  C   UNL     1      47.639   5.963  20.697  0.00  0.00    +0.000 C 
ATOM     27  C   UNL     1      48.813   5.008  20.797  0.00  0.00    +0.000 C 
ATOM     28  C   UNL     1      49.744   5.422  19.663  0.00  0.00    +0.000 C 
BRANCH  27  29
ATOM     29  O   UNL     1      48.357   3.667  20.607  0.00  0.00    +0.000 OA
ATOM     30  H   UNL     1      48.263   3.290  21.502  0.00  0.00    +0.000 HD
ENDBRANCH  27  29
ENDBRANCH  23  24
ENDBRANCH  20  23
ENDBRANCH  16  17
ENDBRANCH   3  16
TORSDOF 6
ENDMDL
MODEL 7
REMARK VINA RESULT:    -6.925      3.499      8.937
REMARK INTER + INTRA:          -9.747
REMARK INTER:                  -8.972
REMARK INTRA:                  -0.774
REMARK UNBOUND:                -0.595
REMARK  Name = 
REMARK  6 active torsions:
REMARK  status: ('A' for Active; 'I' for Inactive)
REMARK    1  A    between atoms: C_2  and  C_18
REMARK    2  A    between atoms: N_3  and  C_4
REMARK    3  A    between atoms: C_4  and  C_5
REMARK    4  A    between atoms: C_8  and  C_9
REMARK    5  A    between atoms: C_9  and  N_10
REMARK    6  A    between atoms: C_13  and  O_14
REMARK                            x       y       z     vdW  Elec       q    Type
REMARK                         _______ _______ _______ _____ _____    ______ ____
ROOT
ATOM      1  O   UNL     1      45.078   7.967  11.492  0.00  0.00    +0.000 OA
ATOM      2  C   UNL     1      45.813   6.981  11.410  0.00  0.00    +0.000 C 
ATOM      3  N   UNL     1      47.098   6.986  11.878  0.00  0.00    +0.000 N 
ATOM      4  H   UNL     1      47.689   6.172  11.767  0.00  0.00    +0.000 HD
ENDROOT
BRANCH   2   5
ATOM      5  C   UNL     1      45.387   5.746  10.767  0.00  0.00    +0.000 A 
ATOM      6  C   UNL     1      45.676   5.476   9.434  0.00  0.00    +0.000 A 
ATOM      7  S   UNL     1      45.069   3.963   8.916  0.00  0.00    +0.000 S 
ATOM      8  C   UNL     1      44.403   3.638  10.450  0.00  0.00    +0.000 A 
ATOM      9  N   UNL     1      43.729   2.484  10.697  0.00  0.00    +0.000 NA
ATOM     10  C   UNL     1      43.297   2.368  11.908  0.00  0.00    +0.000 A 
ATOM     11  N   UNL     1      43.473   3.299  12.900  0.00  0.00    +0.000 N 
ATOM     12  C   UNL     1      44.079   4.513  12.678  0.00  0.00    +0.000 A 
ATOM     13  O   UNL     1      44.152   5.346  13.577  0.00  0.00    +0.000 OA
ATOM     14  C   UNL     1      44.626   4.665  11.346  0.00  0.00    +0.000 A 
ATOM     15  H   UNL     1      43.095   3.160  13.825  0.00  0.00    +0.000 HD
ENDBRANCH   2   5
BRANCH   3  16
ATOM     16  C   UNL     1      47.650   8.109  12.589  0.00  0.00    +0.000 C 
BRANCH  16  17
ATOM     17  C   UNL     1      48.275   7.688  13.888  0.00  0.00    +0.000 A 
ATOM     18  C   UNL     1      48.158   6.369  14.292  0.00  0.00    +0.000 A 
ATOM     19  N   UNL     1      48.693   5.920  15.439  0.00  0.00    +0.000 NA
ATOM     20  C   UNL     1      49.355   6.820  16.212  0.00  0.00    +0.000 A 
ATOM     21  C   UNL     1      49.472   8.144  15.803  0.00  0.00    +0.000 A 
ATOM     22  N   UNL     1      48.930   8.609  14.648  0.00  0.00    +0.000 NA
BRANCH  20  23
ATOM     23  C   UNL     1      49.956   6.356  17.534  0.00  0.00    +0.000 C 
BRANCH  23  24
ATOM     24  N   UNL     1      49.141   5.447  18.372  0.00  0.00    +0.000 NA
ATOM     25  C   UNL     1      47.977   6.117  18.972  0.00  0.00    +0.000 C 
ATOM     26  C   UNL     1      47.902   5.680  20.430  0.00  0.00    +0.000 C 
ATOM     27  C   UNL     1      48.907   4.552  20.557  0.00  0.00    +0.000 C 
ATOM     28  C   UNL     1      49.923   4.814  19.451  0.00  0.00    +0.000 C 
BRANCH  27  29
ATOM     29  O   UNL     1      48.251   3.300  20.350  0.00  0.00    +0.000 OA
ATOM     30  H   UNL     1      47.622   3.205  21.089  0.00  0.00    +0.000 HD
ENDBRANCH  27  29
ENDBRANCH  23  24
ENDBRANCH  20  23
ENDBRANCH  16  17
ENDBRANCH   3  16
TORSDOF 6
ENDMDL
MODEL 8
REMARK VINA RESULT:    -6.915      3.972      8.566
REMARK INTER + INTRA:          -9.733
REMARK INTER:                  -8.825
REMARK INTRA:                  -0.908
REMARK UNBOUND:                -0.595
REMARK  Name = 
REMARK  6 active torsions:
REMARK  status: ('A' for Active; 'I' for Inactive)
REMARK    1  A    between atoms: C_2  and  C_18
REMARK    2  A    between atoms: N_3  and  C_4
REMARK    3  A    between atoms: C_4  and  C_5
REMARK    4  A    between atoms: C_8  and  C_9
REMARK    5  A    between atoms: C_9  and  N_10
REMARK    6  A    between atoms: C_13  and  O_14
REMARK                            x       y       z     vdW  Elec       q    Type
REMARK                         _______ _______ _______ _____ _____    ______ ____
ROOT
ATOM      1  O   UNL     1      47.847   7.118  11.782  0.00  0.00    +0.000 OA
ATOM      2  C   UNL     1      46.930   6.920  12.581  0.00  0.00    +0.000 C 
ATOM      3  N   UNL     1      47.081   7.103  13.927  0.00  0.00    +0.000 N 
ATOM      4  H   UNL     1      46.319   6.900  14.563  0.00  0.00    +0.000 HD
ENDROOT
BRANCH   2   5
ATOM      5  C   UNL     1      45.625   6.431  12.158  0.00  0.00    +0.000 A 
ATOM      6  C   UNL     1      44.672   7.274  11.598  0.00  0.00    +0.000 A 
ATOM      7  S   UNL     1      43.226   6.461  11.185  0.00  0.00    +0.000 S 
ATOM      8  C   UNL     1      43.831   4.972  11.750  0.00  0.00    +0.000 A 
ATOM      9  N   UNL     1      43.084   3.838  11.692  0.00  0.00    +0.000 NA
ATOM     10  C   UNL     1      43.680   2.784  12.140  0.00  0.00    +0.000 A 
ATOM     11  N   UNL     1      44.956   2.754  12.643  0.00  0.00    +0.000 N 
ATOM     12  C   UNL     1      45.720   3.887  12.793  0.00  0.00    +0.000 A 
ATOM     13  O   UNL     1      46.831   3.824  13.314  0.00  0.00    +0.000 OA
ATOM     14  C   UNL     1      45.112   5.085  12.256  0.00  0.00    +0.000 A 
ATOM     15  H   UNL     1      45.362   1.901  12.996  0.00  0.00    +0.000 HD
ENDBRANCH   2   5
BRANCH   3  16
ATOM     16  C   UNL     1      48.290   7.634  14.498  0.00  0.00    +0.000 C 
BRANCH  16  17
ATOM     17  C   UNL     1      48.911   6.675  15.471  0.00  0.00    +0.000 A 
ATOM     18  C   UNL     1      50.200   6.913  15.916  0.00  0.00    +0.000 A 
ATOM     19  N   UNL     1      50.820   6.101  16.789  0.00  0.00    +0.000 NA
ATOM     20  C   UNL     1      50.133   5.011  17.220  0.00  0.00    +0.000 A 
ATOM     21  C   UNL     1      48.838   4.774  16.772  0.00  0.00    +0.000 A 
ATOM     22  N   UNL     1      48.206   5.586  15.885  0.00  0.00    +0.000 NA
BRANCH  20  23
ATOM     23  C   UNL     1      50.809   4.050  18.192  0.00  0.00    +0.000 C 
BRANCH  23  24
ATOM     24  N   UNL     1      51.806   3.106  17.636  0.00  0.00    +0.000 NA
ATOM     25  C   UNL     1      51.225   1.796  17.303  0.00  0.00    +0.000 C 
ATOM     26  C   UNL     1      52.186   0.730  17.814  0.00  0.00    +0.000 C 
ATOM     27  C   UNL     1      53.439   1.485  18.215  0.00  0.00    +0.000 C 
ATOM     28  C   UNL     1      52.953   2.893  18.539  0.00  0.00    +0.000 C 
BRANCH  27  29
ATOM     29  O   UNL     1      54.354   1.509  17.118  0.00  0.00    +0.000 OA
ATOM     30  H   UNL     1      55.244   1.449  17.514  0.00  0.00    +0.000 HD
ENDBRANCH  27  29
ENDBRANCH  23  24
ENDBRANCH  20  23
ENDBRANCH  16  17
ENDBRANCH   3  16
TORSDOF 6
ENDMDL
MODEL 9
REMARK VINA RESULT:    -6.846      3.402      4.802
REMARK INTER + INTRA:          -9.642
REMARK INTER:                  -8.658
REMARK INTRA:                  -0.984
REMARK UNBOUND:                -0.595
REMARK  Name = 
REMARK  6 active torsions:
REMARK  status: ('A' for Active; 'I' for Inactive)
REMARK    1  A    between atoms: C_2  and  C_18
REMARK    2  A    between atoms: N_3  and  C_4
REMARK    3  A    between atoms: C_4  and  C_5
REMARK    4  A    between atoms: C_8  and  C_9
REMARK    5  A    between atoms: C_9  and  N_10
REMARK    6  A    between atoms: C_13  and  O_14
REMARK                            x       y       z     vdW  Elec       q    Type
REMARK                         _______ _______ _______ _____ _____    ______ ____
ROOT
ATOM      1  O   UNL     1      50.381   7.120  14.665  0.00  0.00    +0.000 OA
ATOM      2  C   UNL     1      49.446   7.050  15.463  0.00  0.00    +0.000 C 
ATOM      3  N   UNL     1      48.309   7.798  15.326  0.00  0.00    +0.000 N 
ATOM      4  H   UNL     1      47.571   7.744  16.016  0.00  0.00    +0.000 HD
ENDROOT
BRANCH   2   5
ATOM      5  C   UNL     1      49.494   6.199  16.644  0.00  0.00    +0.000 A 
ATOM      6  C   UNL     1      50.372   6.448  17.693  0.00  0.00    +0.000 A 
ATOM      7  S   UNL     1      50.234   5.308  18.960  0.00  0.00    +0.000 S 
ATOM      8  C   UNL     1      49.010   4.454  18.139  0.00  0.00    +0.000 A 
ATOM      9  N   UNL     1      48.439   3.345  18.678  0.00  0.00    +0.000 NA
ATOM     10  C   UNL     1      47.514   2.814  17.950  0.00  0.00    +0.000 A 
ATOM     11  N   UNL     1      47.104   3.287  16.730  0.00  0.00    +0.000 N 
ATOM     12  C   UNL     1      47.703   4.357  16.109  0.00  0.00    +0.000 A 
ATOM     13  O   UNL     1      47.351   4.703  14.985  0.00  0.00    +0.000 OA
ATOM     14  C   UNL     1      48.711   5.016  16.913  0.00  0.00    +0.000 A 
ATOM     15  H   UNL     1      46.387   2.817  16.198  0.00  0.00    +0.000 HD
ENDBRANCH   2   5
BRANCH   3  16
ATOM     16  C   UNL     1      48.083   8.646  14.185  0.00  0.00    +0.000 C 
BRANCH  16  17
ATOM     17  C   UNL     1      47.094   8.040  13.233  0.00  0.00    +0.000 A 
ATOM     18  C   UNL     1      45.852   8.634  13.089  0.00  0.00    +0.000 A 
ATOM     19  N   UNL     1      44.917   8.151  12.254  0.00  0.00    +0.000 NA
ATOM     20  C   UNL     1      45.230   7.031  11.551  0.00  0.00    +0.000 A 
ATOM     21  C   UNL     1      46.478   6.436  11.697  0.00  0.00    +0.000 A 
ATOM     22  N   UNL     1      47.427   6.914  12.543  0.00  0.00    +0.000 NA
BRANCH  20  23
ATOM     23  C   UNL     1      44.187   6.435  10.611  0.00  0.00    +0.000 C 
BRANCH  23  24
ATOM     24  N   UNL     1      43.503   5.197  11.047  0.00  0.00    +0.000 NA
ATOM     25  C   UNL     1      43.099   5.238  12.461  0.00  0.00    +0.000 C 
ATOM     26  C   UNL     1      43.467   3.895  13.080  0.00  0.00    +0.000 C 
ATOM     27  C   UNL     1      43.858   3.014  11.908  0.00  0.00    +0.000 C 
ATOM     28  C   UNL     1      44.321   3.988  10.831  0.00  0.00    +0.000 C 
BRANCH  27  29
ATOM     29  O   UNL     1      42.718   2.277  11.463  0.00  0.00    +0.000 OA
ATOM     30  H   UNL     1      42.348   2.787  10.719  0.00  0.00    +0.000 HD
ENDBRANCH  27  29
ENDBRANCH  23  24
ENDBRANCH  20  23
ENDBRANCH  16  17
ENDBRANCH   3  16
TORSDOF 6
ENDMDL
