MODEL 1
REMARK VINA RESULT:    -7.923      0.000      0.000
REMARK INTER + INTRA:          -9.972
REMARK INTER:                  -9.544
REMARK INTRA:                  -0.428
REMARK UNBOUND:                -0.428
REMARK  Name = 
REMARK  4 active torsions:
REMARK  status: ('A' for Active; 'I' for Inactive)
REMARK    1  A    between atoms: C_2  and  O_3
REMARK    2  A    between atoms: C_2  and  C_4
REMARK    3  A    between atoms: N_8  and  C_9
REMARK    4  A    between atoms: C_9  and  C_10
REMARK                            x       y       z     vdW  Elec       q    Type
REMARK                         _______ _______ _______ _____ _____    ______ ____
ROOT
ATOM      1  C   UNL     1      46.404   2.073   7.785  0.00  0.00    +0.000 A 
ATOM      2  C   UNL     1      46.420   3.394   7.347  0.00  0.00    +0.000 A 
ATOM      3  C   UNL     1      45.582   4.320   7.960  0.00  0.00    +0.000 A 
ATOM      4  C   UNL     1      44.737   3.917   8.992  0.00  0.00    +0.000 A 
ATOM      5  N   UNL     1      44.007   4.885   9.657  0.00  0.00    +0.000 N 
ATOM      6  N   UNL     1      44.713   2.634   9.417  0.00  0.00    +0.000 NA
ATOM      7  C   UNL     1      45.528   1.736   8.799  0.00  0.00    +0.000 A 
ATOM      8  H   UNL     1      43.501   5.549   9.088  0.00  0.00    +0.000 HD
ENDROOT
BRANCH   1  10
ATOM      9  O   UNL     1      48.079   1.296   6.304  0.00  0.00    +0.000 OA
ATOM     10  C   UNL     1      47.283   1.051   7.182  0.00  0.00    +0.000 C 
BRANCH  10  11
ATOM     11  O   UNL     1      47.091  -0.181   7.704  0.00  0.00    +0.000 OA
ATOM     12  H   UNL     1      46.222  -0.341   8.110  0.00  0.00    +0.000 HD
ENDBRANCH  10  11
ENDBRANCH   1  10
BRANCH   5  13
ATOM     13  C   UNL     1      43.533   4.659  11.007  0.00  0.00    +0.000 C 
BRANCH  13  14
ATOM     14  C   UNL     1      44.668   4.991  11.953  0.00  0.00    +0.000 A 
ATOM     15  C   UNL     1      45.211   6.284  12.006  0.00  0.00    +0.000 A 
ATOM     16  C   UNL     1      46.276   6.570  12.863  0.00  0.00    +0.000 A 
ATOM     17  C   UNL     1      46.812   5.570  13.672  0.00  0.00    +0.000 A 
ATOM     18  C   UNL     1      46.287   4.280  13.624  0.00  0.00    +0.000 A 
ATOM     19  C   UNL     1      45.225   3.990  12.765  0.00  0.00    +0.000 A 
ENDBRANCH  13  14
ENDBRANCH   5  13
TORSDOF 4
ENDMDL
MODEL 2
REMARK VINA RESULT:    -7.429      3.392      6.169
REMARK INTER + INTRA:          -9.377
REMARK INTER:                  -8.986
REMARK INTRA:                  -0.391
REMARK UNBOUND:                -0.428
REMARK  Name = 
REMARK  4 active torsions:
REMARK  status: ('A' for Active; 'I' for Inactive)
REMARK    1  A    between atoms: C_2  and  O_3
REMARK    2  A    between atoms: C_2  and  C_4
REMARK    3  A    between atoms: N_8  and  C_9
REMARK    4  A    between atoms: C_9  and  C_10
REMARK                            x       y       z     vdW  Elec       q    Type
REMARK                         _______ _______ _______ _____ _____    ______ ____
ROOT
ATOM      1  C   UNL     1      46.576   5.424  12.971  0.00  0.00    +0.000 A 
ATOM      2  C   UNL     1      46.054   4.153  13.196  0.00  0.00    +0.000 A 
ATOM      3  C   UNL     1      45.279   3.556  12.207  0.00  0.00    +0.000 A 
ATOM      4  C   UNL     1      45.030   4.235  11.014  0.00  0.00    +0.000 A 
ATOM      5  N   UNL     1      44.359   3.565  10.009  0.00  0.00    +0.000 N 
ATOM      6  N   UNL     1      45.530   5.470  10.795  0.00  0.00    +0.000 NA
ATOM      7  C   UNL     1      46.275   6.048  11.776  0.00  0.00    +0.000 A 
ATOM      8  H   UNL     1      43.511   3.079  10.268  0.00  0.00    +0.000 HD
ENDROOT
BRANCH   1  10
ATOM      9  O   UNL     1      48.165   5.506  14.725  0.00  0.00    +0.000 OA
ATOM     10  C   UNL     1      47.418   6.099  13.980  0.00  0.00    +0.000 C 
BRANCH  10  11
ATOM     11  O   UNL     1      47.254   7.441  13.987  0.00  0.00    +0.000 OA
ATOM     12  H   UNL     1      47.175   7.866  13.116  0.00  0.00    +0.000 HD
ENDBRANCH  10  11
ENDBRANCH   1  10
BRANCH   5  13
ATOM     13  C   UNL     1      44.506   3.967   8.625  0.00  0.00    +0.000 C 
BRANCH  13  14
ATOM     14  C   UNL     1      45.572   3.088   8.004  0.00  0.00    +0.000 A 
ATOM     15  C   UNL     1      46.390   3.565   6.969  0.00  0.00    +0.000 A 
ATOM     16  C   UNL     1      47.351   2.736   6.386  0.00  0.00    +0.000 A 
ATOM     17  C   UNL     1      47.503   1.423   6.826  0.00  0.00    +0.000 A 
ATOM     18  C   UNL     1      46.691   0.934   7.849  0.00  0.00    +0.000 A 
ATOM     19  C   UNL     1      45.727   1.759   8.431  0.00  0.00    +0.000 A 
ENDBRANCH  13  14
ENDBRANCH   5  13
TORSDOF 4
ENDMDL
MODEL 3
REMARK VINA RESULT:    -7.210      3.681      6.298
REMARK INTER + INTRA:          -9.114
REMARK INTER:                  -8.700
REMARK INTRA:                  -0.413
REMARK UNBOUND:                -0.428
REMARK  Name = 
REMARK  4 active torsions:
REMARK  status: ('A' for Active; 'I' for Inactive)
REMARK    1  A    between atoms: C_2  and  O_3
REMARK    2  A    between atoms: C_2  and  C_4
REMARK    3  A    between atoms: N_8  and  C_9
REMARK    4  A    between atoms: C_9  and  C_10
REMARK                            x       y       z     vdW  Elec       q    Type
REMARK                         _______ _______ _______ _____ _____    ______ ____
ROOT
ATOM      1  C   UNL     1      45.517   6.665  12.465  0.00  0.00    +0.000 A 
ATOM      2  C   UNL     1      46.257   5.592  12.955  0.00  0.00    +0.000 A 
ATOM      3  C   UNL     1      46.000   4.315  12.466  0.00  0.00    +0.000 A 
ATOM      4  C   UNL     1      45.009   4.126  11.503  0.00  0.00    +0.000 A 
ATOM      5  N   UNL     1      44.864   2.866  10.954  0.00  0.00    +0.000 N 
ATOM      6  N   UNL     1      44.286   5.163  11.030  0.00  0.00    +0.000 NA
ATOM      7  C   UNL     1      44.537   6.405  11.527  0.00  0.00    +0.000 A 
ATOM      8  H   UNL     1      44.820   2.087  11.597  0.00  0.00    +0.000 HD
ENDROOT
BRANCH   1  10
ATOM      9  O   UNL     1      45.167   9.006  12.499  0.00  0.00    +0.000 OA
ATOM     10  C   UNL     1      45.757   8.045  12.937  0.00  0.00    +0.000 C 
BRANCH  10  11
ATOM     11  O   UNL     1      46.710   8.115  13.893  0.00  0.00    +0.000 OA
ATOM     12  H   UNL     1      46.427   7.887  14.795  0.00  0.00    +0.000 HD
ENDBRANCH  10  11
ENDBRANCH   1  10
BRANCH   5  13
ATOM     13  C   UNL     1      44.262   2.692   9.648  0.00  0.00    +0.000 C 
BRANCH  13  14
ATOM     14  C   UNL     1      45.384   2.622   8.632  0.00  0.00    +0.000 A 
ATOM     15  C   UNL     1      45.784   3.760   7.916  0.00  0.00    +0.000 A 
ATOM     16  C   UNL     1      46.800   3.675   6.963  0.00  0.00    +0.000 A 
ATOM     17  C   UNL     1      47.425   2.456   6.711  0.00  0.00    +0.000 A 
ATOM     18  C   UNL     1      47.033   1.316   7.411  0.00  0.00    +0.000 A 
ATOM     19  C   UNL     1      46.014   1.396   8.362  0.00  0.00    +0.000 A 
ENDBRANCH  13  14
ENDBRANCH   5  13
TORSDOF 4
ENDMDL
MODEL 4
REMARK VINA RESULT:    -6.729      1.227      2.236
REMARK INTER + INTRA:          -8.534
REMARK INTER:                  -8.384
REMARK INTRA:                  -0.150
REMARK UNBOUND:                -0.428
REMARK  Name = 
REMARK  4 active torsions:
REMARK  status: ('A' for Active; 'I' for Inactive)
REMARK    1  A    between atoms: C_2  and  O_3
REMARK    2  A    between atoms: C_2  and  C_4
REMARK    3  A    between atoms: N_8  and  C_9
REMARK    4  A    between atoms: C_9  and  C_10
REMARK                            x       y       z     vdW  Elec       q    Type
REMARK                         _______ _______ _______ _____ _____    ______ ____
ROOT
ATOM      1  C   UNL     1      46.621   2.673   7.263  0.00  0.00    +0.000 A 
ATOM      2  C   UNL     1      46.033   1.643   7.991  0.00  0.00    +0.000 A 
ATOM      3  C   UNL     1      45.246   1.958   9.094  0.00  0.00    +0.000 A 
ATOM      4  C   UNL     1      45.061   3.291   9.458  0.00  0.00    +0.000 A 
ATOM      5  N   UNL     1      44.179   3.573  10.483  0.00  0.00    +0.000 N 
ATOM      6  N   UNL     1      45.634   4.294   8.757  0.00  0.00    +0.000 NA
ATOM      7  C   UNL     1      46.413   3.970   7.689  0.00  0.00    +0.000 A 
ATOM      8  H   UNL     1      44.275   3.034  11.333  0.00  0.00    +0.000 HD
ENDROOT
BRANCH   1  10
ATOM      9  O   UNL     1      48.282   1.516   6.034  0.00  0.00    +0.000 OA
ATOM     10  C   UNL     1      47.454   2.398   6.074  0.00  0.00    +0.000 C 
BRANCH  10  11
ATOM     11  O   UNL     1      47.201   3.242   5.048  0.00  0.00    +0.000 OA
ATOM     12  H   UNL     1      46.334   3.142   4.619  0.00  0.00    +0.000 HD
ENDBRANCH  10  11
ENDBRANCH   1  10
BRANCH   5  13
ATOM     13  C   UNL     1      43.548   4.873  10.582  0.00  0.00    +0.000 C 
BRANCH  13  14
ATOM     14  C   UNL     1      44.449   5.757  11.420  0.00  0.00    +0.000 A 
ATOM     15  C   UNL     1      45.319   5.207  12.374  0.00  0.00    +0.000 A 
ATOM     16  C   UNL     1      46.123   6.035  13.159  0.00  0.00    +0.000 A 
ATOM     17  C   UNL     1      46.067   7.419  13.003  0.00  0.00    +0.000 A 
ATOM     18  C   UNL     1      45.203   7.978  12.064  0.00  0.00    +0.000 A 
ATOM     19  C   UNL     1      44.394   7.154  11.280  0.00  0.00    +0.000 A 
ENDBRANCH  13  14
ENDBRANCH   5  13
TORSDOF 4
ENDMDL
MODEL 5
REMARK VINA RESULT:    -6.542      3.595      6.207
REMARK INTER + INTRA:          -8.308
REMARK INTER:                  -7.869
REMARK INTRA:                  -0.440
REMARK UNBOUND:                -0.428
REMARK  Name = 
REMARK  4 active torsions:
REMARK  status: ('A' for Active; 'I' for Inactive)
REMARK    1  A    between atoms: C_2  and  O_3
REMARK    2  A    between atoms: C_2  and  C_4
REMARK    3  A    between atoms: N_8  and  C_9
REMARK    4  A    between atoms: C_9  and  C_10
REMARK                            x       y       z     vdW  Elec       q    Type
REMARK                         _______ _______ _______ _____ _____    ______ ____
ROOT
ATOM      1  C   UNL     1      47.498   6.261  13.304  0.00  0.00    +0.000 A 
ATOM      2  C   UNL     1      47.113   5.020  13.800  0.00  0.00    +0.000 A 
ATOM      3  C   UNL     1      46.022   4.373  13.230  0.00  0.00    +0.000 A 
ATOM      4  C   UNL     1      45.328   4.973  12.180  0.00  0.00    +0.000 A 
ATOM      5  N   UNL     1      44.326   4.251  11.560  0.00  0.00    +0.000 N 
ATOM      6  N   UNL     1      45.695   6.181  11.699  0.00  0.00    +0.000 NA
ATOM      7  C   UNL     1      46.756   6.809  12.276  0.00  0.00    +0.000 A 
ATOM      8  H   UNL     1      43.648   3.800  12.158  0.00  0.00    +0.000 HD
ENDROOT
BRANCH   1  10
ATOM      9  O   UNL     1      49.074   8.026  13.399  0.00  0.00    +0.000 OA
ATOM     10  C   UNL     1      48.659   6.987  13.861  0.00  0.00    +0.000 C 
BRANCH  10  11
ATOM     11  O   UNL     1      49.209   6.361  14.925  0.00  0.00    +0.000 OA
ATOM     12  H   UNL     1      48.751   5.560  15.231  0.00  0.00    +0.000 HD
ENDBRANCH  10  11
ENDBRANCH   1  10
BRANCH   5  13
ATOM     13  C   UNL     1      43.926   4.554  10.202  0.00  0.00    +0.000 C 
BRANCH  13  14
ATOM     14  C   UNL     1      44.820   3.760   9.272  0.00  0.00    +0.000 A 
ATOM     15  C   UNL     1      44.904   2.363   9.366  0.00  0.00    +0.000 A 
ATOM     16  C   UNL     1      45.753   1.646   8.521  0.00  0.00    +0.000 A 
ATOM     17  C   UNL     1      46.529   2.315   7.577  0.00  0.00    +0.000 A 
ATOM     18  C   UNL     1      46.461   3.703   7.477  0.00  0.00    +0.000 A 
ATOM     19  C   UNL     1      45.616   4.424   8.323  0.00  0.00    +0.000 A 
ENDBRANCH  13  14
ENDBRANCH   5  13
TORSDOF 4
ENDMDL
MODEL 6
REMARK VINA RESULT:    -6.463      3.906      6.375
REMARK INTER + INTRA:          -8.213
REMARK INTER:                  -8.098
REMARK INTRA:                  -0.115
REMARK UNBOUND:                -0.428
REMARK  Name = 
REMARK  4 active torsions:
REMARK  status: ('A' for Active; 'I' for Inactive)
REMARK    1  A    between atoms: C_2  and  O_3
REMARK    2  A    between atoms: C_2  and  C_4
REMARK    3  A    between atoms: N_8  and  C_9
REMARK    4  A    between atoms: C_9  and  C_10
REMARK                            x       y       z     vdW  Elec       q    Type
REMARK                         _______ _______ _______ _____ _____    ______ ____
ROOT
ATOM      1  C   UNL     1      46.710   7.367  13.002  0.00  0.00    +0.000 A 
ATOM      2  C   UNL     1      45.732   8.116  12.354  0.00  0.00    +0.000 A 
ATOM      3  C   UNL     1      44.943   7.503  11.385  0.00  0.00    +0.000 A 
ATOM      4  C   UNL     1      45.144   6.159  11.072  0.00  0.00    +0.000 A 
ATOM      5  N   UNL     1      44.266   5.554  10.193  0.00  0.00    +0.000 N 
ATOM      6  N   UNL     1      46.096   5.431  11.695  0.00  0.00    +0.000 NA
ATOM      7  C   UNL     1      46.870   6.046  12.630  0.00  0.00    +0.000 A 
ATOM      8  H   UNL     1      44.069   6.043   9.331  0.00  0.00    +0.000 HD
ENDROOT
BRANCH   1  10
ATOM      9  O   UNL     1      48.623   7.482  14.391  0.00  0.00    +0.000 OA
ATOM     10  C   UNL     1      47.566   7.961  14.049  0.00  0.00    +0.000 C 
BRANCH  10  11
ATOM     11  O   UNL     1      47.036   9.081  14.589  0.00  0.00    +0.000 OA
ATOM     12  H   UNL     1      47.521   9.463  15.339  0.00  0.00    +0.000 HD
ENDBRANCH  10  11
ENDBRANCH   1  10
BRANCH   5  13
ATOM     13  C   UNL     1      44.075   4.118  10.208  0.00  0.00    +0.000 C 
BRANCH  13  14
ATOM     14  C   UNL     1      45.021   3.519   9.189  0.00  0.00    +0.000 A 
ATOM     15  C   UNL     1      45.686   4.328   8.255  0.00  0.00    +0.000 A 
ATOM     16  C   UNL     1      46.534   3.760   7.302  0.00  0.00    +0.000 A 
ATOM     17  C   UNL     1      46.725   2.380   7.268  0.00  0.00    +0.000 A 
ATOM     18  C   UNL     1      46.065   1.564   8.186  0.00  0.00    +0.000 A 
ATOM     19  C   UNL     1      45.213   2.128   9.137  0.00  0.00    +0.000 A 
ENDBRANCH  13  14
ENDBRANCH   5  13
TORSDOF 4
ENDMDL
MODEL 7
REMARK VINA RESULT:    -5.902      4.149      5.845
REMARK INTER + INTRA:          -7.538
REMARK INTER:                  -7.242
REMARK INTRA:                  -0.296
REMARK UNBOUND:                -0.428
REMARK  Name = 
REMARK  4 active torsions:
REMARK  status: ('A' for Active; 'I' for Inactive)
REMARK    1  A    between atoms: C_2  and  O_3
REMARK    2  A    between atoms: C_2  and  C_4
REMARK    3  A    between atoms: N_8  and  C_9
REMARK    4  A    between atoms: C_9  and  C_10
REMARK                            x       y       z     vdW  Elec       q    Type
REMARK                         _______ _______ _______ _____ _____    ______ ____
ROOT
ATOM      1  C   UNL     1      45.456   4.855  11.457  0.00  0.00    +0.000 A 
ATOM      2  C   UNL     1      46.356   5.860  11.798  0.00  0.00    +0.000 A 
ATOM      3  C   UNL     1      46.844   5.917  13.100  0.00  0.00    +0.000 A 
ATOM      4  C   UNL     1      46.424   4.978  14.042  0.00  0.00    +0.000 A 
ATOM      5  N   UNL     1      47.018   4.992  15.289  0.00  0.00    +0.000 N 
ATOM      6  N   UNL     1      45.545   4.005  13.716  0.00  0.00    +0.000 NA
ATOM      7  C   UNL     1      45.065   3.969  12.442  0.00  0.00    +0.000 A 
ATOM      8  H   UNL     1      47.085   5.886  15.756  0.00  0.00    +0.000 HD
ENDROOT
BRANCH   1  10
ATOM      9  O   UNL     1      44.052   3.948   9.780  0.00  0.00    +0.000 OA
ATOM     10  C   UNL     1      44.917   4.737  10.086  0.00  0.00    +0.000 C 
BRANCH  10  11
ATOM     11  O   UNL     1      45.502   5.591   9.216  0.00  0.00    +0.000 OA
ATOM     12  H   UNL     1      45.051   5.704   8.362  0.00  0.00    +0.000 HD
ENDBRANCH  10  11
ENDBRANCH   1  10
BRANCH   5  13
ATOM     13  C   UNL     1      47.037   3.801  16.114  0.00  0.00    +0.000 C 
BRANCH  13  14
ATOM     14  C   UNL     1      48.446   3.634  16.645  0.00  0.00    +0.000 A 
ATOM     15  C   UNL     1      49.044   2.367  16.723  0.00  0.00    +0.000 A 
ATOM     16  C   UNL     1      50.333   2.224  17.240  0.00  0.00    +0.000 A 
ATOM     17  C   UNL     1      51.037   3.340  17.688  0.00  0.00    +0.000 A 
ATOM     18  C   UNL     1      50.451   4.603  17.622  0.00  0.00    +0.000 A 
ATOM     19  C   UNL     1      49.161   4.750  17.110  0.00  0.00    +0.000 A 
ENDBRANCH  13  14
ENDBRANCH   5  13
TORSDOF 4
ENDMDL
MODEL 8
REMARK VINA RESULT:    -5.527      3.491      5.141
REMARK INTER + INTRA:          -7.086
REMARK INTER:                  -6.815
REMARK INTRA:                  -0.271
REMARK UNBOUND:                -0.428
REMARK  Name = 
REMARK  4 active torsions:
REMARK  status: ('A' for Active; 'I' for Inactive)
REMARK    1  A    between atoms: C_2  and  O_3
REMARK    2  A    between atoms: C_2  and  C_4
REMARK    3  A    between atoms: N_8  and  C_9
REMARK    4  A    between atoms: C_9  and  C_10
REMARK                            x       y       z     vdW  Elec       q    Type
REMARK                         _______ _______ _______ _____ _____    ______ ____
ROOT
ATOM      1  C   UNL     1      44.684   4.038  11.323  0.00  0.00    +0.000 A 
ATOM      2  C   UNL     1      45.246   3.904  12.588  0.00  0.00    +0.000 A 
ATOM      3  C   UNL     1      45.771   5.029  13.217  0.00  0.00    +0.000 A 
ATOM      4  C   UNL     1      45.734   6.265  12.575  0.00  0.00    +0.000 A 
ATOM      5  N   UNL     1      46.155   7.380  13.276  0.00  0.00    +0.000 N 
ATOM      6  N   UNL     1      45.194   6.399  11.344  0.00  0.00    +0.000 NA
ATOM      7  C   UNL     1      44.697   5.288  10.734  0.00  0.00    +0.000 A 
ATOM      8  H   UNL     1      47.040   7.311  13.759  0.00  0.00    +0.000 HD
ENDROOT
BRANCH   1  10
ATOM      9  O   UNL     1      44.349   2.615   9.461  0.00  0.00    +0.000 OA
ATOM     10  C   UNL     1      44.098   2.882  10.614  0.00  0.00    +0.000 C 
BRANCH  10  11
ATOM     11  O   UNL     1      43.246   2.169  11.385  0.00  0.00    +0.000 OA
ATOM     12  H   UNL     1      42.311   2.430  11.340  0.00  0.00    +0.000 HD
ENDBRANCH  10  11
ENDBRANCH   1  10
BRANCH   5  13
ATOM     13  C   UNL     1      45.689   8.702  12.914  0.00  0.00    +0.000 C 
BRANCH  13  14
ATOM     14  C   UNL     1      46.846   9.435  12.267  0.00  0.00    +0.000 A 
ATOM     15  C   UNL     1      46.675  10.710  11.709  0.00  0.00    +0.000 A 
ATOM     16  C   UNL     1      47.743  11.363  11.091  0.00  0.00    +0.000 A 
ATOM     17  C   UNL     1      48.992  10.749  11.020  0.00  0.00    +0.000 A 
ATOM     18  C   UNL     1      49.175   9.479  11.565  0.00  0.00    +0.000 A 
ATOM     19  C   UNL     1      48.107   8.822  12.180  0.00  0.00    +0.000 A 
ENDBRANCH  13  14
ENDBRANCH   5  13
TORSDOF 4
ENDMDL
MODEL 9
REMARK VINA RESULT:    -5.428      5.835      8.244
REMARK INTER + INTRA:          -6.967
REMARK INTER:                  -6.750
REMARK INTRA:                  -0.217
REMARK UNBOUND:                -0.428
REMARK  Name = 
REMARK  4 active torsions:
REMARK  status: ('A' for Active; 'I' for Inactive)
REMARK    1  A    between atoms: C_2  and  O_3
REMARK    2  A    between atoms: C_2  and  C_4
REMARK    3  A    between atoms: N_8  and  C_9
REMARK    4  A    between atoms: C_9  and  C_10
REMARK                            x       y       z     vdW  Elec       q    Type
REMARK                         _______ _______ _______ _____ _____    ______ ____
ROOT
ATOM      1  C   UNL     1      49.582   4.247  17.802  0.00  0.00    +0.000 A 
ATOM      2  C   UNL     1      48.972   3.015  17.583  0.00  0.00    +0.000 A 
ATOM      3  C   UNL     1      47.979   2.915  16.614  0.00  0.00    +0.000 A 
ATOM      4  C   UNL     1      47.604   4.042  15.884  0.00  0.00    +0.000 A 
ATOM      5  N   UNL     1      46.701   3.881  14.850  0.00  0.00    +0.000 N 
ATOM      6  N   UNL     1      48.189   5.241  16.097  0.00  0.00    +0.000 NA
ATOM      7  C   UNL     1      49.149   5.327  17.058  0.00  0.00    +0.000 A 
ATOM      8  H   UNL     1      45.863   3.353  15.050  0.00  0.00    +0.000 HD
ENDROOT
BRANCH   1  10
ATOM      9  O   UNL     1      51.819   4.547  18.516  0.00  0.00    +0.000 OA
ATOM     10  C   UNL     1      50.653   4.408  18.807  0.00  0.00    +0.000 C 
BRANCH  10  11
ATOM     11  O   UNL     1      50.191   4.370  20.077  0.00  0.00    +0.000 OA
ATOM     12  H   UNL     1      50.755   3.908  20.721  0.00  0.00    +0.000 HD
ENDBRANCH  10  11
ENDBRANCH   1  10
BRANCH   5  13
ATOM     13  C   UNL     1      46.651   4.829  13.756  0.00  0.00    +0.000 C 
BRANCH  13  14
ATOM     14  C   UNL     1      45.357   4.594  13.004  0.00  0.00    +0.000 A 
ATOM     15  C   UNL     1      45.143   3.409  12.284  0.00  0.00    +0.000 A 
ATOM     16  C   UNL     1      43.958   3.216  11.573  0.00  0.00    +0.000 A 
ATOM     17  C   UNL     1      42.975   4.204  11.569  0.00  0.00    +0.000 A 
ATOM     18  C   UNL     1      43.177   5.389  12.275  0.00  0.00    +0.000 A 
ATOM     19  C   UNL     1      44.363   5.586  12.984  0.00  0.00    +0.000 A 
ENDBRANCH  13  14
ENDBRANCH   5  13
TORSDOF 4
ENDMDL
