MODEL 1
REMARK VINA RESULT:    -7.920      0.000      0.000
REMARK INTER + INTRA:         -10.703
REMARK INTER:                 -10.235
REMARK INTRA:                  -0.468
REMARK UNBOUND:                -0.468
REMARK  Name = 
REMARK  5 active torsions:
REMARK  status: ('A' for Active; 'I' for Inactive)
REMARK    1  A    between atoms: C_2  and  C_3
REMARK    2  A    between atoms: C_6  and  N_7
REMARK    3  A    between atoms: N_7  and  C_8
REMARK    4  A    between atoms: C_8  and  C_9
REMARK    5  A    between atoms: C_13  and  C_14
REMARK                            x       y       z     vdW  Elec       q    Type
REMARK                         _______ _______ _______ _____ _____    ______ ____
ROOT
ATOM      1  C   UNL     1      44.993   5.438  11.966  0.00  0.00    +0.000 A 
ATOM      2  C   UNL     1      45.476   6.577  11.308  0.00  0.00    +0.000 A 
ATOM      3  C   UNL     1      46.564   7.283  11.826  0.00  0.00    +0.000 A 
ATOM      4  C   UNL     1      47.191   6.854  13.000  0.00  0.00    +0.000 A 
ATOM      5  C   UNL     1      46.748   5.711  13.683  0.00  0.00    +0.000 A 
ATOM      6  C   UNL     1      45.634   5.029  13.151  0.00  0.00    +0.000 A 
ENDROOT
BRANCH   5   7
ATOM      7  C   UNL     1      47.451   5.204  14.881  0.00  0.00    +0.000 A 
ATOM      8  C   UNL     1      48.519   5.894  15.468  0.00  0.00    +0.000 A 
ATOM      9  N   UNL     1      49.172   5.519  16.600  0.00  0.00    +0.000 NA
ATOM     10  C   UNL     1      48.744   4.380  17.187  0.00  0.00    +0.000 A 
ATOM     11  C   UNL     1      47.712   3.611  16.687  0.00  0.00    +0.000 A 
ATOM     12  F   UNL     1      47.329   2.492  17.313  0.00  0.00    +0.000 F 
ATOM     13  C   UNL     1      47.062   4.020  15.529  0.00  0.00    +0.000 A 
ENDBRANCH   5   7
BRANCH   1  14
ATOM     14  C   UNL     1      43.882   4.590  11.374  0.00  0.00    +0.000 C 
BRANCH  14  15
ATOM     15  N   UNL     1      43.874   4.673   9.923  0.00  0.00    +0.000 N 
ATOM     16  H   UNL     1      43.804   5.615   9.548  0.00  0.00    +0.000 HD
BRANCH  15  20
ATOM     17  C   UNL     1      46.630   2.702   7.591  0.00  0.00    +0.000 A 
ATOM     18  C   UNL     1      46.473   4.074   7.561  0.00  0.00    +0.000 A 
ATOM     19  N   UNL     1      45.580   4.734   8.351  0.00  0.00    +0.000 NA
ATOM     20  C   UNL     1      44.828   3.986   9.184  0.00  0.00    +0.000 A 
ATOM     21  C   UNL     1      44.993   2.597   9.193  0.00  0.00    +0.000 A 
ATOM     22  N   UNL     1      45.893   1.925   8.421  0.00  0.00    +0.000 NA
BRANCH  17  24
ATOM     23  N   UNL     1      48.329   1.509   6.026  0.00  0.00    +0.000 NA
ATOM     24  C   UNL     1      47.585   2.045   6.742  0.00  0.00    +0.000 C 
ENDBRANCH  17  24
ENDBRANCH  15  20
ENDBRANCH  14  15
ENDBRANCH   1  14
TORSDOF 5
ENDMDL
MODEL 2
REMARK VINA RESULT:    -7.830      2.879      4.053
REMARK INTER + INTRA:         -10.586
REMARK INTER:                  -9.989
REMARK INTRA:                  -0.597
REMARK UNBOUND:                -0.468
REMARK  Name = 
REMARK  5 active torsions:
REMARK  status: ('A' for Active; 'I' for Inactive)
REMARK    1  A    between atoms: C_2  and  C_3
REMARK    2  A    between atoms: C_6  and  N_7
REMARK    3  A    between atoms: N_7  and  C_8
REMARK    4  A    between atoms: C_8  and  C_9
REMARK    5  A    between atoms: C_13  and  C_14
REMARK                            x       y       z     vdW  Elec       q    Type
REMARK                         _______ _______ _______ _____ _____    ______ ____
ROOT
ATOM      1  C   UNL     1      44.973   4.974  11.964  0.00  0.00    +0.000 A 
ATOM      2  C   UNL     1      45.540   4.156  12.949  0.00  0.00    +0.000 A 
ATOM      3  C   UNL     1      46.691   4.562  13.628  0.00  0.00    +0.000 A 
ATOM      4  C   UNL     1      47.283   5.797  13.339  0.00  0.00    +0.000 A 
ATOM      5  C   UNL     1      46.739   6.652  12.369  0.00  0.00    +0.000 A 
ATOM      6  C   UNL     1      45.589   6.208  11.683  0.00  0.00    +0.000 A 
ENDROOT
BRANCH   5   7
ATOM      7  C   UNL     1      47.310   7.991  12.111  0.00  0.00    +0.000 A 
ATOM      8  C   UNL     1      46.560   9.165  12.260  0.00  0.00    +0.000 A 
ATOM      9  N   UNL     1      47.034  10.429  12.098  0.00  0.00    +0.000 NA
ATOM     10  C   UNL     1      48.337  10.539  11.759  0.00  0.00    +0.000 A 
ATOM     11  C   UNL     1      49.165   9.451  11.569  0.00  0.00    +0.000 A 
ATOM     12  F   UNL     1      50.451   9.621  11.235  0.00  0.00    +0.000 F 
ATOM     13  C   UNL     1      48.653   8.171  11.743  0.00  0.00    +0.000 A 
ENDBRANCH   5   7
BRANCH   1  14
ATOM     14  C   UNL     1      43.665   4.609  11.284  0.00  0.00    +0.000 C 
BRANCH  14  15
ATOM     15  N   UNL     1      43.765   4.754   9.840  0.00  0.00    +0.000 N 
ATOM     16  H   UNL     1      43.786   5.714   9.506  0.00  0.00    +0.000 HD
BRANCH  15  20
ATOM     17  C   UNL     1      46.536   2.689   7.610  0.00  0.00    +0.000 A 
ATOM     18  C   UNL     1      46.453   4.068   7.605  0.00  0.00    +0.000 A 
ATOM     19  N   UNL     1      45.554   4.758   8.363  0.00  0.00    +0.000 NA
ATOM     20  C   UNL     1      44.720   4.034   9.136  0.00  0.00    +0.000 A 
ATOM     21  C   UNL     1      44.813   2.637   9.120  0.00  0.00    +0.000 A 
ATOM     22  N   UNL     1      45.717   1.936   8.381  0.00  0.00    +0.000 NA
BRANCH  17  24
ATOM     23  N   UNL     1      48.305   1.476   6.140  0.00  0.00    +0.000 NA
ATOM     24  C   UNL     1      47.500   2.001   6.797  0.00  0.00    +0.000 C 
ENDBRANCH  17  24
ENDBRANCH  15  20
ENDBRANCH  14  15
ENDBRANCH   1  14
TORSDOF 5
ENDMDL
MODEL 3
REMARK VINA RESULT:    -7.749      2.947      4.112
REMARK INTER + INTRA:         -10.481
REMARK INTER:                  -9.822
REMARK INTRA:                  -0.660
REMARK UNBOUND:                -0.468
REMARK  Name = 
REMARK  5 active torsions:
REMARK  status: ('A' for Active; 'I' for Inactive)
REMARK    1  A    between atoms: C_2  and  C_3
REMARK    2  A    between atoms: C_6  and  N_7
REMARK    3  A    between atoms: N_7  and  C_8
REMARK    4  A    between atoms: C_8  and  C_9
REMARK    5  A    between atoms: C_13  and  C_14
REMARK                            x       y       z     vdW  Elec       q    Type
REMARK                         _______ _______ _______ _____ _____    ______ ____
ROOT
ATOM      1  C   UNL     1      44.874   4.971  11.915  0.00  0.00    +0.000 A 
ATOM      2  C   UNL     1      45.517   4.109  12.813  0.00  0.00    +0.000 A 
ATOM      3  C   UNL     1      46.661   4.526  13.497  0.00  0.00    +0.000 A 
ATOM      4  C   UNL     1      47.169   5.815  13.303  0.00  0.00    +0.000 A 
ATOM      5  C   UNL     1      46.548   6.715  12.424  0.00  0.00    +0.000 A 
ATOM      6  C   UNL     1      45.408   6.260  11.729  0.00  0.00    +0.000 A 
ENDROOT
BRANCH   5   7
ATOM      7  C   UNL     1      47.030   8.104  12.270  0.00  0.00    +0.000 A 
ATOM      8  C   UNL     1      48.392   8.413  12.147  0.00  0.00    +0.000 A 
ATOM      9  N   UNL     1      48.901   9.657  11.944  0.00  0.00    +0.000 NA
ATOM     10  C   UNL     1      48.005  10.664  11.865  0.00  0.00    +0.000 A 
ATOM     11  C   UNL     1      46.643  10.478  11.990  0.00  0.00    +0.000 A 
ATOM     12  F   UNL     1      45.801  11.516  11.901  0.00  0.00    +0.000 F 
ATOM     13  C   UNL     1      46.150   9.196  12.194  0.00  0.00    +0.000 A 
ENDBRANCH   5   7
BRANCH   1  14
ATOM     14  C   UNL     1      43.572   4.585  11.237  0.00  0.00    +0.000 C 
BRANCH  14  15
ATOM     15  N   UNL     1      43.679   4.699   9.791  0.00  0.00    +0.000 N 
ATOM     16  H   UNL     1      43.682   5.652   9.435  0.00  0.00    +0.000 HD
BRANCH  15  20
ATOM     17  C   UNL     1      46.508   2.644   7.626  0.00  0.00    +0.000 A 
ATOM     18  C   UNL     1      46.406   4.022   7.601  0.00  0.00    +0.000 A 
ATOM     19  N   UNL     1      45.488   4.709   8.338  0.00  0.00    +0.000 NA
ATOM     20  C   UNL     1      44.653   3.983   9.110  0.00  0.00    +0.000 A 
ATOM     21  C   UNL     1      44.765   2.588   9.114  0.00  0.00    +0.000 A 
ATOM     22  N   UNL     1      45.689   1.889   8.395  0.00  0.00    +0.000 NA
BRANCH  17  24
ATOM     23  N   UNL     1      48.299   1.439   6.176  0.00  0.00    +0.000 NA
ATOM     24  C   UNL     1      47.493   1.959   6.835  0.00  0.00    +0.000 C 
ENDBRANCH  17  24
ENDBRANCH  15  20
ENDBRANCH  14  15
ENDBRANCH   1  14
TORSDOF 5
ENDMDL
MODEL 4
REMARK VINA RESULT:    -7.597      2.660      7.359
REMARK INTER + INTRA:         -10.285
REMARK INTER:                  -9.770
REMARK INTRA:                  -0.514
REMARK UNBOUND:                -0.468
REMARK  Name = 
REMARK  5 active torsions:
REMARK  status: ('A' for Active; 'I' for Inactive)
REMARK    1  A    between atoms: C_2  and  C_3
REMARK    2  A    between atoms: C_6  and  N_7
REMARK    3  A    between atoms: N_7  and  C_8
REMARK    4  A    between atoms: C_8  and  C_9
REMARK    5  A    between atoms: C_13  and  C_14
REMARK                            x       y       z     vdW  Elec       q    Type
REMARK                         _______ _______ _______ _____ _____    ______ ____
ROOT
ATOM      1  C   UNL     1      45.355   6.276  11.220  0.00  0.00    +0.000 A 
ATOM      2  C   UNL     1      43.999   6.152  11.550  0.00  0.00    +0.000 A 
ATOM      3  C   UNL     1      43.197   5.212  10.900  0.00  0.00    +0.000 A 
ATOM      4  C   UNL     1      43.743   4.374   9.921  0.00  0.00    +0.000 A 
ATOM      5  C   UNL     1      45.099   4.457   9.569  0.00  0.00    +0.000 A 
ATOM      6  C   UNL     1      45.881   5.430  10.225  0.00  0.00    +0.000 A 
ENDROOT
BRANCH   5   7
ATOM      7  C   UNL     1      45.703   3.526   8.592  0.00  0.00    +0.000 A 
ATOM      8  C   UNL     1      46.370   3.975   7.445  0.00  0.00    +0.000 A 
ATOM      9  N   UNL     1      46.998   3.181   6.538  0.00  0.00    +0.000 NA
ATOM     10  C   UNL     1      46.956   1.853   6.777  0.00  0.00    +0.000 A 
ATOM     11  C   UNL     1      46.313   1.298   7.865  0.00  0.00    +0.000 A 
ATOM     12  F   UNL     1      46.307  -0.028   8.052  0.00  0.00    +0.000 F 
ATOM     13  C   UNL     1      45.681   2.134   8.777  0.00  0.00    +0.000 A 
ENDBRANCH   5   7
BRANCH   1  14
ATOM     14  C   UNL     1      46.276   7.214  11.980  0.00  0.00    +0.000 C 
BRANCH  14  15
ATOM     15  N   UNL     1      47.476   6.525  12.426  0.00  0.00    +0.000 N 
ATOM     16  H   UNL     1      48.320   7.091  12.427  0.00  0.00    +0.000 HD
BRANCH  15  20
ATOM     17  C   UNL     1      47.582   4.320  15.896  0.00  0.00    +0.000 A 
ATOM     18  C   UNL     1      48.236   5.530  15.761  0.00  0.00    +0.000 A 
ATOM     19  N   UNL     1      48.181   6.277  14.623  0.00  0.00    +0.000 NA
ATOM     20  C   UNL     1      47.454   5.784  13.599  0.00  0.00    +0.000 A 
ATOM     21  C   UNL     1      46.809   4.551  13.751  0.00  0.00    +0.000 A 
ATOM     22  N   UNL     1      46.841   3.802  14.889  0.00  0.00    +0.000 NA
BRANCH  17  24
ATOM     23  N   UNL     1      47.690   2.944  18.100  0.00  0.00    +0.000 NA
ATOM     24  C   UNL     1      47.664   3.564  17.115  0.00  0.00    +0.000 C 
ENDBRANCH  17  24
ENDBRANCH  15  20
ENDBRANCH  14  15
ENDBRANCH   1  14
TORSDOF 5
ENDMDL
MODEL 5
REMARK VINA RESULT:    -7.448      3.080      7.332
REMARK INTER + INTRA:         -10.093
REMARK INTER:                  -9.499
REMARK INTRA:                  -0.594
REMARK UNBOUND:                -0.468
REMARK  Name = 
REMARK  5 active torsions:
REMARK  status: ('A' for Active; 'I' for Inactive)
REMARK    1  A    between atoms: C_2  and  C_3
REMARK    2  A    between atoms: C_6  and  N_7
REMARK    3  A    between atoms: N_7  and  C_8
REMARK    4  A    between atoms: C_8  and  C_9
REMARK    5  A    between atoms: C_13  and  C_14
REMARK                            x       y       z     vdW  Elec       q    Type
REMARK                         _______ _______ _______ _____ _____    ______ ____
ROOT
ATOM      1  C   UNL     1      44.327   5.418  11.031  0.00  0.00    +0.000 A 
ATOM      2  C   UNL     1      43.484   4.632  11.827  0.00  0.00    +0.000 A 
ATOM      3  C   UNL     1      43.317   3.273  11.552  0.00  0.00    +0.000 A 
ATOM      4  C   UNL     1      44.000   2.680  10.485  0.00  0.00    +0.000 A 
ATOM      5  C   UNL     1      44.864   3.428   9.671  0.00  0.00    +0.000 A 
ATOM      6  C   UNL     1      44.997   4.803   9.957  0.00  0.00    +0.000 A 
ENDROOT
BRANCH   5   7
ATOM      7  C   UNL     1      45.650   2.795   8.590  0.00  0.00    +0.000 A 
ATOM      8  C   UNL     1      46.263   3.543   7.575  0.00  0.00    +0.000 A 
ATOM      9  N   UNL     1      47.046   3.035   6.588  0.00  0.00    +0.000 NA
ATOM     10  C   UNL     1      47.230   1.697   6.599  0.00  0.00    +0.000 A 
ATOM     11  C   UNL     1      46.662   0.862   7.540  0.00  0.00    +0.000 A 
ATOM     12  F   UNL     1      46.882  -0.459   7.503  0.00  0.00    +0.000 F 
ATOM     13  C   UNL     1      45.867   1.409   8.539  0.00  0.00    +0.000 A 
ENDBRANCH   5   7
BRANCH   1  14
ATOM     14  C   UNL     1      44.610   6.872  11.367  0.00  0.00    +0.000 C 
BRANCH  14  15
ATOM     15  N   UNL     1      44.934   7.031  12.776  0.00  0.00    +0.000 N 
ATOM     16  H   UNL     1      44.497   6.352  13.395  0.00  0.00    +0.000 HD
BRANCH  15  20
ATOM     17  C   UNL     1      48.874   7.592  13.813  0.00  0.00    +0.000 A 
ATOM     18  C   UNL     1      47.977   8.637  13.697  0.00  0.00    +0.000 A 
ATOM     19  N   UNL     1      46.664   8.453  13.380  0.00  0.00    +0.000 NA
ATOM     20  C   UNL     1      46.255   7.185  13.171  0.00  0.00    +0.000 A 
ATOM     21  C   UNL     1      47.180   6.141  13.282  0.00  0.00    +0.000 A 
ATOM     22  N   UNL     1      48.491   6.308  13.614  0.00  0.00    +0.000 NA
BRANCH  17  24
ATOM     23  N   UNL     1      51.358   8.061  14.418  0.00  0.00    +0.000 NA
ATOM     24  C   UNL     1      50.250   7.829  14.150  0.00  0.00    +0.000 C 
ENDBRANCH  17  24
ENDBRANCH  15  20
ENDBRANCH  14  15
ENDBRANCH   1  14
TORSDOF 5
ENDMDL
MODEL 6
REMARK VINA RESULT:    -7.099      2.580      7.945
REMARK INTER + INTRA:          -9.641
REMARK INTER:                  -9.220
REMARK INTRA:                  -0.421
REMARK UNBOUND:                -0.468
REMARK  Name = 
REMARK  5 active torsions:
REMARK  status: ('A' for Active; 'I' for Inactive)
REMARK    1  A    between atoms: C_2  and  C_3
REMARK    2  A    between atoms: C_6  and  N_7
REMARK    3  A    between atoms: N_7  and  C_8
REMARK    4  A    between atoms: C_8  and  C_9
REMARK    5  A    between atoms: C_13  and  C_14
REMARK                            x       y       z     vdW  Elec       q    Type
REMARK                         _______ _______ _______ _____ _____    ______ ____
ROOT
ATOM      1  C   UNL     1      45.163   5.186  12.669  0.00  0.00    +0.000 A 
ATOM      2  C   UNL     1      43.774   5.235  12.850  0.00  0.00    +0.000 A 
ATOM      3  C   UNL     1      42.915   4.780  11.848  0.00  0.00    +0.000 A 
ATOM      4  C   UNL     1      43.432   4.260  10.656  0.00  0.00    +0.000 A 
ATOM      5  C   UNL     1      44.816   4.182  10.439  0.00  0.00    +0.000 A 
ATOM      6  C   UNL     1      45.661   4.668  11.459  0.00  0.00    +0.000 A 
ENDROOT
BRANCH   5   7
ATOM      7  C   UNL     1      45.373   3.563   9.218  0.00  0.00    +0.000 A 
ATOM      8  C   UNL     1      45.771   4.323   8.110  0.00  0.00    +0.000 A 
ATOM      9  N   UNL     1      46.344   3.829   6.981  0.00  0.00    +0.000 NA
ATOM     10  C   UNL     1      46.529   2.492   6.941  0.00  0.00    +0.000 A 
ATOM     11  C   UNL     1      46.160   1.644   7.967  0.00  0.00    +0.000 A 
ATOM     12  F   UNL     1      46.371   0.326   7.872  0.00  0.00    +0.000 F 
ATOM     13  C   UNL     1      45.578   2.178   9.110  0.00  0.00    +0.000 A 
ENDBRANCH   5   7
BRANCH   1  14
ATOM     14  C   UNL     1      46.124   5.574  13.779  0.00  0.00    +0.000 C 
BRANCH  14  15
ATOM     15  N   UNL     1      46.217   4.525  14.782  0.00  0.00    +0.000 N 
ATOM     16  H   UNL     1      45.981   3.593  14.451  0.00  0.00    +0.000 HD
BRANCH  15  20
ATOM     17  C   UNL     1      49.475   4.186  17.269  0.00  0.00    +0.000 A 
ATOM     18  C   UNL     1      48.598   3.142  17.042  0.00  0.00    +0.000 A 
ATOM     19  N   UNL     1      47.533   3.241  16.198  0.00  0.00    +0.000 NA
ATOM     20  C   UNL     1      47.350   4.425  15.577  0.00  0.00    +0.000 A 
ATOM     21  C   UNL     1      48.242   5.474  15.828  0.00  0.00    +0.000 A 
ATOM     22  N   UNL     1      49.321   5.383  16.656  0.00  0.00    +0.000 NA
BRANCH  17  24
ATOM     23  N   UNL     1      51.486   3.959  18.901  0.00  0.00    +0.000 NA
ATOM     24  C   UNL     1      50.588   4.039  18.165  0.00  0.00    +0.000 C 
ENDBRANCH  17  24
ENDBRANCH  15  20
ENDBRANCH  14  15
ENDBRANCH   1  14
TORSDOF 5
ENDMDL
MODEL 7
REMARK VINA RESULT:    -6.730      3.514      7.567
REMARK INTER + INTRA:          -9.165
REMARK INTER:                  -8.561
REMARK INTRA:                  -0.603
REMARK UNBOUND:                -0.468
REMARK  Name = 
REMARK  5 active torsions:
REMARK  status: ('A' for Active; 'I' for Inactive)
REMARK    1  A    between atoms: C_2  and  C_3
REMARK    2  A    between atoms: C_6  and  N_7
REMARK    3  A    between atoms: N_7  and  C_8
REMARK    4  A    between atoms: C_8  and  C_9
REMARK    5  A    between atoms: C_13  and  C_14
REMARK                            x       y       z     vdW  Elec       q    Type
REMARK                         _______ _______ _______ _____ _____    ______ ____
ROOT
ATOM      1  C   UNL     1      48.256   6.673  14.330  0.00  0.00    +0.000 A 
ATOM      2  C   UNL     1      48.730   7.700  13.501  0.00  0.00    +0.000 A 
ATOM      3  C   UNL     1      48.248   7.833  12.198  0.00  0.00    +0.000 A 
ATOM      4  C   UNL     1      47.277   6.952  11.709  0.00  0.00    +0.000 A 
ATOM      5  C   UNL     1      46.767   5.919  12.510  0.00  0.00    +0.000 A 
ATOM      6  C   UNL     1      47.287   5.793  13.815  0.00  0.00    +0.000 A 
ENDROOT
BRANCH   5   7
ATOM      7  C   UNL     1      45.686   5.031  12.031  0.00  0.00    +0.000 A 
ATOM      8  C   UNL     1      45.051   4.106  12.870  0.00  0.00    +0.000 A 
ATOM      9  N   UNL     1      44.015   3.302  12.514  0.00  0.00    +0.000 NA
ATOM     10  C   UNL     1      43.581   3.415  11.241  0.00  0.00    +0.000 A 
ATOM     11  C   UNL     1      44.142   4.280  10.323  0.00  0.00    +0.000 A 
ATOM     12  F   UNL     1      43.668   4.352   9.072  0.00  0.00    +0.000 F 
ATOM     13  C   UNL     1      45.199   5.092  10.715  0.00  0.00    +0.000 A 
ENDBRANCH   5   7
BRANCH   1  14
ATOM     14  C   UNL     1      48.682   6.565  15.783  0.00  0.00    +0.000 C 
BRANCH  14  15
ATOM     15  N   UNL     1      48.126   5.375  16.406  0.00  0.00    +0.000 N 
ATOM     16  H   UNL     1      47.308   4.989  15.940  0.00  0.00    +0.000 HD
BRANCH  15  20
ATOM     17  C   UNL     1      50.717   2.319  17.335  0.00  0.00    +0.000 A 
ATOM     18  C   UNL     1      51.012   3.646  17.579  0.00  0.00    +0.000 A 
ATOM     19  N   UNL     1      50.145   4.660  17.298  0.00  0.00    +0.000 NA
ATOM     20  C   UNL     1      48.959   4.320  16.753  0.00  0.00    +0.000 A 
ATOM     21  C   UNL     1      48.683   2.971  16.503  0.00  0.00    +0.000 A 
ATOM     22  N   UNL     1      49.533   1.946  16.794  0.00  0.00    +0.000 NA
BRANCH  17  24
ATOM     23  N   UNL     1      52.401   0.431  17.938  0.00  0.00    +0.000 NA
ATOM     24  C   UNL     1      51.658   1.279  17.648  0.00  0.00    +0.000 C 
ENDBRANCH  17  24
ENDBRANCH  15  20
ENDBRANCH  14  15
ENDBRANCH   1  14
TORSDOF 5
ENDMDL
MODEL 8
REMARK VINA RESULT:    -6.506      3.372      7.731
REMARK INTER + INTRA:          -8.875
REMARK INTER:                  -8.396
REMARK INTRA:                  -0.479
REMARK UNBOUND:                -0.468
REMARK  Name = 
REMARK  5 active torsions:
REMARK  status: ('A' for Active; 'I' for Inactive)
REMARK    1  A    between atoms: C_2  and  C_3
REMARK    2  A    between atoms: C_6  and  N_7
REMARK    3  A    between atoms: N_7  and  C_8
REMARK    4  A    between atoms: C_8  and  C_9
REMARK    5  A    between atoms: C_13  and  C_14
REMARK                            x       y       z     vdW  Elec       q    Type
REMARK                         _______ _______ _______ _____ _____    ______ ____
ROOT
ATOM      1  C   UNL     1      45.034   6.352  11.385  0.00  0.00    +0.000 A 
ATOM      2  C   UNL     1      43.733   6.097  11.838  0.00  0.00    +0.000 A 
ATOM      3  C   UNL     1      43.000   5.029  11.316  0.00  0.00    +0.000 A 
ATOM      4  C   UNL     1      43.561   4.195  10.343  0.00  0.00    +0.000 A 
ATOM      5  C   UNL     1      44.866   4.408   9.871  0.00  0.00    +0.000 A 
ATOM      6  C   UNL     1      45.576   5.506  10.399  0.00  0.00    +0.000 A 
ENDROOT
BRANCH   5   7
ATOM      7  C   UNL     1      45.497   3.488   8.901  0.00  0.00    +0.000 A 
ATOM      8  C   UNL     1      45.601   2.111   9.136  0.00  0.00    +0.000 A 
ATOM      9  N   UNL     1      46.114   1.201   8.266  0.00  0.00    +0.000 NA
ATOM     10  C   UNL     1      46.560   1.685   7.088  0.00  0.00    +0.000 A 
ATOM     11  C   UNL     1      46.523   3.025   6.756  0.00  0.00    +0.000 A 
ATOM     12  F   UNL     1      46.978   3.448   5.570  0.00  0.00    +0.000 F 
ATOM     13  C   UNL     1      45.991   3.933   7.664  0.00  0.00    +0.000 A 
ENDBRANCH   5   7
BRANCH   1  14
ATOM     14  C   UNL     1      45.893   7.438  12.007  0.00  0.00    +0.000 C 
BRANCH  14  15
ATOM     15  N   UNL     1      46.498   6.983  13.248  0.00  0.00    +0.000 N 
ATOM     16  H   UNL     1      46.320   6.008  13.479  0.00  0.00    +0.000 HD
BRANCH  15  20
ATOM     17  C   UNL     1      50.414   7.861  14.148  0.00  0.00    +0.000 A 
ATOM     18  C   UNL     1      49.571   7.219  15.034  0.00  0.00    +0.000 A 
ATOM     19  N   UNL     1      48.281   6.901  14.731  0.00  0.00    +0.000 NA
ATOM     20  C   UNL     1      47.836   7.248  13.506  0.00  0.00    +0.000 A 
ATOM     21  C   UNL     1      48.701   7.908  12.626  0.00  0.00    +0.000 A 
ATOM     22  N   UNL     1      49.997   8.217  12.910  0.00  0.00    +0.000 NA
BRANCH  17  24
ATOM     23  N   UNL     1      52.855   8.469  14.807  0.00  0.00    +0.000 NA
ATOM     24  C   UNL     1      51.769   8.176  14.507  0.00  0.00    +0.000 C 
ENDBRANCH  17  24
ENDBRANCH  15  20
ENDBRANCH  14  15
ENDBRANCH   1  14
TORSDOF 5
ENDMDL
MODEL 9
REMARK VINA RESULT:    -6.380      3.024      8.377
REMARK INTER + INTRA:          -8.713
REMARK INTER:                  -8.301
REMARK INTRA:                  -0.412
REMARK UNBOUND:                -0.468
REMARK  Name = 
REMARK  5 active torsions:
REMARK  status: ('A' for Active; 'I' for Inactive)
REMARK    1  A    between atoms: C_2  and  C_3
REMARK    2  A    between atoms: C_6  and  N_7
REMARK    3  A    between atoms: N_7  and  C_8
REMARK    4  A    between atoms: C_8  and  C_9
REMARK    5  A    between atoms: C_13  and  C_14
REMARK                            x       y       z     vdW  Elec       q    Type
REMARK                         _______ _______ _______ _____ _____    ______ ____
ROOT
ATOM      1  C   UNL     1      46.955   7.150  13.052  0.00  0.00    +0.000 A 
ATOM      2  C   UNL     1      46.141   8.290  13.035  0.00  0.00    +0.000 A 
ATOM      3  C   UNL     1      45.063   8.374  12.151  0.00  0.00    +0.000 A 
ATOM      4  C   UNL     1      44.777   7.315  11.283  0.00  0.00    +0.000 A 
ATOM      5  C   UNL     1      45.559   6.150  11.277  0.00  0.00    +0.000 A 
ATOM      6  C   UNL     1      46.655   6.100  12.164  0.00  0.00    +0.000 A 
ENDROOT
BRANCH   5   7
ATOM      7  C   UNL     1      45.220   4.994  10.420  0.00  0.00    +0.000 A 
ATOM      8  C   UNL     1      44.397   3.950  10.863  0.00  0.00    +0.000 A 
ATOM      9  N   UNL     1      43.996   2.891  10.112  0.00  0.00    +0.000 NA
ATOM     10  C   UNL     1      44.447   2.856   8.839  0.00  0.00    +0.000 A 
ATOM     11  C   UNL     1      45.276   3.820   8.302  0.00  0.00    +0.000 A 
ATOM     12  F   UNL     1      45.690   3.734   7.032  0.00  0.00    +0.000 F 
ATOM     13  C   UNL     1      45.668   4.893   9.093  0.00  0.00    +0.000 A 
ENDBRANCH   5   7
BRANCH   1  14
ATOM     14  C   UNL     1      48.069   6.984  14.071  0.00  0.00    +0.000 C 
BRANCH  14  15
ATOM     15  N   UNL     1      47.786   5.889  14.985  0.00  0.00    +0.000 N 
ATOM     16  H   UNL     1      47.712   4.974  14.547  0.00  0.00    +0.000 HD
BRANCH  15  20
ATOM     17  C   UNL     1      49.850   5.385  18.506  0.00  0.00    +0.000 A 
ATOM     18  C   UNL     1      49.411   4.322  17.740  0.00  0.00    +0.000 A 
ATOM     19  N   UNL     1      48.750   4.484  16.559  0.00  0.00    +0.000 NA
ATOM     20  C   UNL     1      48.526   5.749  16.151  0.00  0.00    +0.000 A 
ATOM     21  C   UNL     1      48.968   6.813  16.945  0.00  0.00    +0.000 A 
ATOM     22  N   UNL     1      49.644   6.666  18.119  0.00  0.00    +0.000 NA
BRANCH  17  24
ATOM     23  N   UNL     1      51.080   4.969  20.759  0.00  0.00    +0.000 NA
ATOM     24  C   UNL     1      50.545   5.170  19.745  0.00  0.00    +0.000 C 
ENDBRANCH  17  24
ENDBRANCH  15  20
ENDBRANCH  14  15
ENDBRANCH   1  14
TORSDOF 5
ENDMDL
