MODEL 1
REMARK VINA RESULT:    -6.966      0.000      0.000
REMARK INTER + INTRA:         -11.181
REMARK INTER:                 -10.225
REMARK INTRA:                  -0.957
REMARK UNBOUND:                -0.957
REMARK  Name = 
REMARK  12 active torsions:
REMARK  status: ('A' for Active; 'I' for Inactive)
REMARK    1  A    between atoms: C_1  and  C_2
REMARK    2  A    between atoms: C_2  and  N_3
REMARK    3  A    between atoms: N_3  and  C_4
REMARK    4  A    between atoms: C_4  and  C_5
REMARK    5  A    between atoms: C_6  and  C_8
REMARK    6  A    between atoms: C_11  and  O_12
REMARK    7  A    between atoms: O_12  and  C_13
REMARK    8  A    between atoms: C_13  and  C_14
REMARK    9  A    between atoms: C_14  and  C_15
REMARK   10  A    between atoms: C_14  and  C_16
REMARK   11  A    between atoms: C_14  and  C_17
REMARK   12  A    between atoms: C_21  and  C_22
REMARK                            x       y       z     vdW  Elec       q    Type
REMARK                         _______ _______ _______ _____ _____    ______ ____
ROOT
ATOM      1  C   UNL     1      48.139   5.270  16.444  0.00  0.00    +0.000 A 
ATOM      2  C   UNL     1      48.441   6.175  15.423  0.00  0.00    +0.000 A 
ATOM      3  C   UNL     1      47.807   6.062  14.188  0.00  0.00    +0.000 A 
ATOM      4  C   UNL     1      46.962   4.988  13.986  0.00  0.00    +0.000 A 
ATOM      5  N   UNL     1      46.751   4.020  14.903  0.00  0.00    +0.000 NA
ATOM      6  C   UNL     1      47.349   4.179  16.110  0.00  0.00    +0.000 A 
ENDROOT
BRANCH   1   8
ATOM      7  N   UNL     1      49.793   4.816  18.295  0.00  0.00    +0.000 N 
ATOM      8  C   UNL     1      48.588   5.408  17.856  0.00  0.00    +0.000 C 
ATOM      9  O   UNL     1      47.886   6.100  18.595  0.00  0.00    +0.000 OA
BRANCH   7  11
ATOM     10  C   UNL     1      51.529   4.837  20.086  0.00  0.00    +0.000 C 
ATOM     11  C   UNL     1      50.046   4.846  19.739  0.00  0.00    +0.000 C 
ENDBRANCH   7  11
BRANCH   7  12
ATOM     12  C   UNL     1      50.659   3.992  17.442  0.00  0.00    +0.000 C 
ATOM     13  C   UNL     1      50.431   2.495  17.393  0.00  0.00    +0.000 C 
ENDBRANCH   7  12
ENDBRANCH   1   8
BRANCH   4  14
ATOM     14  O   UNL     1      46.336   4.915  12.758  0.00  0.00    +0.000 OA
BRANCH  14  15
ATOM     15  C   UNL     1      45.537   3.731  12.637  0.00  0.00    +0.000 C 
BRANCH  15  16
ATOM     16  C   UNL     1      44.487   3.871  11.499  0.00  0.00    +0.000 C 
ATOM     17  C   UNL     1      43.390   2.799  11.705  0.00  0.00    +0.000 C 
ATOM     18  C   UNL     1      43.846   5.275  11.614  0.00  0.00    +0.000 C 
BRANCH  16  19
ATOM     19  C   UNL     1      45.101   3.698  10.095  0.00  0.00    +0.000 A 
ATOM     20  C   UNL     1      45.337   4.778   9.222  0.00  0.00    +0.000 A 
ATOM     21  C   UNL     1      45.921   4.588   7.965  0.00  0.00    +0.000 A 
ATOM     22  C   UNL     1      46.284   3.316   7.542  0.00  0.00    +0.000 A 
ATOM     23  C   UNL     1      46.055   2.228   8.383  0.00  0.00    +0.000 A 
ATOM     24  C   UNL     1      45.466   2.422   9.640  0.00  0.00    +0.000 A 
BRANCH  23  25
ATOM     25  C   UNL     1      46.422   0.911   7.969  0.00  0.00    +0.000 C 
ATOM     26  N   UNL     1      46.721  -0.155   7.631  0.00  0.00    +0.000 NA
ENDBRANCH  23  25
ENDBRANCH  16  19
ENDBRANCH  15  16
ENDBRANCH  14  15
ENDBRANCH   4  14
TORSDOF 8
ENDMDL
MODEL 2
REMARK VINA RESULT:    -6.648      1.590      2.062
REMARK INTER + INTRA:         -10.714
REMARK INTER:                  -9.784
REMARK INTRA:                  -0.930
REMARK UNBOUND:                -0.957
REMARK  Name = 
REMARK  12 active torsions:
REMARK  status: ('A' for Active; 'I' for Inactive)
REMARK    1  A    between atoms: C_1  and  C_2
REMARK    2  A    between atoms: C_2  and  N_3
REMARK    3  A    between atoms: N_3  and  C_4
REMARK    4  A    between atoms: C_4  and  C_5
REMARK    5  A    between atoms: C_6  and  C_8
REMARK    6  A    between atoms: C_11  and  O_12
REMARK    7  A    between atoms: O_12  and  C_13
REMARK    8  A    between atoms: C_13  and  C_14
REMARK    9  A    between atoms: C_14  and  C_15
REMARK   10  A    between atoms: C_14  and  C_16
REMARK   11  A    between atoms: C_14  and  C_17
REMARK   12  A    between atoms: C_21  and  C_22
REMARK                            x       y       z     vdW  Elec       q    Type
REMARK                         _______ _______ _______ _____ _____    ______ ____
ROOT
ATOM      1  C   UNL     1      48.396   5.836  15.605  0.00  0.00    +0.000 A 
ATOM      2  C   UNL     1      47.556   4.721  15.552  0.00  0.00    +0.000 A 
ATOM      3  C   UNL     1      46.744   4.517  14.438  0.00  0.00    +0.000 A 
ATOM      4  C   UNL     1      46.730   5.490  13.457  0.00  0.00    +0.000 A 
ATOM      5  N   UNL     1      47.426   6.644  13.538  0.00  0.00    +0.000 NA
ATOM      6  C   UNL     1      48.239   6.795  14.614  0.00  0.00    +0.000 A 
ENDROOT
BRANCH   1   8
ATOM      7  N   UNL     1      49.115   6.486  17.934  0.00  0.00    +0.000 N 
ATOM      8  C   UNL     1      49.450   6.052  16.633  0.00  0.00    +0.000 C 
ATOM      9  O   UNL     1      50.607   5.784  16.304  0.00  0.00    +0.000 OA
BRANCH   7  11
ATOM     10  C   UNL     1      50.060   8.216  19.464  0.00  0.00    +0.000 C 
ATOM     11  C   UNL     1      50.235   6.853  18.807  0.00  0.00    +0.000 C 
ENDBRANCH   7  11
BRANCH   7  12
ATOM     12  C   UNL     1      47.749   6.807  18.365  0.00  0.00    +0.000 C 
ATOM     13  C   UNL     1      47.061   5.898  19.364  0.00  0.00    +0.000 C 
ENDBRANCH   7  12
ENDBRANCH   1   8
BRANCH   4  14
ATOM     14  O   UNL     1      45.929   5.251  12.359  0.00  0.00    +0.000 OA
BRANCH  14  15
ATOM     15  C   UNL     1      45.124   4.077  12.531  0.00  0.00    +0.000 C 
BRANCH  15  16
ATOM     16  C   UNL     1      44.180   3.857  11.316  0.00  0.00    +0.000 C 
ATOM     17  C   UNL     1      43.337   2.584  11.570  0.00  0.00    +0.000 C 
ATOM     18  C   UNL     1      43.232   5.076  11.221  0.00  0.00    +0.000 C 
BRANCH  16  19
ATOM     19  C   UNL     1      44.945   3.694   9.986  0.00  0.00    +0.000 A 
ATOM     20  C   UNL     1      45.306   4.784   9.171  0.00  0.00    +0.000 A 
ATOM     21  C   UNL     1      46.025   4.603   7.984  0.00  0.00    +0.000 A 
ATOM     22  C   UNL     1      46.401   3.330   7.576  0.00  0.00    +0.000 A 
ATOM     23  C   UNL     1      46.050   2.232   8.360  0.00  0.00    +0.000 A 
ATOM     24  C   UNL     1      45.326   2.417   9.546  0.00  0.00    +0.000 A 
BRANCH  23  25
ATOM     25  C   UNL     1      46.428   0.914   7.961  0.00  0.00    +0.000 C 
ATOM     26  N   UNL     1      46.733  -0.156   7.640  0.00  0.00    +0.000 NA
ENDBRANCH  23  25
ENDBRANCH  16  19
ENDBRANCH  15  16
ENDBRANCH  14  15
ENDBRANCH   4  14
TORSDOF 8
ENDMDL
MODEL 3
REMARK VINA RESULT:    -6.566      3.581      4.297
REMARK INTER + INTRA:         -10.594
REMARK INTER:                  -9.387
REMARK INTRA:                  -1.207
REMARK UNBOUND:                -0.957
REMARK  Name = 
REMARK  12 active torsions:
REMARK  status: ('A' for Active; 'I' for Inactive)
REMARK    1  A    between atoms: C_1  and  C_2
REMARK    2  A    between atoms: C_2  and  N_3
REMARK    3  A    between atoms: N_3  and  C_4
REMARK    4  A    between atoms: C_4  and  C_5
REMARK    5  A    between atoms: C_6  and  C_8
REMARK    6  A    between atoms: C_11  and  O_12
REMARK    7  A    between atoms: O_12  and  C_13
REMARK    8  A    between atoms: C_13  and  C_14
REMARK    9  A    between atoms: C_14  and  C_15
REMARK   10  A    between atoms: C_14  and  C_16
REMARK   11  A    between atoms: C_14  and  C_17
REMARK   12  A    between atoms: C_21  and  C_22
REMARK                            x       y       z     vdW  Elec       q    Type
REMARK                         _______ _______ _______ _____ _____    ______ ____
ROOT
ATOM      1  C   UNL     1      48.043   7.880  12.730  0.00  0.00    +0.000 A 
ATOM      2  C   UNL     1      48.144   6.493  12.864  0.00  0.00    +0.000 A 
ATOM      3  C   UNL     1      46.990   5.715  12.903  0.00  0.00    +0.000 A 
ATOM      4  C   UNL     1      45.769   6.361  12.903  0.00  0.00    +0.000 A 
ATOM      5  N   UNL     1      45.634   7.705  12.911  0.00  0.00    +0.000 NA
ATOM      6  C   UNL     1      46.775   8.435  12.830  0.00  0.00    +0.000 A 
ENDROOT
BRANCH   1   8
ATOM      7  N   UNL     1      49.959   9.310  13.534  0.00  0.00    +0.000 N 
ATOM      8  C   UNL     1      49.192   8.790  12.469  0.00  0.00    +0.000 C 
ATOM      9  O   UNL     1      49.460   9.018  11.289  0.00  0.00    +0.000 OA
BRANCH   7  11
ATOM     10  C   UNL     1      52.356   9.801  13.046  0.00  0.00    +0.000 C 
ATOM     11  C   UNL     1      50.940  10.344  13.186  0.00  0.00    +0.000 C 
ENDBRANCH   7  11
BRANCH   7  12
ATOM     12  C   UNL     1      49.675   9.055  14.952  0.00  0.00    +0.000 C 
ATOM     13  C   UNL     1      49.686  10.217  15.924  0.00  0.00    +0.000 C 
ENDBRANCH   7  12
ENDBRANCH   1   8
BRANCH   4  14
ATOM     14  O   UNL     1      44.644   5.562  12.925  0.00  0.00    +0.000 OA
BRANCH  14  15
ATOM     15  C   UNL     1      44.931   4.225  12.494  0.00  0.00    +0.000 C 
BRANCH  15  16
ATOM     16  C   UNL     1      44.051   3.822  11.278  0.00  0.00    +0.000 C 
ATOM     17  C   UNL     1      43.343   2.484  11.603  0.00  0.00    +0.000 C 
ATOM     18  C   UNL     1      42.980   4.921  11.079  0.00  0.00    +0.000 C 
BRANCH  16  19
ATOM     19  C   UNL     1      44.867   3.656   9.979  0.00  0.00    +0.000 A 
ATOM     20  C   UNL     1      45.273   4.745   9.184  0.00  0.00    +0.000 A 
ATOM     21  C   UNL     1      46.036   4.560   8.026  0.00  0.00    +0.000 A 
ATOM     22  C   UNL     1      46.413   3.284   7.627  0.00  0.00    +0.000 A 
ATOM     23  C   UNL     1      46.018   2.188   8.392  0.00  0.00    +0.000 A 
ATOM     24  C   UNL     1      45.250   2.376   9.549  0.00  0.00    +0.000 A 
BRANCH  23  25
ATOM     25  C   UNL     1      46.396   0.867   8.001  0.00  0.00    +0.000 C 
ATOM     26  N   UNL     1      46.700  -0.204   7.682  0.00  0.00    +0.000 NA
ENDBRANCH  23  25
ENDBRANCH  16  19
ENDBRANCH  15  16
ENDBRANCH  14  15
ENDBRANCH   4  14
TORSDOF 8
ENDMDL
MODEL 4
REMARK VINA RESULT:    -6.160      2.478      8.224
REMARK INTER + INTRA:          -9.997
REMARK INTER:                  -8.795
REMARK INTRA:                  -1.203
REMARK UNBOUND:                -0.957
REMARK  Name = 
REMARK  12 active torsions:
REMARK  status: ('A' for Active; 'I' for Inactive)
REMARK    1  A    between atoms: C_1  and  C_2
REMARK    2  A    between atoms: C_2  and  N_3
REMARK    3  A    between atoms: N_3  and  C_4
REMARK    4  A    between atoms: C_4  and  C_5
REMARK    5  A    between atoms: C_6  and  C_8
REMARK    6  A    between atoms: C_11  and  O_12
REMARK    7  A    between atoms: O_12  and  C_13
REMARK    8  A    between atoms: C_13  and  C_14
REMARK    9  A    between atoms: C_14  and  C_15
REMARK   10  A    between atoms: C_14  and  C_16
REMARK   11  A    between atoms: C_14  and  C_17
REMARK   12  A    between atoms: C_21  and  C_22
REMARK                            x       y       z     vdW  Elec       q    Type
REMARK                         _______ _______ _______ _____ _____    ______ ____
ROOT
ATOM      1  C   UNL     1      46.289   6.201  11.992  0.00  0.00    +0.000 A 
ATOM      2  C   UNL     1      46.042   7.517  12.389  0.00  0.00    +0.000 A 
ATOM      3  C   UNL     1      46.845   8.111  13.359  0.00  0.00    +0.000 A 
ATOM      4  C   UNL     1      47.810   7.334  13.970  0.00  0.00    +0.000 A 
ATOM      5  N   UNL     1      47.989   6.021  13.708  0.00  0.00    +0.000 NA
ATOM      6  C   UNL     1      47.220   5.481  12.729  0.00  0.00    +0.000 A 
ENDROOT
BRANCH   1   8
ATOM      7  N   UNL     1      44.550   4.655  11.016  0.00  0.00    +0.000 N 
ATOM      8  C   UNL     1      45.642   5.532  10.831  0.00  0.00    +0.000 C 
ATOM      9  O   UNL     1      46.073   5.822   9.714  0.00  0.00    +0.000 OA
BRANCH   7  11
ATOM     10  C   UNL     1      44.812   2.557   9.691  0.00  0.00    +0.000 C 
ATOM     11  C   UNL     1      44.112   3.902   9.836  0.00  0.00    +0.000 C 
ENDBRANCH   7  11
BRANCH   7  12
ATOM     12  C   UNL     1      44.004   4.292  12.330  0.00  0.00    +0.000 C 
ATOM     13  C   UNL     1      42.877   5.122  12.911  0.00  0.00    +0.000 C 
ENDBRANCH   7  12
ENDBRANCH   1   8
BRANCH   4  14
ATOM     14  O   UNL     1      48.601   7.956  14.913  0.00  0.00    +0.000 OA
BRANCH  14  15
ATOM     15  C   UNL     1      49.708   7.134  15.308  0.00  0.00    +0.000 C 
BRANCH  15  16
ATOM     16  C   UNL     1      49.627   6.762  16.815  0.00  0.00    +0.000 C 
ATOM     17  C   UNL     1      51.036   6.914  17.437  0.00  0.00    +0.000 C 
ATOM     18  C   UNL     1      48.665   7.761  17.501  0.00  0.00    +0.000 C 
BRANCH  16  19
ATOM     19  C   UNL     1      49.128   5.322  17.049  0.00  0.00    +0.000 A 
ATOM     20  C   UNL     1      47.765   4.996  17.194  0.00  0.00    +0.000 A 
ATOM     21  C   UNL     1      47.345   3.674  17.377  0.00  0.00    +0.000 A 
ATOM     22  C   UNL     1      48.271   2.641  17.424  0.00  0.00    +0.000 A 
ATOM     23  C   UNL     1      49.627   2.936  17.292  0.00  0.00    +0.000 A 
ATOM     24  C   UNL     1      50.045   4.262  17.112  0.00  0.00    +0.000 A 
BRANCH  23  25
ATOM     25  C   UNL     1      50.597   1.888  17.334  0.00  0.00    +0.000 C 
ATOM     26  N   UNL     1      51.381   1.037  17.367  0.00  0.00    +0.000 NA
ENDBRANCH  23  25
ENDBRANCH  16  19
ENDBRANCH  15  16
ENDBRANCH  14  15
ENDBRANCH   4  14
TORSDOF 8
ENDMDL
MODEL 5
REMARK VINA RESULT:    -6.140      1.678      2.569
REMARK INTER + INTRA:          -9.969
REMARK INTER:                  -8.975
REMARK INTRA:                  -0.994
REMARK UNBOUND:                -0.957
REMARK  Name = 
REMARK  12 active torsions:
REMARK  status: ('A' for Active; 'I' for Inactive)
REMARK    1  A    between atoms: C_1  and  C_2
REMARK    2  A    between atoms: C_2  and  N_3
REMARK    3  A    between atoms: N_3  and  C_4
REMARK    4  A    between atoms: C_4  and  C_5
REMARK    5  A    between atoms: C_6  and  C_8
REMARK    6  A    between atoms: C_11  and  O_12
REMARK    7  A    between atoms: O_12  and  C_13
REMARK    8  A    between atoms: C_13  and  C_14
REMARK    9  A    between atoms: C_14  and  C_15
REMARK   10  A    between atoms: C_14  and  C_16
REMARK   11  A    between atoms: C_14  and  C_17
REMARK   12  A    between atoms: C_21  and  C_22
REMARK                            x       y       z     vdW  Elec       q    Type
REMARK                         _______ _______ _______ _____ _____    ______ ____
ROOT
ATOM      1  C   UNL     1      48.513   4.988  16.418  0.00  0.00    +0.000 A 
ATOM      2  C   UNL     1      47.514   4.049  16.147  0.00  0.00    +0.000 A 
ATOM      3  C   UNL     1      46.818   4.107  14.942  0.00  0.00    +0.000 A 
ATOM      4  C   UNL     1      47.080   5.163  14.089  0.00  0.00    +0.000 A 
ATOM      5  N   UNL     1      47.941   6.162  14.378  0.00  0.00    +0.000 NA
ATOM      6  C   UNL     1      48.634   6.056  15.540  0.00  0.00    +0.000 A 
ENDROOT
BRANCH   1   8
ATOM      7  N   UNL     1      49.121   5.456  18.821  0.00  0.00    +0.000 N 
ATOM      8  C   UNL     1      49.459   4.908  17.564  0.00  0.00    +0.000 C 
ATOM      9  O   UNL     1      50.514   4.302  17.370  0.00  0.00    +0.000 OA
BRANCH   7  11
ATOM     10  C   UNL     1      50.912   6.838  19.874  0.00  0.00    +0.000 C 
ATOM     11  C   UNL     1      50.192   5.497  19.823  0.00  0.00    +0.000 C 
ENDBRANCH   7  11
BRANCH   7  12
ATOM     12  C   UNL     1      47.872   6.178  19.093  0.00  0.00    +0.000 C 
ATOM     13  C   UNL     1      47.282   6.126  20.487  0.00  0.00    +0.000 C 
ENDBRANCH   7  12
ENDBRANCH   1   8
BRANCH   4  14
ATOM     14  O   UNL     1      46.387   5.182  12.896  0.00  0.00    +0.000 OA
BRANCH  14  15
ATOM     15  C   UNL     1      44.978   5.348  13.099  0.00  0.00    +0.000 C 
BRANCH  15  16
ATOM     16  C   UNL     1      44.232   5.548  11.750  0.00  0.00    +0.000 C 
ATOM     17  C   UNL     1      42.719   5.696  12.041  0.00  0.00    +0.000 C 
ATOM     18  C   UNL     1      44.750   6.857  11.109  0.00  0.00    +0.000 C 
BRANCH  16  19
ATOM     19  C   UNL     1      44.443   4.375  10.772  0.00  0.00    +0.000 A 
ATOM     20  C   UNL     1      43.929   3.084  11.000  0.00  0.00    +0.000 A 
ATOM     21  C   UNL     1      44.116   2.048  10.078  0.00  0.00    +0.000 A 
ATOM     22  C   UNL     1      44.824   2.271   8.903  0.00  0.00    +0.000 A 
ATOM     23  C   UNL     1      45.351   3.537   8.656  0.00  0.00    +0.000 A 
ATOM     24  C   UNL     1      45.165   4.571   9.585  0.00  0.00    +0.000 A 
BRANCH  23  25
ATOM     25  C   UNL     1      46.081   3.789   7.454  0.00  0.00    +0.000 C 
ATOM     26  N   UNL     1      46.676   3.993   6.482  0.00  0.00    +0.000 NA
ENDBRANCH  23  25
ENDBRANCH  16  19
ENDBRANCH  15  16
ENDBRANCH  14  15
ENDBRANCH   4  14
TORSDOF 8
ENDMDL
MODEL 6
REMARK VINA RESULT:    -5.799      2.615      3.149
REMARK INTER + INTRA:          -9.467
REMARK INTER:                  -8.848
REMARK INTRA:                  -0.619
REMARK UNBOUND:                -0.957
REMARK  Name = 
REMARK  12 active torsions:
REMARK  status: ('A' for Active; 'I' for Inactive)
REMARK    1  A    between atoms: C_1  and  C_2
REMARK    2  A    between atoms: C_2  and  N_3
REMARK    3  A    between atoms: N_3  and  C_4
REMARK    4  A    between atoms: C_4  and  C_5
REMARK    5  A    between atoms: C_6  and  C_8
REMARK    6  A    between atoms: C_11  and  O_12
REMARK    7  A    between atoms: O_12  and  C_13
REMARK    8  A    between atoms: C_13  and  C_14
REMARK    9  A    between atoms: C_14  and  C_15
REMARK   10  A    between atoms: C_14  and  C_16
REMARK   11  A    between atoms: C_14  and  C_17
REMARK   12  A    between atoms: C_21  and  C_22
REMARK                            x       y       z     vdW  Elec       q    Type
REMARK                         _______ _______ _______ _____ _____    ______ ____
ROOT
ATOM      1  C   UNL     1      48.248   7.390  14.615  0.00  0.00    +0.000 A 
ATOM      2  C   UNL     1      48.041   6.014  14.487  0.00  0.00    +0.000 A 
ATOM      3  C   UNL     1      47.188   5.531  13.498  0.00  0.00    +0.000 A 
ATOM      4  C   UNL     1      46.495   6.448  12.731  0.00  0.00    +0.000 A 
ATOM      5  N   UNL     1      46.567   7.783  12.916  0.00  0.00    +0.000 NA
ATOM      6  C   UNL     1      47.438   8.225  13.859  0.00  0.00    +0.000 A 
ENDROOT
BRANCH   1   8
ATOM      7  N   UNL     1      50.495   8.491  14.941  0.00  0.00    +0.000 N 
ATOM      8  C   UNL     1      49.283   8.012  15.486  0.00  0.00    +0.000 C 
ATOM      9  O   UNL     1      49.004   8.129  16.679  0.00  0.00    +0.000 OA
BRANCH   7  11
ATOM     10  C   UNL     1      52.412   7.758  16.360  0.00  0.00    +0.000 C 
ATOM     11  C   UNL     1      51.521   8.906  15.903  0.00  0.00    +0.000 C 
ENDBRANCH   7  11
BRANCH   7  12
ATOM     12  C   UNL     1      50.859   8.376  13.523  0.00  0.00    +0.000 C 
ATOM     13  C   UNL     1      52.304   8.580  13.118  0.00  0.00    +0.000 C 
ENDBRANCH   7  12
ENDBRANCH   1   8
BRANCH   4  14
ATOM     14  O   UNL     1      45.672   5.938  11.748  0.00  0.00    +0.000 OA
BRANCH  14  15
ATOM     15  C   UNL     1      45.279   4.588  12.028  0.00  0.00    +0.000 C 
BRANCH  15  16
ATOM     16  C   UNL     1      44.356   4.025  10.912  0.00  0.00    +0.000 C 
ATOM     17  C   UNL     1      43.685   2.731  11.432  0.00  0.00    +0.000 C 
ATOM     18  C   UNL     1      43.259   5.078  10.625  0.00  0.00    +0.000 C 
BRANCH  16  19
ATOM     19  C   UNL     1      45.119   3.707   9.609  0.00  0.00    +0.000 A 
ATOM     20  C   UNL     1      45.537   4.701   8.703  0.00  0.00    +0.000 A 
ATOM     21  C   UNL     1      46.252   4.380   7.544  0.00  0.00    +0.000 A 
ATOM     22  C   UNL     1      46.568   3.058   7.255  0.00  0.00    +0.000 A 
ATOM     23  C   UNL     1      46.159   2.054   8.131  0.00  0.00    +0.000 A 
ATOM     24  C   UNL     1      45.439   2.379   9.289  0.00  0.00    +0.000 A 
BRANCH  23  25
ATOM     25  C   UNL     1      46.474   0.688   7.854  0.00  0.00    +0.000 C 
ATOM     26  N   UNL     1      46.727  -0.419   7.627  0.00  0.00    +0.000 NA
ENDBRANCH  23  25
ENDBRANCH  16  19
ENDBRANCH  15  16
ENDBRANCH  14  15
ENDBRANCH   4  14
TORSDOF 8
ENDMDL
MODEL 7
REMARK VINA RESULT:    -5.579      3.260      8.344
REMARK INTER + INTRA:          -9.145
REMARK INTER:                  -7.986
REMARK INTRA:                  -1.159
REMARK UNBOUND:                -0.957
REMARK  Name = 
REMARK  12 active torsions:
REMARK  status: ('A' for Active; 'I' for Inactive)
REMARK    1  A    between atoms: C_1  and  C_2
REMARK    2  A    between atoms: C_2  and  N_3
REMARK    3  A    between atoms: N_3  and  C_4
REMARK    4  A    between atoms: C_4  and  C_5
REMARK    5  A    between atoms: C_6  and  C_8
REMARK    6  A    between atoms: C_11  and  O_12
REMARK    7  A    between atoms: O_12  and  C_13
REMARK    8  A    between atoms: C_13  and  C_14
REMARK    9  A    between atoms: C_14  and  C_15
REMARK   10  A    between atoms: C_14  and  C_16
REMARK   11  A    between atoms: C_14  and  C_17
REMARK   12  A    between atoms: C_21  and  C_22
REMARK                            x       y       z     vdW  Elec       q    Type
REMARK                         _______ _______ _______ _____ _____    ______ ____
ROOT
ATOM      1  C   UNL     1      46.758   7.368  12.424  0.00  0.00    +0.000 A 
ATOM      2  C   UNL     1      48.000   6.964  11.925  0.00  0.00    +0.000 A 
ATOM      3  C   UNL     1      49.148   7.154  12.689  0.00  0.00    +0.000 A 
ATOM      4  C   UNL     1      49.028   7.831  13.888  0.00  0.00    +0.000 A 
ATOM      5  N   UNL     1      47.867   8.354  14.338  0.00  0.00    +0.000 NA
ATOM      6  C   UNL     1      46.759   8.116  13.593  0.00  0.00    +0.000 A 
ENDROOT
BRANCH   1   8
ATOM      7  N   UNL     1      44.942   5.717  11.839  0.00  0.00    +0.000 N 
ATOM      8  C   UNL     1      45.448   7.035  11.801  0.00  0.00    +0.000 C 
ATOM      9  O   UNL     1      44.818   7.970  11.305  0.00  0.00    +0.000 OA
BRANCH   7  11
ATOM     10  C   UNL     1      42.463   5.438  11.857  0.00  0.00    +0.000 C 
ATOM     11  C   UNL     1      43.745   5.456  11.034  0.00  0.00    +0.000 C 
ENDBRANCH   7  11
BRANCH   7  12
ATOM     12  C   UNL     1      45.660   4.579  12.428  0.00  0.00    +0.000 C 
ATOM     13  C   UNL     1      45.888   4.550  13.925  0.00  0.00    +0.000 C 
ENDBRANCH   7  12
ENDBRANCH   1   8
BRANCH   4  14
ATOM     14  O   UNL     1      50.181   7.988  14.630  0.00  0.00    +0.000 OA
BRANCH  14  15
ATOM     15  C   UNL     1      49.930   7.875  16.036  0.00  0.00    +0.000 C 
BRANCH  15  16
ATOM     16  C   UNL     1      51.080   7.118  16.757  0.00  0.00    +0.000 C 
ATOM     17  C   UNL     1      52.338   7.158  15.857  0.00  0.00    +0.000 C 
ATOM     18  C   UNL     1      51.385   7.862  18.079  0.00  0.00    +0.000 C 
BRANCH  16  19
ATOM     19  C   UNL     1      50.727   5.648  17.063  0.00  0.00    +0.000 A 
ATOM     20  C   UNL     1      51.692   4.683  17.410  0.00  0.00    +0.000 A 
ATOM     21  C   UNL     1      51.334   3.364  17.707  0.00  0.00    +0.000 A 
ATOM     22  C   UNL     1      50.003   2.969  17.664  0.00  0.00    +0.000 A 
ATOM     23  C   UNL     1      49.028   3.901  17.315  0.00  0.00    +0.000 A 
ATOM     24  C   UNL     1      49.391   5.221  17.014  0.00  0.00    +0.000 A 
BRANCH  23  25
ATOM     25  C   UNL     1      47.652   3.517  17.267  0.00  0.00    +0.000 C 
ATOM     26  N   UNL     1      46.538   3.205  17.231  0.00  0.00    +0.000 NA
ENDBRANCH  23  25
ENDBRANCH  16  19
ENDBRANCH  15  16
ENDBRANCH  14  15
ENDBRANCH   4  14
TORSDOF 8
ENDMDL
MODEL 8
REMARK VINA RESULT:    -5.527      2.674      8.305
REMARK INTER + INTRA:          -9.069
REMARK INTER:                  -8.050
REMARK INTRA:                  -1.020
REMARK UNBOUND:                -0.957
REMARK  Name = 
REMARK  12 active torsions:
REMARK  status: ('A' for Active; 'I' for Inactive)
REMARK    1  A    between atoms: C_1  and  C_2
REMARK    2  A    between atoms: C_2  and  N_3
REMARK    3  A    between atoms: N_3  and  C_4
REMARK    4  A    between atoms: C_4  and  C_5
REMARK    5  A    between atoms: C_6  and  C_8
REMARK    6  A    between atoms: C_11  and  O_12
REMARK    7  A    between atoms: O_12  and  C_13
REMARK    8  A    between atoms: C_13  and  C_14
REMARK    9  A    between atoms: C_14  and  C_15
REMARK   10  A    between atoms: C_14  and  C_16
REMARK   11  A    between atoms: C_14  and  C_17
REMARK   12  A    between atoms: C_21  and  C_22
REMARK                            x       y       z     vdW  Elec       q    Type
REMARK                         _______ _______ _______ _____ _____    ______ ____
ROOT
ATOM      1  C   UNL     1      45.991   6.407  12.745  0.00  0.00    +0.000 A 
ATOM      2  C   UNL     1      47.300   5.933  12.862  0.00  0.00    +0.000 A 
ATOM      3  C   UNL     1      48.307   6.783  13.311  0.00  0.00    +0.000 A 
ATOM      4  C   UNL     1      47.989   8.108  13.536  0.00  0.00    +0.000 A 
ATOM      5  N   UNL     1      46.766   8.633  13.303  0.00  0.00    +0.000 NA
ATOM      6  C   UNL     1      45.795   7.772  12.907  0.00  0.00    +0.000 A 
ENDROOT
BRANCH   1   8
ATOM      7  N   UNL     1      44.611   4.949  11.216  0.00  0.00    +0.000 N 
ATOM      8  C   UNL     1      44.802   5.553  12.479  0.00  0.00    +0.000 C 
ATOM      9  O   UNL     1      44.034   5.364  13.423  0.00  0.00    +0.000 OA
BRANCH   7  11
ATOM     10  C   UNL     1      43.289   2.852  11.501  0.00  0.00    +0.000 C 
ATOM     11  C   UNL     1      43.320   4.290  10.998  0.00  0.00    +0.000 C 
ENDBRANCH   7  11
BRANCH   7  12
ATOM     12  C   UNL     1      45.508   5.144  10.070  0.00  0.00    +0.000 C 
ATOM     13  C   UNL     1      45.258   4.358   8.800  0.00  0.00    +0.000 C 
ENDBRANCH   7  12
ENDBRANCH   1   8
BRANCH   4  14
ATOM     14  O   UNL     1      49.004   8.920  13.997  0.00  0.00    +0.000 OA
BRANCH  14  15
ATOM     15  C   UNL     1      48.762   9.369  15.336  0.00  0.00    +0.000 C 
BRANCH  15  16
ATOM     16  C   UNL     1      49.677   8.631  16.354  0.00  0.00    +0.000 C 
ATOM     17  C   UNL     1      50.901   8.064  15.596  0.00  0.00    +0.000 C 
ATOM     18  C   UNL     1      50.165   9.668  17.393  0.00  0.00    +0.000 C 
BRANCH  16  19
ATOM     19  C   UNL     1      48.954   7.476  17.077  0.00  0.00    +0.000 A 
ATOM     20  C   UNL     1      48.443   7.590  18.385  0.00  0.00    +0.000 A 
ATOM     21  C   UNL     1      47.768   6.531  19.001  0.00  0.00    +0.000 A 
ATOM     22  C   UNL     1      47.587   5.327  18.332  0.00  0.00    +0.000 A 
ATOM     23  C   UNL     1      48.090   5.185  17.040  0.00  0.00    +0.000 A 
ATOM     24  C   UNL     1      48.768   6.247  16.427  0.00  0.00    +0.000 A 
BRANCH  23  25
ATOM     25  C   UNL     1      47.913   3.956  16.333  0.00  0.00    +0.000 C 
ATOM     26  N   UNL     1      47.769   2.962  15.756  0.00  0.00    +0.000 NA
ENDBRANCH  23  25
ENDBRANCH  16  19
ENDBRANCH  15  16
ENDBRANCH  14  15
ENDBRANCH   4  14
TORSDOF 8
ENDMDL
MODEL 9
REMARK VINA RESULT:    -5.495      2.805      8.679
REMARK INTER + INTRA:          -9.022
REMARK INTER:                  -7.856
REMARK INTRA:                  -1.166
REMARK UNBOUND:                -0.957
REMARK  Name = 
REMARK  12 active torsions:
REMARK  status: ('A' for Active; 'I' for Inactive)
REMARK    1  A    between atoms: C_1  and  C_2
REMARK    2  A    between atoms: C_2  and  N_3
REMARK    3  A    between atoms: N_3  and  C_4
REMARK    4  A    between atoms: C_4  and  C_5
REMARK    5  A    between atoms: C_6  and  C_8
REMARK    6  A    between atoms: C_11  and  O_12
REMARK    7  A    between atoms: O_12  and  C_13
REMARK    8  A    between atoms: C_13  and  C_14
REMARK    9  A    between atoms: C_14  and  C_15
REMARK   10  A    between atoms: C_14  and  C_16
REMARK   11  A    between atoms: C_14  and  C_17
REMARK   12  A    between atoms: C_21  and  C_22
REMARK                            x       y       z     vdW  Elec       q    Type
REMARK                         _______ _______ _______ _____ _____    ______ ____
ROOT
ATOM      1  C   UNL     1      46.522   6.552  11.914  0.00  0.00    +0.000 A 
ATOM      2  C   UNL     1      46.470   7.924  12.177  0.00  0.00    +0.000 A 
ATOM      3  C   UNL     1      47.294   8.473  13.156  0.00  0.00    +0.000 A 
ATOM      4  C   UNL     1      48.075   7.615  13.907  0.00  0.00    +0.000 A 
ATOM      5  N   UNL     1      48.051   6.271  13.772  0.00  0.00    +0.000 NA
ATOM      6  C   UNL     1      47.270   5.769  12.783  0.00  0.00    +0.000 A 
ENDROOT
BRANCH   1   8
ATOM      7  N   UNL     1      44.554   5.347  10.897  0.00  0.00    +0.000 N 
ATOM      8  C   UNL     1      45.852   5.886  10.765  0.00  0.00    +0.000 C 
ATOM      9  O   UNL     1      46.464   5.878   9.696  0.00  0.00    +0.000 OA
BRANCH   7  11
ATOM     10  C   UNL     1      44.359   3.059   9.921  0.00  0.00    +0.000 C 
ATOM     11  C   UNL     1      44.063   4.546   9.771  0.00  0.00    +0.000 C 
ENDBRANCH   7  11
BRANCH   7  12
ATOM     12  C   UNL     1      43.790   5.345  12.151  0.00  0.00    +0.000 C 
ATOM     13  C   UNL     1      42.280   5.452  12.092  0.00  0.00    +0.000 C 
ENDBRANCH   7  12
ENDBRANCH   1   8
BRANCH   4  14
ATOM     14  O   UNL     1      48.893   8.191  14.856  0.00  0.00    +0.000 OA
BRANCH  14  15
ATOM     15  C   UNL     1      50.140   7.495  14.981  0.00  0.00    +0.000 C 
BRANCH  15  16
ATOM     16  C   UNL     1      50.554   7.338  16.471  0.00  0.00    +0.000 C 
ATOM     17  C   UNL     1      51.704   6.306  16.557  0.00  0.00    +0.000 C 
ATOM     18  C   UNL     1      51.072   8.709  16.967  0.00  0.00    +0.000 C 
BRANCH  16  19
ATOM     19  C   UNL     1      49.390   6.870  17.368  0.00  0.00    +0.000 A 
ATOM     20  C   UNL     1      48.857   7.658  18.406  0.00  0.00    +0.000 A 
ATOM     21  C   UNL     1      47.782   7.214  19.184  0.00  0.00    +0.000 A 
ATOM     22  C   UNL     1      47.212   5.969  18.950  0.00  0.00    +0.000 A 
ATOM     23  C   UNL     1      47.726   5.165  17.934  0.00  0.00    +0.000 A 
ATOM     24  C   UNL     1      48.805   5.612  17.160  0.00  0.00    +0.000 A 
BRANCH  23  25
ATOM     25  C   UNL     1      47.153   3.882  17.675  0.00  0.00    +0.000 C 
ATOM     26  N   UNL     1      46.692   2.841  17.464  0.00  0.00    +0.000 NA
ENDBRANCH  23  25
ENDBRANCH  16  19
ENDBRANCH  15  16
ENDBRANCH  14  15
ENDBRANCH   4  14
TORSDOF 8
ENDMDL
