MODEL 1
REMARK VINA RESULT:    -9.070      0.000      0.000
REMARK INTER + INTRA:         -14.446
REMARK INTER:                 -13.312
REMARK INTRA:                  -1.133
REMARK UNBOUND:                -1.133
REMARK  Name = 
REMARK  8 active torsions:
REMARK  status: ('A' for Active; 'I' for Inactive)
REMARK    1  A    between atoms: C_2  and  C_4
REMARK    2  A    between atoms: C_7  and  N_8
REMARK    3  A    between atoms: N_8  and  C_9
REMARK    4  A    between atoms: C_9  and  C_10
REMARK    5  A    between atoms: C_10  and  C_13
REMARK    6  A    between atoms: C_15  and  O_16
REMARK    7  A    between atoms: O_16  and  C_17
REMARK    8  A    between atoms: C_22  and  C_23
REMARK                            x       y       z     vdW  Elec       q    Type
REMARK                         _______ _______ _______ _____ _____    ______ ____
ROOT
ATOM      1  C   UNL     1      43.483   5.572  12.180  0.00  0.00    +0.000 C 
ATOM      2  F   UNL     1      43.064   6.722  11.571  0.00  0.00    +0.000 F 
ATOM      3  F   UNL     1      42.620   5.391  13.228  0.00  0.00    +0.000 F 
ENDROOT
BRANCH   1   4
ATOM      4  C   UNL     1      44.925   5.678  12.642  0.00  0.00    +0.000 A 
ATOM      5  C   UNL     1      45.474   4.712  13.508  0.00  0.00    +0.000 A 
ATOM      6  C   UNL     1      46.803   4.809  13.916  0.00  0.00    +0.000 A 
ATOM      7  C   UNL     1      47.602   5.854  13.448  0.00  0.00    +0.000 A 
ATOM      8  C   UNL     1      47.082   6.825  12.584  0.00  0.00    +0.000 A 
ATOM      9  C   UNL     1      45.735   6.736  12.197  0.00  0.00    +0.000 A 
BRANCH   8  10
ATOM     10  C   UNL     1      47.948   7.945  12.058  0.00  0.00    +0.000 C 
ATOM     11  F   UNL     1      47.247   9.049  11.681  0.00  0.00    +0.000 F 
ATOM     12  F   UNL     1      48.855   8.372  12.979  0.00  0.00    +0.000 F 
ATOM     13  F   UNL     1      48.670   7.568  10.968  0.00  0.00    +0.000 F 
ENDBRANCH   8  10
BRANCH   6  14
ATOM     14  O   UNL     1      47.445   3.914  14.731  0.00  0.00    +0.000 OA
BRANCH  14  15
ATOM     15  C   UNL     1      47.352   4.075  16.164  0.00  0.00    +0.000 C 
ATOM     16  C   UNL     1      48.429   4.911  16.870  0.00  0.00    +0.000 C 
ATOM     17  O   UNL     1      48.712   3.841  17.804  0.00  0.00    +0.000 OA
ATOM     18  C   UNL     1      47.943   2.921  16.991  0.00  0.00    +0.000 C 
ENDBRANCH  14  15
ENDBRANCH   6  14
ENDBRANCH   1   4
BRANCH   1  19
ATOM     19  C   UNL     1      43.289   4.385  11.199  0.00  0.00    +0.000 C 
BRANCH  19  20
ATOM     20  N   UNL     1      43.736   4.701   9.832  0.00  0.00    +0.000 N 
ATOM     21  H   UNL     1      43.000   5.058   9.221  0.00  0.00    +0.000 HD
BRANCH  20  25
ATOM     22  C   UNL     1      46.444   2.304   7.792  0.00  0.00    +0.000 A 
ATOM     23  C   UNL     1      46.513   3.673   7.580  0.00  0.00    +0.000 A 
ATOM     24  C   UNL     1      45.627   4.498   8.275  0.00  0.00    +0.000 A 
ATOM     25  C   UNL     1      44.717   3.960   9.186  0.00  0.00    +0.000 A 
ATOM     26  C   UNL     1      44.736   2.563   9.311  0.00  0.00    +0.000 A 
ATOM     27  N   UNL     1      45.569   1.719   8.651  0.00  0.00    +0.000 NA
BRANCH  22  29
ATOM     28  N   UNL     1      48.409   1.997   6.407  0.00  0.00    +0.000 N 
ATOM     29  C   UNL     1      47.346   1.392   7.021  0.00  0.00    +0.000 C 
ATOM     30  O   UNL     1      47.164   0.183   6.952  0.00  0.00    +0.000 OA
ATOM     31  H   UNL     1      49.079   1.438   5.902  0.00  0.00    +0.000 HD
ATOM     32  H   UNL     1      48.546   2.996   6.517  0.00  0.00    +0.000 HD
ENDBRANCH  22  29
ENDBRANCH  20  25
ENDBRANCH  19  20
ENDBRANCH   1  19
TORSDOF 8
ENDMDL
MODEL 2
REMARK VINA RESULT:    -8.469      1.011      1.475
REMARK INTER + INTRA:         -13.563
REMARK INTER:                 -12.434
REMARK INTRA:                  -1.129
REMARK UNBOUND:                -1.133
REMARK  Name = 
REMARK  8 active torsions:
REMARK  status: ('A' for Active; 'I' for Inactive)
REMARK    1  A    between atoms: C_2  and  C_4
REMARK    2  A    between atoms: C_7  and  N_8
REMARK    3  A    between atoms: N_8  and  C_9
REMARK    4  A    between atoms: C_9  and  C_10
REMARK    5  A    between atoms: C_10  and  C_13
REMARK    6  A    between atoms: C_15  and  O_16
REMARK    7  A    between atoms: O_16  and  C_17
REMARK    8  A    between atoms: C_22  and  C_23
REMARK                            x       y       z     vdW  Elec       q    Type
REMARK                         _______ _______ _______ _____ _____    ______ ____
ROOT
ATOM      1  C   UNL     1      44.265   4.968  12.456  0.00  0.00    +0.000 C 
ATOM      2  F   UNL     1      43.226   5.393  13.236  0.00  0.00    +0.000 F 
ATOM      3  F   UNL     1      44.194   3.600  12.484  0.00  0.00    +0.000 F 
ENDROOT
BRANCH   1   4
ATOM      4  C   UNL     1      45.597   5.478  12.973  0.00  0.00    +0.000 A 
ATOM      5  C   UNL     1      46.261   4.815  14.023  0.00  0.00    +0.000 A 
ATOM      6  C   UNL     1      47.492   5.282  14.483  0.00  0.00    +0.000 A 
ATOM      7  C   UNL     1      48.082   6.397  13.885  0.00  0.00    +0.000 A 
ATOM      8  C   UNL     1      47.444   7.072  12.836  0.00  0.00    +0.000 A 
ATOM      9  C   UNL     1      46.193   6.612  12.396  0.00  0.00    +0.000 A 
BRANCH   8  10
ATOM     10  C   UNL     1      48.089   8.267  12.173  0.00  0.00    +0.000 C 
ATOM     11  F   UNL     1      48.975   8.924  12.970  0.00  0.00    +0.000 F 
ATOM     12  F   UNL     1      48.776   7.925  11.049  0.00  0.00    +0.000 F 
ATOM     13  F   UNL     1      47.173   9.195  11.785  0.00  0.00    +0.000 F 
ENDBRANCH   8  10
BRANCH   6  14
ATOM     14  O   UNL     1      48.235   4.701  15.475  0.00  0.00    +0.000 OA
BRANCH  14  15
ATOM     15  C   UNL     1      47.561   3.975  16.527  0.00  0.00    +0.000 C 
ATOM     16  C   UNL     1      47.494   4.615  17.921  0.00  0.00    +0.000 C 
ATOM     17  O   UNL     1      48.047   3.429  18.541  0.00  0.00    +0.000 OA
ATOM     18  C   UNL     1      48.413   2.911  17.239  0.00  0.00    +0.000 C 
ENDBRANCH  14  15
ENDBRANCH   6  14
ENDBRANCH   1   4
BRANCH   1  19
ATOM     19  C   UNL     1      44.014   5.422  10.993  0.00  0.00    +0.000 C 
BRANCH  19  20
ATOM     20  N   UNL     1      43.615   4.308  10.115  0.00  0.00    +0.000 N 
ATOM     21  H   UNL     1      42.898   3.697  10.511  0.00  0.00    +0.000 HD
BRANCH  20  25
ATOM     22  C   UNL     1      46.531   2.598   7.705  0.00  0.00    +0.000 A 
ATOM     23  C   UNL     1      45.776   1.747   8.499  0.00  0.00    +0.000 A 
ATOM     24  C   UNL     1      44.774   2.301   9.298  0.00  0.00    +0.000 A 
ATOM     25  C   UNL     1      44.519   3.672   9.273  0.00  0.00    +0.000 A 
ATOM     26  C   UNL     1      45.350   4.431   8.437  0.00  0.00    +0.000 A 
ATOM     27  N   UNL     1      46.343   3.942   7.651  0.00  0.00    +0.000 NA
BRANCH  22  29
ATOM     28  N   UNL     1      48.278   2.935   6.059  0.00  0.00    +0.000 N 
ATOM     29  C   UNL     1      47.646   2.038   6.878  0.00  0.00    +0.000 C 
ATOM     30  O   UNL     1      47.989   0.864   6.935  0.00  0.00    +0.000 OA
ATOM     31  H   UNL     1      49.063   2.635   5.501  0.00  0.00    +0.000 HD
ATOM     32  H   UNL     1      47.988   3.907   6.066  0.00  0.00    +0.000 HD
ENDBRANCH  22  29
ENDBRANCH  20  25
ENDBRANCH  19  20
ENDBRANCH   1  19
TORSDOF 8
ENDMDL
MODEL 3
REMARK VINA RESULT:    -8.065      2.549      3.690
REMARK INTER + INTRA:         -12.970
REMARK INTER:                 -11.903
REMARK INTRA:                  -1.067
REMARK UNBOUND:                -1.133
REMARK  Name = 
REMARK  8 active torsions:
REMARK  status: ('A' for Active; 'I' for Inactive)
REMARK    1  A    between atoms: C_2  and  C_4
REMARK    2  A    between atoms: C_7  and  N_8
REMARK    3  A    between atoms: N_8  and  C_9
REMARK    4  A    between atoms: C_9  and  C_10
REMARK    5  A    between atoms: C_10  and  C_13
REMARK    6  A    between atoms: C_15  and  O_16
REMARK    7  A    between atoms: O_16  and  C_17
REMARK    8  A    between atoms: C_22  and  C_23
REMARK                            x       y       z     vdW  Elec       q    Type
REMARK                         _______ _______ _______ _____ _____    ______ ____
ROOT
ATOM      1  C   UNL     1      44.003   5.039  12.382  0.00  0.00    +0.000 C 
ATOM      2  F   UNL     1      42.984   5.509  13.162  0.00  0.00    +0.000 F 
ATOM      3  F   UNL     1      43.775   3.692  12.275  0.00  0.00    +0.000 F 
ENDROOT
BRANCH   1   4
ATOM      4  C   UNL     1      45.360   5.337  12.994  0.00  0.00    +0.000 A 
ATOM      5  C   UNL     1      46.160   6.381  12.491  0.00  0.00    +0.000 A 
ATOM      6  C   UNL     1      47.399   6.658  13.068  0.00  0.00    +0.000 A 
ATOM      7  C   UNL     1      47.839   5.914  14.165  0.00  0.00    +0.000 A 
ATOM      8  C   UNL     1      47.060   4.874  14.687  0.00  0.00    +0.000 A 
ATOM      9  C   UNL     1      45.826   4.584  14.085  0.00  0.00    +0.000 A 
BRANCH   8  10
ATOM     10  C   UNL     1      47.523   4.081  15.886  0.00  0.00    +0.000 C 
ATOM     11  F   UNL     1      48.618   4.606  16.501  0.00  0.00    +0.000 F 
ATOM     12  F   UNL     1      46.563   3.987  16.846  0.00  0.00    +0.000 F 
ATOM     13  F   UNL     1      47.853   2.801  15.560  0.00  0.00    +0.000 F 
ENDBRANCH   8  10
BRANCH   6  14
ATOM     14  O   UNL     1      48.244   7.663  12.678  0.00  0.00    +0.000 OA
BRANCH  14  15
ATOM     15  C   UNL     1      49.664   7.407  12.624  0.00  0.00    +0.000 C 
ATOM     16  C   UNL     1      50.588   8.257  13.508  0.00  0.00    +0.000 C 
ATOM     17  O   UNL     1      51.413   8.621  12.374  0.00  0.00    +0.000 OA
ATOM     18  C   UNL     1      50.410   8.096  11.469  0.00  0.00    +0.000 C 
ENDBRANCH  14  15
ENDBRANCH   6  14
ENDBRANCH   1   4
BRANCH   1  19
ATOM     19  C   UNL     1      43.875   5.652  10.963  0.00  0.00    +0.000 C 
BRANCH  19  20
ATOM     20  N   UNL     1      43.575   4.641   9.934  0.00  0.00    +0.000 N 
ATOM     21  H   UNL     1      42.702   4.134  10.086  0.00  0.00    +0.000 HD
BRANCH  20  25
ATOM     22  C   UNL     1      46.339   2.262   7.950  0.00  0.00    +0.000 A 
ATOM     23  C   UNL     1      46.427   3.634   7.768  0.00  0.00    +0.000 A 
ATOM     24  C   UNL     1      45.522   4.453   8.446  0.00  0.00    +0.000 A 
ATOM     25  C   UNL     1      44.574   3.904   9.311  0.00  0.00    +0.000 A 
ATOM     26  C   UNL     1      44.577   2.506   9.409  0.00  0.00    +0.000 A 
ATOM     27  N   UNL     1      45.427   1.667   8.763  0.00  0.00    +0.000 NA
BRANCH  22  29
ATOM     28  N   UNL     1      48.202   1.987   6.424  0.00  0.00    +0.000 N 
ATOM     29  C   UNL     1      47.262   1.357   7.195  0.00  0.00    +0.000 C 
ATOM     30  O   UNL     1      47.201   0.137   7.270  0.00  0.00    +0.000 OA
ATOM     31  H   UNL     1      48.881   1.439   5.918  0.00  0.00    +0.000 HD
ATOM     32  H   UNL     1      48.243   3.000   6.417  0.00  0.00    +0.000 HD
ENDBRANCH  22  29
ENDBRANCH  20  25
ENDBRANCH  19  20
ENDBRANCH   1  19
TORSDOF 8
ENDMDL
MODEL 4
REMARK VINA RESULT:    -7.472      2.914      3.833
REMARK INTER + INTRA:         -12.100
REMARK INTER:                 -11.094
REMARK INTRA:                  -1.006
REMARK UNBOUND:                -1.133
REMARK  Name = 
REMARK  8 active torsions:
REMARK  status: ('A' for Active; 'I' for Inactive)
REMARK    1  A    between atoms: C_2  and  C_4
REMARK    2  A    between atoms: C_7  and  N_8
REMARK    3  A    between atoms: N_8  and  C_9
REMARK    4  A    between atoms: C_9  and  C_10
REMARK    5  A    between atoms: C_10  and  C_13
REMARK    6  A    between atoms: C_15  and  O_16
REMARK    7  A    between atoms: O_16  and  C_17
REMARK    8  A    between atoms: C_22  and  C_23
REMARK                            x       y       z     vdW  Elec       q    Type
REMARK                         _______ _______ _______ _____ _____    ______ ____
ROOT
ATOM      1  C   UNL     1      44.774   5.383  12.185  0.00  0.00    +0.000 C 
ATOM      2  F   UNL     1      44.095   5.121  13.341  0.00  0.00    +0.000 F 
ATOM      3  F   UNL     1      45.713   4.390  12.092  0.00  0.00    +0.000 F 
ENDROOT
BRANCH   1   4
ATOM      4  C   UNL     1      45.407   6.762  12.209  0.00  0.00    +0.000 A 
ATOM      5  C   UNL     1      46.694   6.952  12.750  0.00  0.00    +0.000 A 
ATOM      6  C   UNL     1      47.274   8.220  12.755  0.00  0.00    +0.000 A 
ATOM      7  C   UNL     1      46.589   9.303  12.201  0.00  0.00    +0.000 A 
ATOM      8  C   UNL     1      45.310   9.140  11.654  0.00  0.00    +0.000 A 
ATOM      9  C   UNL     1      44.721   7.866  11.675  0.00  0.00    +0.000 A 
BRANCH   8  10
ATOM     10  C   UNL     1      44.573  10.305  11.035  0.00  0.00    +0.000 C 
ATOM     11  F   UNL     1      43.613   9.935  10.145  0.00  0.00    +0.000 F 
ATOM     12  F   UNL     1      43.946  11.073  11.967  0.00  0.00    +0.000 F 
ATOM     13  F   UNL     1      45.408  11.141  10.360  0.00  0.00    +0.000 F 
ENDBRANCH   8  10
BRANCH   6  14
ATOM     14  O   UNL     1      48.526   8.513  13.227  0.00  0.00    +0.000 OA
BRANCH  14  15
ATOM     15  C   UNL     1      49.562   8.884  12.292  0.00  0.00    +0.000 C 
ATOM     16  C   UNL     1      50.255   7.767  11.497  0.00  0.00    +0.000 C 
ATOM     17  O   UNL     1      51.565   8.222  11.912  0.00  0.00    +0.000 OA
ATOM     18  C   UNL     1      50.958   9.083  12.906  0.00  0.00    +0.000 C 
ENDBRANCH  14  15
ENDBRANCH   6  14
ENDBRANCH   1   4
BRANCH   1  19
ATOM     19  C   UNL     1      43.803   5.227  10.985  0.00  0.00    +0.000 C 
BRANCH  19  20
ATOM     20  N   UNL     1      43.747   3.845  10.478  0.00  0.00    +0.000 N 
ATOM     21  H   UNL     1      43.538   3.144  11.191  0.00  0.00    +0.000 HD
BRANCH  20  25
ATOM     22  C   UNL     1      46.419   2.732   7.501  0.00  0.00    +0.000 A 
ATOM     23  C   UNL     1      45.930   1.733   8.330  0.00  0.00    +0.000 A 
ATOM     24  C   UNL     1      45.013   2.083   9.322  0.00  0.00    +0.000 A 
ATOM     25  C   UNL     1      44.573   3.402   9.452  0.00  0.00    +0.000 A 
ATOM     26  C   UNL     1      45.141   4.324   8.562  0.00  0.00    +0.000 A 
ATOM     27  N   UNL     1      46.043   4.035   7.590  0.00  0.00    +0.000 NA
BRANCH  22  29
ATOM     28  N   UNL     1      47.406   3.159   5.329  0.00  0.00    +0.000 N 
ATOM     29  C   UNL     1      47.443   2.393   6.463  0.00  0.00    +0.000 C 
ATOM     30  O   UNL     1      48.273   1.506   6.616  0.00  0.00    +0.000 OA
ATOM     31  H   UNL     1      48.092   3.011   4.604  0.00  0.00    +0.000 HD
ATOM     32  H   UNL     1      46.726   3.908   5.255  0.00  0.00    +0.000 HD
ENDBRANCH  22  29
ENDBRANCH  20  25
ENDBRANCH  19  20
ENDBRANCH   1  19
TORSDOF 8
ENDMDL
MODEL 5
REMARK VINA RESULT:    -7.017      2.985      7.364
REMARK INTER + INTRA:         -11.432
REMARK INTER:                 -10.586
REMARK INTRA:                  -0.846
REMARK UNBOUND:                -1.133
REMARK  Name = 
REMARK  8 active torsions:
REMARK  status: ('A' for Active; 'I' for Inactive)
REMARK    1  A    between atoms: C_2  and  C_4
REMARK    2  A    between atoms: C_7  and  N_8
REMARK    3  A    between atoms: N_8  and  C_9
REMARK    4  A    between atoms: C_9  and  C_10
REMARK    5  A    between atoms: C_10  and  C_13
REMARK    6  A    between atoms: C_15  and  O_16
REMARK    7  A    between atoms: O_16  and  C_17
REMARK    8  A    between atoms: C_22  and  C_23
REMARK                            x       y       z     vdW  Elec       q    Type
REMARK                         _______ _______ _______ _____ _____    ______ ____
ROOT
ATOM      1  C   UNL     1      45.652   7.515  11.832  0.00  0.00    +0.000 C 
ATOM      2  F   UNL     1      44.951   7.500  13.005  0.00  0.00    +0.000 F 
ATOM      3  F   UNL     1      45.208   8.627  11.167  0.00  0.00    +0.000 F 
ENDROOT
BRANCH   1   4
ATOM      4  C   UNL     1      45.427   6.246  11.029  0.00  0.00    +0.000 A 
ATOM      5  C   UNL     1      46.015   6.085   9.760  0.00  0.00    +0.000 A 
ATOM      6  C   UNL     1      45.815   4.911   9.036  0.00  0.00    +0.000 A 
ATOM      7  C   UNL     1      45.047   3.879   9.580  0.00  0.00    +0.000 A 
ATOM      8  C   UNL     1      44.455   4.012  10.842  0.00  0.00    +0.000 A 
ATOM      9  C   UNL     1      44.639   5.208  11.554  0.00  0.00    +0.000 A 
BRANCH   8  10
ATOM     10  C   UNL     1      43.641   2.890  11.443  0.00  0.00    +0.000 C 
ATOM     11  F   UNL     1      43.566   1.785  10.653  0.00  0.00    +0.000 F 
ATOM     12  F   UNL     1      44.145   2.467  12.634  0.00  0.00    +0.000 F 
ATOM     13  F   UNL     1      42.356   3.263  11.691  0.00  0.00    +0.000 F 
ENDBRANCH   8  10
BRANCH   6  14
ATOM     14  O   UNL     1      46.359   4.637   7.810  0.00  0.00    +0.000 OA
BRANCH  14  15
ATOM     15  C   UNL     1      46.105   3.354   7.197  0.00  0.00    +0.000 C 
ATOM     16  C   UNL     1      47.031   2.183   7.558  0.00  0.00    +0.000 C 
ATOM     17  O   UNL     1      47.302   1.908   6.162  0.00  0.00    +0.000 OA
ATOM     18  C   UNL     1      46.698   3.171   5.790  0.00  0.00    +0.000 C 
ENDBRANCH  14  15
ENDBRANCH   6  14
ENDBRANCH   1   4
BRANCH   1  19
ATOM     19  C   UNL     1      47.157   7.725  12.148  0.00  0.00    +0.000 C 
BRANCH  19  20
ATOM     20  N   UNL     1      47.854   6.462  12.447  0.00  0.00    +0.000 N 
ATOM     21  H   UNL     1      47.976   5.848  11.639  0.00  0.00    +0.000 HD
BRANCH  20  25
ATOM     22  C   UNL     1      47.542   4.251  15.947  0.00  0.00    +0.000 A 
ATOM     23  C   UNL     1      48.046   5.540  16.046  0.00  0.00    +0.000 A 
ATOM     24  C   UNL     1      48.136   6.308  14.883  0.00  0.00    +0.000 A 
ATOM     25  C   UNL     1      47.698   5.801  13.659  0.00  0.00    +0.000 A 
ATOM     26  C   UNL     1      47.214   4.486  13.682  0.00  0.00    +0.000 A 
ATOM     27  N   UNL     1      47.117   3.696  14.782  0.00  0.00    +0.000 NA
BRANCH  22  29
ATOM     28  N   UNL     1      48.675   3.200  17.815  0.00  0.00    +0.000 N 
ATOM     29  C   UNL     1      47.483   3.387  17.168  0.00  0.00    +0.000 C 
ATOM     30  O   UNL     1      46.442   2.891  17.578  0.00  0.00    +0.000 OA
ATOM     31  H   UNL     1      48.702   2.661  18.666  0.00  0.00    +0.000 HD
ATOM     32  H   UNL     1      49.510   3.658  17.464  0.00  0.00    +0.000 HD
ENDBRANCH  22  29
ENDBRANCH  20  25
ENDBRANCH  19  20
ENDBRANCH   1  19
TORSDOF 8
ENDMDL
MODEL 6
REMARK VINA RESULT:    -6.851      3.124      4.094
REMARK INTER + INTRA:         -11.189
REMARK INTER:                 -10.296
REMARK INTRA:                  -0.892
REMARK UNBOUND:                -1.133
REMARK  Name = 
REMARK  8 active torsions:
REMARK  status: ('A' for Active; 'I' for Inactive)
REMARK    1  A    between atoms: C_2  and  C_4
REMARK    2  A    between atoms: C_7  and  N_8
REMARK    3  A    between atoms: N_8  and  C_9
REMARK    4  A    between atoms: C_9  and  C_10
REMARK    5  A    between atoms: C_10  and  C_13
REMARK    6  A    between atoms: C_15  and  O_16
REMARK    7  A    between atoms: O_16  and  C_17
REMARK    8  A    between atoms: C_22  and  C_23
REMARK                            x       y       z     vdW  Elec       q    Type
REMARK                         _______ _______ _______ _____ _____    ______ ____
ROOT
ATOM      1  C   UNL     1      45.983   5.809  12.665  0.00  0.00    +0.000 C 
ATOM      2  F   UNL     1      46.592   6.273  11.533  0.00  0.00    +0.000 F 
ATOM      3  F   UNL     1      44.947   6.676  12.891  0.00  0.00    +0.000 F 
ENDROOT
BRANCH   1   4
ATOM      4  C   UNL     1      46.945   5.756  13.837  0.00  0.00    +0.000 A 
ATOM      5  C   UNL     1      47.900   6.772  14.028  0.00  0.00    +0.000 A 
ATOM      6  C   UNL     1      48.771   6.723  15.116  0.00  0.00    +0.000 A 
ATOM      7  C   UNL     1      48.682   5.675  16.034  0.00  0.00    +0.000 A 
ATOM      8  C   UNL     1      47.738   4.653  15.868  0.00  0.00    +0.000 A 
ATOM      9  C   UNL     1      46.882   4.696  14.757  0.00  0.00    +0.000 A 
BRANCH   8  10
ATOM     10  C   UNL     1      47.625   3.528  16.870  0.00  0.00    +0.000 C 
ATOM     11  F   UNL     1      48.120   3.838  18.100  0.00  0.00    +0.000 F 
ATOM     12  F   UNL     1      46.335   3.142  17.070  0.00  0.00    +0.000 F 
ATOM     13  F   UNL     1      48.292   2.412  16.467  0.00  0.00    +0.000 F 
ENDBRANCH   8  10
BRANCH   6  14
ATOM     14  O   UNL     1      49.717   7.669  15.413  0.00  0.00    +0.000 OA
BRANCH  14  15
ATOM     15  C   UNL     1      50.818   7.315  16.278  0.00  0.00    +0.000 C 
ATOM     16  C   UNL     1      51.217   8.302  17.384  0.00  0.00    +0.000 C 
ATOM     17  O   UNL     1      52.597   8.306  16.946  0.00  0.00    +0.000 OA
ATOM     18  C   UNL     1      52.216   7.633  15.721  0.00  0.00    +0.000 C 
ENDBRANCH  14  15
ENDBRANCH   6  14
ENDBRANCH   1   4
BRANCH   1  19
ATOM     19  C   UNL     1      45.372   4.413  12.370  0.00  0.00    +0.000 C 
BRANCH  19  20
ATOM     20  N   UNL     1      44.567   4.397  11.136  0.00  0.00    +0.000 N 
ATOM     21  H   UNL     1      43.562   4.295  11.291  0.00  0.00    +0.000 HD
BRANCH  20  25
ATOM     22  C   UNL     1      46.225   2.845   7.661  0.00  0.00    +0.000 A 
ATOM     23  C   UNL     1      45.670   1.948   8.562  0.00  0.00    +0.000 A 
ATOM     24  C   UNL     1      45.086   2.452   9.725  0.00  0.00    +0.000 A 
ATOM     25  C   UNL     1      45.033   3.828   9.958  0.00  0.00    +0.000 A 
ATOM     26  C   UNL     1      45.631   4.634   8.979  0.00  0.00    +0.000 A 
ATOM     27  N   UNL     1      46.220   4.192   7.839  0.00  0.00    +0.000 NA
BRANCH  22  29
ATOM     28  N   UNL     1      47.060   3.238   5.420  0.00  0.00    +0.000 N 
ATOM     29  C   UNL     1      46.904   2.329   6.431  0.00  0.00    +0.000 C 
ATOM     30  O   UNL     1      47.310   1.178   6.332  0.00  0.00    +0.000 OA
ATOM     31  H   UNL     1      47.544   2.970   4.576  0.00  0.00    +0.000 HD
ATOM     32  H   UNL     1      46.742   4.192   5.554  0.00  0.00    +0.000 HD
ENDBRANCH  22  29
ENDBRANCH  20  25
ENDBRANCH  19  20
ENDBRANCH   1  19
TORSDOF 8
ENDMDL
MODEL 7
REMARK VINA RESULT:    -6.570      3.031      4.889
REMARK INTER + INTRA:         -10.777
REMARK INTER:                  -9.443
REMARK INTRA:                  -1.334
REMARK UNBOUND:                -1.133
REMARK  Name = 
REMARK  8 active torsions:
REMARK  status: ('A' for Active; 'I' for Inactive)
REMARK    1  A    between atoms: C_2  and  C_4
REMARK    2  A    between atoms: C_7  and  N_8
REMARK    3  A    between atoms: N_8  and  C_9
REMARK    4  A    between atoms: C_9  and  C_10
REMARK    5  A    between atoms: C_10  and  C_13
REMARK    6  A    between atoms: C_15  and  O_16
REMARK    7  A    between atoms: O_16  and  C_17
REMARK    8  A    between atoms: C_22  and  C_23
REMARK                            x       y       z     vdW  Elec       q    Type
REMARK                         _______ _______ _______ _____ _____    ______ ____
ROOT
ATOM      1  C   UNL     1      48.164   8.119  12.684  0.00  0.00    +0.000 C 
ATOM      2  F   UNL     1      48.423   7.001  11.942  0.00  0.00    +0.000 F 
ATOM      3  F   UNL     1      48.989   9.085  12.171  0.00  0.00    +0.000 F 
ENDROOT
BRANCH   1   4
ATOM      4  C   UNL     1      48.419   7.881  14.161  0.00  0.00    +0.000 A 
ATOM      5  C   UNL     1      48.831   6.616  14.624  0.00  0.00    +0.000 A 
ATOM      6  C   UNL     1      49.077   6.411  15.981  0.00  0.00    +0.000 A 
ATOM      7  C   UNL     1      48.939   7.467  16.883  0.00  0.00    +0.000 A 
ATOM      8  C   UNL     1      48.535   8.736  16.448  0.00  0.00    +0.000 A 
ATOM      9  C   UNL     1      48.264   8.929  15.084  0.00  0.00    +0.000 A 
BRANCH   8  10
ATOM     10  C   UNL     1      48.404   9.887  17.417  0.00  0.00    +0.000 C 
ATOM     11  F   UNL     1      47.344   9.773  18.262  0.00  0.00    +0.000 F 
ATOM     12  F   UNL     1      49.503  10.023  18.209  0.00  0.00    +0.000 F 
ATOM     13  F   UNL     1      48.251  11.080  16.780  0.00  0.00    +0.000 F 
ENDBRANCH   8  10
BRANCH   6  14
ATOM     14  O   UNL     1      49.506   5.234  16.535  0.00  0.00    +0.000 OA
BRANCH  14  15
ATOM     15  C   UNL     1      48.592   4.464  17.347  0.00  0.00    +0.000 C 
ATOM     16  C   UNL     1      48.648   2.933  17.248  0.00  0.00    +0.000 C 
ATOM     17  O   UNL     1      47.228   2.854  16.977  0.00  0.00    +0.000 OA
ATOM     18  C   UNL     1      47.184   4.285  16.756  0.00  0.00    +0.000 C 
ENDBRANCH  14  15
ENDBRANCH   6  14
ENDBRANCH   1   4
BRANCH   1  19
ATOM     19  C   UNL     1      46.700   8.565  12.427  0.00  0.00    +0.000 C 
BRANCH  19  20
ATOM     20  N   UNL     1      45.728   7.804  13.230  0.00  0.00    +0.000 N 
ATOM     21  H   UNL     1      45.843   7.909  14.240  0.00  0.00    +0.000 HD
BRANCH  20  25
ATOM     22  C   UNL     1      44.364   4.178  11.738  0.00  0.00    +0.000 A 
ATOM     23  C   UNL     1      45.265   4.139  12.791  0.00  0.00    +0.000 A 
ATOM     24  C   UNL     1      45.717   5.348  13.323  0.00  0.00    +0.000 A 
ATOM     25  C   UNL     1      45.246   6.565  12.827  0.00  0.00    +0.000 A 
ATOM     26  C   UNL     1      44.343   6.478  11.759  0.00  0.00    +0.000 A 
ATOM     27  N   UNL     1      43.883   5.330  11.200  0.00  0.00    +0.000 NA
BRANCH  22  29
ATOM     28  N   UNL     1      44.684   2.425  10.094  0.00  0.00    +0.000 N 
ATOM     29  C   UNL     1      43.903   2.898  11.114  0.00  0.00    +0.000 C 
ATOM     30  O   UNL     1      42.905   2.298  11.493  0.00  0.00    +0.000 OA
ATOM     31  H   UNL     1      44.454   1.548   9.654  0.00  0.00    +0.000 HD
ATOM     32  H   UNL     1      45.523   2.933   9.833  0.00  0.00    +0.000 HD
ENDBRANCH  22  29
ENDBRANCH  20  25
ENDBRANCH  19  20
ENDBRANCH   1  19
TORSDOF 8
ENDMDL
MODEL 8
REMARK VINA RESULT:    -6.499      4.038      7.431
REMARK INTER + INTRA:         -10.672
REMARK INTER:                  -8.717
REMARK INTRA:                  -1.955
REMARK UNBOUND:                -1.133
REMARK  Name = 
REMARK  8 active torsions:
REMARK  status: ('A' for Active; 'I' for Inactive)
REMARK    1  A    between atoms: C_2  and  C_4
REMARK    2  A    between atoms: C_7  and  N_8
REMARK    3  A    between atoms: N_8  and  C_9
REMARK    4  A    between atoms: C_9  and  C_10
REMARK    5  A    between atoms: C_10  and  C_13
REMARK    6  A    between atoms: C_15  and  O_16
REMARK    7  A    between atoms: O_16  and  C_17
REMARK    8  A    between atoms: C_22  and  C_23
REMARK                            x       y       z     vdW  Elec       q    Type
REMARK                         _______ _______ _______ _____ _____    ______ ____
ROOT
ATOM      1  C   UNL     1      48.075   7.893  12.699  0.00  0.00    +0.000 C 
ATOM      2  F   UNL     1      47.647   8.698  11.682  0.00  0.00    +0.000 F 
ATOM      3  F   UNL     1      49.403   7.671  12.443  0.00  0.00    +0.000 F 
ENDROOT
BRANCH   1   4
ATOM      4  C   UNL     1      47.285   6.598  12.758  0.00  0.00    +0.000 A 
ATOM      5  C   UNL     1      47.426   5.720  13.850  0.00  0.00    +0.000 A 
ATOM      6  C   UNL     1      46.685   4.540  13.904  0.00  0.00    +0.000 A 
ATOM      7  C   UNL     1      45.782   4.237  12.883  0.00  0.00    +0.000 A 
ATOM      8  C   UNL     1      45.620   5.095  11.788  0.00  0.00    +0.000 A 
ATOM      9  C   UNL     1      46.388   6.269  11.728  0.00  0.00    +0.000 A 
BRANCH   8  10
ATOM     10  C   UNL     1      44.629   4.781  10.692  0.00  0.00    +0.000 C 
ATOM     11  F   UNL     1      45.140   4.913   9.437  0.00  0.00    +0.000 F 
ATOM     12  F   UNL     1      44.156   3.508  10.773  0.00  0.00    +0.000 F 
ATOM     13  F   UNL     1      43.537   5.592  10.739  0.00  0.00    +0.000 F 
ENDBRANCH   8  10
BRANCH   6  14
ATOM     14  O   UNL     1      46.723   3.631  14.927  0.00  0.00    +0.000 OA
BRANCH  14  15
ATOM     15  C   UNL     1      47.657   3.829  16.011  0.00  0.00    +0.000 C 
ATOM     16  C   UNL     1      48.362   2.596  16.595  0.00  0.00    +0.000 C 
ATOM     17  O   UNL     1      47.949   2.941  17.939  0.00  0.00    +0.000 OA
ATOM     18  C   UNL     1      47.026   3.924  17.410  0.00  0.00    +0.000 C 
ENDBRANCH  14  15
ENDBRANCH   6  14
ENDBRANCH   1   4
BRANCH   1  19
ATOM     19  C   UNL     1      47.978   8.677  14.035  0.00  0.00    +0.000 C 
BRANCH  19  20
ATOM     20  N   UNL     1      49.265   8.738  14.750  0.00  0.00    +0.000 N 
ATOM     21  H   UNL     1      50.072   8.912  14.148  0.00  0.00    +0.000 HD
BRANCH  20  25
ATOM     22  C   UNL     1      49.756   6.328  18.094  0.00  0.00    +0.000 A 
ATOM     23  C   UNL     1      50.527   6.040  16.978  0.00  0.00    +0.000 A 
ATOM     24  C   UNL     1      50.394   6.854  15.852  0.00  0.00    +0.000 A 
ATOM     25  C   UNL     1      49.531   7.950  15.862  0.00  0.00    +0.000 A 
ATOM     26  C   UNL     1      48.800   8.137  17.044  0.00  0.00    +0.000 A 
ATOM     27  N   UNL     1      48.885   7.368  18.159  0.00  0.00    +0.000 NA
BRANCH  22  29
ATOM     28  N   UNL     1      50.434   4.225  19.091  0.00  0.00    +0.000 N 
ATOM     29  C   UNL     1      49.840   5.441  19.297  0.00  0.00    +0.000 C 
ATOM     30  O   UNL     1      49.422   5.777  20.398  0.00  0.00    +0.000 OA
ATOM     31  H   UNL     1      50.559   3.592  19.867  0.00  0.00    +0.000 HD
ATOM     32  H   UNL     1      50.800   3.998  18.173  0.00  0.00    +0.000 HD
ENDBRANCH  22  29
ENDBRANCH  20  25
ENDBRANCH  19  20
ENDBRANCH   1  19
TORSDOF 8
ENDMDL
MODEL 9
REMARK VINA RESULT:    -6.276      3.625      5.899
REMARK INTER + INTRA:         -10.344
REMARK INTER:                  -9.527
REMARK INTRA:                  -0.817
REMARK UNBOUND:                -1.133
REMARK  Name = 
REMARK  8 active torsions:
REMARK  status: ('A' for Active; 'I' for Inactive)
REMARK    1  A    between atoms: C_2  and  C_4
REMARK    2  A    between atoms: C_7  and  N_8
REMARK    3  A    between atoms: N_8  and  C_9
REMARK    4  A    between atoms: C_9  and  C_10
REMARK    5  A    between atoms: C_10  and  C_13
REMARK    6  A    between atoms: C_15  and  O_16
REMARK    7  A    between atoms: O_16  and  C_17
REMARK    8  A    between atoms: C_22  and  C_23
REMARK                            x       y       z     vdW  Elec       q    Type
REMARK                         _______ _______ _______ _____ _____    ______ ____
ROOT
ATOM      1  C   UNL     1      48.808   7.773  15.243  0.00  0.00    +0.000 C 
ATOM      2  F   UNL     1      49.967   8.483  15.098  0.00  0.00    +0.000 F 
ATOM      3  F   UNL     1      47.854   8.708  15.548  0.00  0.00    +0.000 F 
ENDROOT
BRANCH   1   4
ATOM      4  C   UNL     1      48.932   6.714  16.323  0.00  0.00    +0.000 A 
ATOM      5  C   UNL     1      49.420   7.047  17.601  0.00  0.00    +0.000 A 
ATOM      6  C   UNL     1      49.517   6.072  18.593  0.00  0.00    +0.000 A 
ATOM      7  C   UNL     1      49.107   4.764  18.327  0.00  0.00    +0.000 A 
ATOM      8  C   UNL     1      48.614   4.408  17.065  0.00  0.00    +0.000 A 
ATOM      9  C   UNL     1      48.544   5.389  16.064  0.00  0.00    +0.000 A 
BRANCH   8  10
ATOM     10  C   UNL     1      48.150   2.999  16.779  0.00  0.00    +0.000 C 
ATOM     11  F   UNL     1      47.129   2.586  17.578  0.00  0.00    +0.000 F 
ATOM     12  F   UNL     1      47.711   2.849  15.500  0.00  0.00    +0.000 F 
ATOM     13  F   UNL     1      49.147   2.086  16.943  0.00  0.00    +0.000 F 
ENDBRANCH   8  10
BRANCH   6  14
ATOM     14  O   UNL     1      49.950   6.289  19.874  0.00  0.00    +0.000 OA
BRANCH  14  15
ATOM     15  C   UNL     1      48.988   6.648  20.890  0.00  0.00    +0.000 C 
ATOM     16  C   UNL     1      47.506   6.713  20.494  0.00  0.00    +0.000 C 
ATOM     17  O   UNL     1      47.377   8.056  21.020  0.00  0.00    +0.000 OA
ATOM     18  C   UNL     1      48.818   8.158  21.128  0.00  0.00    +0.000 C 
ENDBRANCH  14  15
ENDBRANCH   6  14
ENDBRANCH   1   4
BRANCH   1  19
ATOM     19  C   UNL     1      48.430   7.144  13.875  0.00  0.00    +0.000 C 
BRANCH  19  20
ATOM     20  N   UNL     1      46.974   7.103  13.655  0.00  0.00    +0.000 N 
ATOM     21  H   UNL     1      46.420   7.452  14.439  0.00  0.00    +0.000 HD
BRANCH  20  25
ATOM     22  C   UNL     1      44.929   4.088  11.663  0.00  0.00    +0.000 A 
ATOM     23  C   UNL     1      45.337   5.185  10.919  0.00  0.00    +0.000 A 
ATOM     24  C   UNL     1      46.047   6.198  11.566  0.00  0.00    +0.000 A 
ATOM     25  C   UNL     1      46.366   6.092  12.920  0.00  0.00    +0.000 A 
ATOM     26  C   UNL     1      45.896   4.941  13.568  0.00  0.00    +0.000 A 
ATOM     27  N   UNL     1      45.193   3.936  12.987  0.00  0.00    +0.000 NA
BRANCH  22  29
ATOM     28  N   UNL     1      44.744   2.348   9.985  0.00  0.00    +0.000 N 
ATOM     29  C   UNL     1      44.121   3.012  11.007  0.00  0.00    +0.000 C 
ATOM     30  O   UNL     1      42.985   2.726  11.365  0.00  0.00    +0.000 OA
ATOM     31  H   UNL     1      44.273   1.585   9.524  0.00  0.00    +0.000 HD
ATOM     32  H   UNL     1      45.699   2.590   9.743  0.00  0.00    +0.000 HD
ENDBRANCH  22  29
ENDBRANCH  20  25
ENDBRANCH  19  20
ENDBRANCH   1  19
TORSDOF 8
ENDMDL
