MODEL 1
REMARK VINA RESULT:    -9.399      0.000      0.000
REMARK INTER + INTRA:         -13.788
REMARK INTER:                 -12.696
REMARK INTRA:                  -1.092
REMARK UNBOUND:                -1.092
REMARK  Name = 
REMARK  6 active torsions:
REMARK  status: ('A' for Active; 'I' for Inactive)
REMARK    1  A    between atoms: C_2  and  C_4
REMARK    2  A    between atoms: C_7  and  N_8
REMARK    3  A    between atoms: N_8  and  C_9
REMARK    4  A    between atoms: C_9  and  C_10
REMARK    5  A    between atoms: C_10  and  C_13
REMARK    6  A    between atoms: C_17  and  C_18
REMARK                            x       y       z     vdW  Elec       q    Type
REMARK                         _______ _______ _______ _____ _____    ______ ____
ROOT
ATOM      1  C   UNL     1      43.576   5.522  12.172  0.00  0.00    +0.000 C 
ATOM      2  F   UNL     1      43.044   6.553  11.453  0.00  0.00    +0.000 F 
ATOM      3  F   UNL     1      42.855   5.483  13.336  0.00  0.00    +0.000 F 
ENDROOT
BRANCH   1   4
ATOM      4  C   UNL     1      45.061   5.699  12.418  0.00  0.00    +0.000 A 
ATOM      5  C   UNL     1      45.846   6.470  11.553  0.00  0.00    +0.000 A 
ATOM      6  C   UNL     1      47.189   6.697  11.841  0.00  0.00    +0.000 A 
ATOM      7  C   UNL     1      47.756   6.165  13.003  0.00  0.00    +0.000 A 
ATOM      8  C   UNL     1      47.002   5.387  13.900  0.00  0.00    +0.000 A 
ATOM      9  C   UNL     1      45.652   5.153  13.572  0.00  0.00    +0.000 A 
BRANCH   8  10
ATOM     10  C   UNL     1      47.588   4.857  15.147  0.00  0.00    +0.000 A 
ATOM     11  N   UNL     1      48.491   5.620  15.798  0.00  0.00    +0.000 NA
ATOM     12  C   UNL     1      48.982   5.120  16.947  0.00  0.00    +0.000 A 
ATOM     13  C   UNL     1      48.613   3.903  17.467  0.00  0.00    +0.000 A 
ATOM     14  C   UNL     1      47.686   3.203  16.731  0.00  0.00    +0.000 A 
ATOM     15  N   UNL     1      47.159   3.655  15.580  0.00  0.00    +0.000 NA
ENDBRANCH   8  10
ENDBRANCH   1   4
BRANCH   1  16
ATOM     16  C   UNL     1      43.338   4.192  11.411  0.00  0.00    +0.000 C 
BRANCH  16  17
ATOM     17  N   UNL     1      43.426   4.322   9.949  0.00  0.00    +0.000 N 
ATOM     18  H   UNL     1      42.529   4.272   9.466  0.00  0.00    +0.000 HD
BRANCH  17  22
ATOM     19  C   UNL     1      46.465   2.446   7.706  0.00  0.00    +0.000 A 
ATOM     20  C   UNL     1      46.316   3.833   7.636  0.00  0.00    +0.000 A 
ATOM     21  C   UNL     1      45.323   4.468   8.388  0.00  0.00    +0.000 A 
ATOM     22  C   UNL     1      44.482   3.748   9.245  0.00  0.00    +0.000 A 
ATOM     23  C   UNL     1      44.631   2.353   9.283  0.00  0.00    +0.000 A 
ATOM     24  C   UNL     1      45.607   1.704   8.519  0.00  0.00    +0.000 A 
BRANCH  19  26
ATOM     25  N   UNL     1      48.559   2.472   6.472  0.00  0.00    +0.000 N 
ATOM     26  C   UNL     1      47.490   1.736   6.900  0.00  0.00    +0.000 C 
ATOM     27  O   UNL     1      47.406   0.540   6.655  0.00  0.00    +0.000 OA
ATOM     28  H   UNL     1      49.303   1.960   6.015  0.00  0.00    +0.000 HD
ATOM     29  H   UNL     1      48.785   3.374   6.866  0.00  0.00    +0.000 HD
ENDBRANCH  19  26
ENDBRANCH  17  22
ENDBRANCH  16  17
ENDBRANCH   1  16
TORSDOF 6
ENDMDL
MODEL 2
REMARK VINA RESULT:    -8.600      1.152      1.992
REMARK INTER + INTRA:         -12.708
REMARK INTER:                 -11.635
REMARK INTRA:                  -1.073
REMARK UNBOUND:                -1.092
REMARK  Name = 
REMARK  6 active torsions:
REMARK  status: ('A' for Active; 'I' for Inactive)
REMARK    1  A    between atoms: C_2  and  C_4
REMARK    2  A    between atoms: C_7  and  N_8
REMARK    3  A    between atoms: N_8  and  C_9
REMARK    4  A    between atoms: C_9  and  C_10
REMARK    5  A    between atoms: C_10  and  C_13
REMARK    6  A    between atoms: C_17  and  C_18
REMARK                            x       y       z     vdW  Elec       q    Type
REMARK                         _______ _______ _______ _____ _____    ______ ____
ROOT
ATOM      1  C   UNL     1      44.856   5.254  12.378  0.00  0.00    +0.000 C 
ATOM      2  F   UNL     1      44.028   5.619  13.399  0.00  0.00    +0.000 F 
ATOM      3  F   UNL     1      44.903   3.887  12.420  0.00  0.00    +0.000 F 
ENDROOT
BRANCH   1   4
ATOM      4  C   UNL     1      46.229   5.883  12.499  0.00  0.00    +0.000 A 
ATOM      5  C   UNL     1      46.725   6.725  11.496  0.00  0.00    +0.000 A 
ATOM      6  C   UNL     1      47.949   7.366  11.663  0.00  0.00    +0.000 A 
ATOM      7  C   UNL     1      48.683   7.182  12.838  0.00  0.00    +0.000 A 
ATOM      8  C   UNL     1      48.221   6.347  13.871  0.00  0.00    +0.000 A 
ATOM      9  C   UNL     1      46.990   5.691  13.667  0.00  0.00    +0.000 A 
BRANCH   8  10
ATOM     10  C   UNL     1      48.974   6.182  15.129  0.00  0.00    +0.000 A 
ATOM     11  N   UNL     1      48.464   5.361  16.072  0.00  0.00    +0.000 NA
ATOM     12  C   UNL     1      49.192   5.210  17.193  0.00  0.00    +0.000 A 
ATOM     13  C   UNL     1      50.395   5.838  17.411  0.00  0.00    +0.000 A 
ATOM     14  C   UNL     1      50.829   6.651  16.392  0.00  0.00    +0.000 A 
ATOM     15  N   UNL     1      50.147   6.836  15.249  0.00  0.00    +0.000 NA
ENDBRANCH   8  10
ENDBRANCH   1   4
BRANCH   1  16
ATOM     16  C   UNL     1      44.219   5.674  11.028  0.00  0.00    +0.000 C 
BRANCH  16  17
ATOM     17  N   UNL     1      43.710   4.543  10.236  0.00  0.00    +0.000 N 
ATOM     18  H   UNL     1      43.024   3.963  10.721  0.00  0.00    +0.000 HD
BRANCH  17  22
ATOM     19  C   UNL     1      46.443   2.501   7.759  0.00  0.00    +0.000 A 
ATOM     20  C   UNL     1      45.567   1.769   8.564  0.00  0.00    +0.000 A 
ATOM     21  C   UNL     1      44.645   2.435   9.377  0.00  0.00    +0.000 A 
ATOM     22  C   UNL     1      44.552   3.833   9.385  0.00  0.00    +0.000 A 
ATOM     23  C   UNL     1      45.456   4.550   8.588  0.00  0.00    +0.000 A 
ATOM     24  C   UNL     1      46.398   3.895   7.786  0.00  0.00    +0.000 A 
BRANCH  19  26
ATOM     25  N   UNL     1      48.478   2.599   6.433  0.00  0.00    +0.000 N 
ATOM     26  C   UNL     1      47.454   1.827   6.905  0.00  0.00    +0.000 C 
ATOM     27  O   UNL     1      47.397   0.629   6.658  0.00  0.00    +0.000 OA
ATOM     28  H   UNL     1      49.217   2.113   5.941  0.00  0.00    +0.000 HD
ATOM     29  H   UNL     1      48.692   3.507   6.821  0.00  0.00    +0.000 HD
ENDBRANCH  19  26
ENDBRANCH  17  22
ENDBRANCH  16  17
ENDBRANCH   1  16
TORSDOF 6
ENDMDL
MODEL 3
REMARK VINA RESULT:    -8.327      2.360      4.003
REMARK INTER + INTRA:         -12.340
REMARK INTER:                 -11.374
REMARK INTRA:                  -0.966
REMARK UNBOUND:                -1.092
REMARK  Name = 
REMARK  6 active torsions:
REMARK  status: ('A' for Active; 'I' for Inactive)
REMARK    1  A    between atoms: C_2  and  C_4
REMARK    2  A    between atoms: C_7  and  N_8
REMARK    3  A    between atoms: N_8  and  C_9
REMARK    4  A    between atoms: C_9  and  C_10
REMARK    5  A    between atoms: C_10  and  C_13
REMARK    6  A    between atoms: C_17  and  C_18
REMARK                            x       y       z     vdW  Elec       q    Type
REMARK                         _______ _______ _______ _____ _____    ______ ____
ROOT
ATOM      1  C   UNL     1      43.573   4.382  12.641  0.00  0.00    +0.000 C 
ATOM      2  F   UNL     1      42.475   4.983  13.182  0.00  0.00    +0.000 F 
ATOM      3  F   UNL     1      43.627   3.140  13.216  0.00  0.00    +0.000 F 
ENDROOT
BRANCH   1   4
ATOM      4  C   UNL     1      44.840   5.181  12.873  0.00  0.00    +0.000 A 
ATOM      5  C   UNL     1      46.019   4.553  13.292  0.00  0.00    +0.000 A 
ATOM      6  C   UNL     1      47.196   5.285  13.414  0.00  0.00    +0.000 A 
ATOM      7  C   UNL     1      47.209   6.648  13.108  0.00  0.00    +0.000 A 
ATOM      8  C   UNL     1      46.048   7.318  12.682  0.00  0.00    +0.000 A 
ATOM      9  C   UNL     1      44.864   6.558  12.589  0.00  0.00    +0.000 A 
BRANCH   8  10
ATOM     10  C   UNL     1      46.067   8.749  12.320  0.00  0.00    +0.000 A 
ATOM     11  N   UNL     1      47.227   9.425  12.463  0.00  0.00    +0.000 NA
ATOM     12  C   UNL     1      47.216  10.719  12.095  0.00  0.00    +0.000 A 
ATOM     13  C   UNL     1      46.107  11.360  11.596  0.00  0.00    +0.000 A 
ATOM     14  C   UNL     1      44.977  10.586  11.488  0.00  0.00    +0.000 A 
ATOM     15  N   UNL     1      44.930   9.288  11.836  0.00  0.00    +0.000 NA
ENDBRANCH   8  10
ENDBRANCH   1   4
BRANCH   1  16
ATOM     16  C   UNL     1      43.358   4.198  11.116  0.00  0.00    +0.000 C 
BRANCH  16  17
ATOM     17  N   UNL     1      43.720   2.860  10.624  0.00  0.00    +0.000 N 
ATOM     18  H   UNL     1      43.859   2.164  11.356  0.00  0.00    +0.000 HD
BRANCH  17  22
ATOM     19  C   UNL     1      46.446   2.541   7.423  0.00  0.00    +0.000 A 
ATOM     20  C   UNL     1      46.000   1.382   8.062  0.00  0.00    +0.000 A 
ATOM     21  C   UNL     1      45.082   1.475   9.114  0.00  0.00    +0.000 A 
ATOM     22  C   UNL     1      44.569   2.709   9.530  0.00  0.00    +0.000 A 
ATOM     23  C   UNL     1      45.048   3.862   8.892  0.00  0.00    +0.000 A 
ATOM     24  C   UNL     1      45.982   3.785   7.852  0.00  0.00    +0.000 A 
BRANCH  19  26
ATOM     25  N   UNL     1      47.321   3.414   5.330  0.00  0.00    +0.000 N 
ATOM     26  C   UNL     1      47.441   2.482   6.321  0.00  0.00    +0.000 C 
ATOM     27  O   UNL     1      48.349   1.661   6.313  0.00  0.00    +0.000 OA
ATOM     28  H   UNL     1      48.062   3.434   4.639  0.00  0.00    +0.000 HD
ATOM     29  H   UNL     1      46.757   4.246   5.436  0.00  0.00    +0.000 HD
ENDBRANCH  19  26
ENDBRANCH  17  22
ENDBRANCH  16  17
ENDBRANCH   1  16
TORSDOF 6
ENDMDL
MODEL 4
REMARK VINA RESULT:    -8.296      2.053      3.473
REMARK INTER + INTRA:         -12.297
REMARK INTER:                 -11.272
REMARK INTRA:                  -1.025
REMARK UNBOUND:                -1.092
REMARK  Name = 
REMARK  6 active torsions:
REMARK  status: ('A' for Active; 'I' for Inactive)
REMARK    1  A    between atoms: C_2  and  C_4
REMARK    2  A    between atoms: C_7  and  N_8
REMARK    3  A    between atoms: N_8  and  C_9
REMARK    4  A    between atoms: C_9  and  C_10
REMARK    5  A    between atoms: C_10  and  C_13
REMARK    6  A    between atoms: C_17  and  C_18
REMARK                            x       y       z     vdW  Elec       q    Type
REMARK                         _______ _______ _______ _____ _____    ______ ____
ROOT
ATOM      1  C   UNL     1      43.654   4.893  12.499  0.00  0.00    +0.000 C 
ATOM      2  F   UNL     1      42.656   5.485  13.215  0.00  0.00    +0.000 F 
ATOM      3  F   UNL     1      43.442   3.546  12.626  0.00  0.00    +0.000 F 
ENDROOT
BRANCH   1   4
ATOM      4  C   UNL     1      45.031   5.307  12.980  0.00  0.00    +0.000 A 
ATOM      5  C   UNL     1      45.884   4.385  13.597  0.00  0.00    +0.000 A 
ATOM      6  C   UNL     1      47.178   4.757  13.951  0.00  0.00    +0.000 A 
ATOM      7  C   UNL     1      47.634   6.050  13.682  0.00  0.00    +0.000 A 
ATOM      8  C   UNL     1      46.810   7.007  13.063  0.00  0.00    +0.000 A 
ATOM      9  C   UNL     1      45.497   6.611  12.736  0.00  0.00    +0.000 A 
BRANCH   8  10
ATOM     10  C   UNL     1      47.302   8.361  12.742  0.00  0.00    +0.000 A 
ATOM     11  N   UNL     1      46.448   9.223  12.149  0.00  0.00    +0.000 NA
ATOM     12  C   UNL     1      46.920  10.457  11.899  0.00  0.00    +0.000 A 
ATOM     13  C   UNL     1      48.195  10.864  12.211  0.00  0.00    +0.000 A 
ATOM     14  C   UNL     1      48.986   9.915  12.813  0.00  0.00    +0.000 A 
ATOM     15  N   UNL     1      48.567   8.668  13.091  0.00  0.00    +0.000 NA
ENDBRANCH   8  10
ENDBRANCH   1   4
BRANCH   1  16
ATOM     16  C   UNL     1      43.502   5.266  11.002  0.00  0.00    +0.000 C 
BRANCH  16  17
ATOM     17  N   UNL     1      43.333   4.104  10.116  0.00  0.00    +0.000 N 
ATOM     18  H   UNL     1      42.715   3.380  10.482  0.00  0.00    +0.000 HD
BRANCH  17  22
ATOM     19  C   UNL     1      46.425   2.469   7.761  0.00  0.00    +0.000 A 
ATOM     20  C   UNL     1      46.173   3.841   7.705  0.00  0.00    +0.000 A 
ATOM     21  C   UNL     1      45.161   4.398   8.495  0.00  0.00    +0.000 A 
ATOM     22  C   UNL     1      44.404   3.613   9.373  0.00  0.00    +0.000 A 
ATOM     23  C   UNL     1      44.656   2.234   9.396  0.00  0.00    +0.000 A 
ATOM     24  C   UNL     1      45.651   1.662   8.596  0.00  0.00    +0.000 A 
BRANCH  19  26
ATOM     25  N   UNL     1      48.543   2.619   6.577  0.00  0.00    +0.000 N 
ATOM     26  C   UNL     1      47.472   1.840   6.916  0.00  0.00    +0.000 C 
ATOM     27  O   UNL     1      47.403   0.670   6.564  0.00  0.00    +0.000 OA
ATOM     28  H   UNL     1      49.300   2.154   6.091  0.00  0.00    +0.000 HD
ATOM     29  H   UNL     1      48.753   3.484   7.054  0.00  0.00    +0.000 HD
ENDBRANCH  19  26
ENDBRANCH  17  22
ENDBRANCH  16  17
ENDBRANCH   1  16
TORSDOF 6
ENDMDL
MODEL 5
REMARK VINA RESULT:    -7.943      1.928      2.726
REMARK INTER + INTRA:         -11.821
REMARK INTER:                 -10.823
REMARK INTRA:                  -0.998
REMARK UNBOUND:                -1.092
REMARK  Name = 
REMARK  6 active torsions:
REMARK  status: ('A' for Active; 'I' for Inactive)
REMARK    1  A    between atoms: C_2  and  C_4
REMARK    2  A    between atoms: C_7  and  N_8
REMARK    3  A    between atoms: N_8  and  C_9
REMARK    4  A    between atoms: C_9  and  C_10
REMARK    5  A    between atoms: C_10  and  C_13
REMARK    6  A    between atoms: C_17  and  C_18
REMARK                            x       y       z     vdW  Elec       q    Type
REMARK                         _______ _______ _______ _____ _____    ______ ____
ROOT
ATOM      1  C   UNL     1      43.982   4.911  12.463  0.00  0.00    +0.000 C 
ATOM      2  F   UNL     1      42.970   5.087  13.361  0.00  0.00    +0.000 F 
ATOM      3  F   UNL     1      44.712   3.856  12.941  0.00  0.00    +0.000 F 
ENDROOT
BRANCH   1   4
ATOM      4  C   UNL     1      44.821   6.161  12.290  0.00  0.00    +0.000 A 
ATOM      5  C   UNL     1      44.314   7.279  11.617  0.00  0.00    +0.000 A 
ATOM      6  C   UNL     1      45.061   8.451  11.544  0.00  0.00    +0.000 A 
ATOM      7  C   UNL     1      46.317   8.520  12.153  0.00  0.00    +0.000 A 
ATOM      8  C   UNL     1      46.863   7.422  12.841  0.00  0.00    +0.000 A 
ATOM      9  C   UNL     1      46.095   6.240  12.879  0.00  0.00    +0.000 A 
BRANCH   8  10
ATOM     10  C   UNL     1      48.171   7.505  13.519  0.00  0.00    +0.000 A 
ATOM     11  N   UNL     1      48.296   6.924  14.731  0.00  0.00    +0.000 NA
ATOM     12  C   UNL     1      49.510   6.992  15.307  0.00  0.00    +0.000 A 
ATOM     13  C   UNL     1      50.594   7.610  14.730  0.00  0.00    +0.000 A 
ATOM     14  C   UNL     1      50.365   8.169  13.495  0.00  0.00    +0.000 A 
ATOM     15  N   UNL     1      49.175   8.128  12.871  0.00  0.00    +0.000 NA
ENDBRANCH   8  10
ENDBRANCH   1   4
BRANCH   1  16
ATOM     16  C   UNL     1      43.384   4.503  11.092  0.00  0.00    +0.000 C 
BRANCH  16  17
ATOM     17  N   UNL     1      43.798   3.165  10.640  0.00  0.00    +0.000 N 
ATOM     18  H   UNL     1      44.006   2.510  11.394  0.00  0.00    +0.000 HD
BRANCH  17  22
ATOM     19  C   UNL     1      46.406   2.843   7.342  0.00  0.00    +0.000 A 
ATOM     20  C   UNL     1      46.006   1.688   8.016  0.00  0.00    +0.000 A 
ATOM     21  C   UNL     1      45.128   1.781   9.101  0.00  0.00    +0.000 A 
ATOM     22  C   UNL     1      44.607   3.012   9.517  0.00  0.00    +0.000 A 
ATOM     23  C   UNL     1      45.039   4.163   8.842  0.00  0.00    +0.000 A 
ATOM     24  C   UNL     1      45.934   4.085   7.769  0.00  0.00    +0.000 A 
BRANCH  19  26
ATOM     25  N   UNL     1      48.662   2.506   6.503  0.00  0.00    +0.000 N 
ATOM     26  C   UNL     1      47.358   2.785   6.204  0.00  0.00    +0.000 C 
ATOM     27  O   UNL     1      46.994   2.943   5.046  0.00  0.00    +0.000 OA
ATOM     28  H   UNL     1      49.284   2.365   5.716  0.00  0.00    +0.000 HD
ATOM     29  H   UNL     1      48.941   2.123   7.395  0.00  0.00    +0.000 HD
ENDBRANCH  19  26
ENDBRANCH  17  22
ENDBRANCH  16  17
ENDBRANCH   1  16
TORSDOF 6
ENDMDL
MODEL 6
REMARK VINA RESULT:    -7.641      1.567      2.185
REMARK INTER + INTRA:         -11.413
REMARK INTER:                 -10.356
REMARK INTRA:                  -1.057
REMARK UNBOUND:                -1.092
REMARK  Name = 
REMARK  6 active torsions:
REMARK  status: ('A' for Active; 'I' for Inactive)
REMARK    1  A    between atoms: C_2  and  C_4
REMARK    2  A    between atoms: C_7  and  N_8
REMARK    3  A    between atoms: N_8  and  C_9
REMARK    4  A    between atoms: C_9  and  C_10
REMARK    5  A    between atoms: C_10  and  C_13
REMARK    6  A    between atoms: C_17  and  C_18
REMARK                            x       y       z     vdW  Elec       q    Type
REMARK                         _______ _______ _______ _____ _____    ______ ____
ROOT
ATOM      1  C   UNL     1      43.712   5.710  11.981  0.00  0.00    +0.000 C 
ATOM      2  F   UNL     1      43.438   6.919  12.552  0.00  0.00    +0.000 F 
ATOM      3  F   UNL     1      42.550   4.993  12.073  0.00  0.00    +0.000 F 
ENDROOT
BRANCH   1   4
ATOM      4  C   UNL     1      44.877   5.009  12.652  0.00  0.00    +0.000 A 
ATOM      5  C   UNL     1      44.978   3.613  12.641  0.00  0.00    +0.000 A 
ATOM      6  C   UNL     1      46.098   2.988  13.182  0.00  0.00    +0.000 A 
ATOM      7  C   UNL     1      47.132   3.753  13.727  0.00  0.00    +0.000 A 
ATOM      8  C   UNL     1      47.073   5.158  13.756  0.00  0.00    +0.000 A 
ATOM      9  C   UNL     1      45.917   5.764  13.224  0.00  0.00    +0.000 A 
BRANCH   8  10
ATOM     10  C   UNL     1      48.181   5.969  14.296  0.00  0.00    +0.000 A 
ATOM     11  N   UNL     1      48.833   6.796  13.450  0.00  0.00    +0.000 NA
ATOM     12  C   UNL     1      49.817   7.543  13.982  0.00  0.00    +0.000 A 
ATOM     13  C   UNL     1      50.176   7.500  15.308  0.00  0.00    +0.000 A 
ATOM     14  C   UNL     1      49.452   6.628  16.086  0.00  0.00    +0.000 A 
ATOM     15  N   UNL     1      48.456   5.861  15.611  0.00  0.00    +0.000 NA
ENDBRANCH   8  10
ENDBRANCH   1   4
BRANCH   1  16
ATOM     16  C   UNL     1      44.036   5.915  10.478  0.00  0.00    +0.000 C 
BRANCH  16  17
ATOM     17  N   UNL     1      43.615   4.794   9.624  0.00  0.00    +0.000 N 
ATOM     18  H   UNL     1      42.744   4.348   9.912  0.00  0.00    +0.000 HD
BRANCH  17  22
ATOM     19  C   UNL     1      46.277   2.013   7.903  0.00  0.00    +0.000 A 
ATOM     20  C   UNL     1      46.433   3.373   7.629  0.00  0.00    +0.000 A 
ATOM     21  C   UNL     1      45.567   4.307   8.207  0.00  0.00    +0.000 A 
ATOM     22  C   UNL     1      44.553   3.914   9.089  0.00  0.00    +0.000 A 
ATOM     23  C   UNL     1      44.397   2.542   9.334  0.00  0.00    +0.000 A 
ATOM     24  C   UNL     1      45.244   1.597   8.744  0.00  0.00    +0.000 A 
BRANCH  19  26
ATOM     25  N   UNL     1      46.883  -0.316   7.562  0.00  0.00    +0.000 N 
ATOM     26  C   UNL     1      47.161   0.993   7.285  0.00  0.00    +0.000 C 
ATOM     27  O   UNL     1      48.077   1.300   6.533  0.00  0.00    +0.000 OA
ATOM     28  H   UNL     1      47.422  -1.007   7.056  0.00  0.00    +0.000 HD
ATOM     29  H   UNL     1      46.000  -0.608   7.957  0.00  0.00    +0.000 HD
ENDBRANCH  19  26
ENDBRANCH  17  22
ENDBRANCH  16  17
ENDBRANCH   1  16
TORSDOF 6
ENDMDL
MODEL 7
REMARK VINA RESULT:    -7.513      2.814      7.391
REMARK INTER + INTRA:         -11.241
REMARK INTER:                 -10.368
REMARK INTRA:                  -0.873
REMARK UNBOUND:                -1.092
REMARK  Name = 
REMARK  6 active torsions:
REMARK  status: ('A' for Active; 'I' for Inactive)
REMARK    1  A    between atoms: C_2  and  C_4
REMARK    2  A    between atoms: C_7  and  N_8
REMARK    3  A    between atoms: N_8  and  C_9
REMARK    4  A    between atoms: C_9  and  C_10
REMARK    5  A    between atoms: C_10  and  C_13
REMARK    6  A    between atoms: C_17  and  C_18
REMARK                            x       y       z     vdW  Elec       q    Type
REMARK                         _______ _______ _______ _____ _____    ______ ____
ROOT
ATOM      1  C   UNL     1      45.789   7.350  12.033  0.00  0.00    +0.000 C 
ATOM      2  F   UNL     1      45.336   7.700  13.271  0.00  0.00    +0.000 F 
ATOM      3  F   UNL     1      45.636   8.471  11.261  0.00  0.00    +0.000 F 
ENDROOT
BRANCH   1   4
ATOM      4  C   UNL     1      45.051   6.154  11.467  0.00  0.00    +0.000 A 
ATOM      5  C   UNL     1      43.739   5.866  11.861  0.00  0.00    +0.000 A 
ATOM      6  C   UNL     1      43.043   4.819  11.266  0.00  0.00    +0.000 A 
ATOM      7  C   UNL     1      43.647   4.056  10.263  0.00  0.00    +0.000 A 
ATOM      8  C   UNL     1      44.962   4.312   9.835  0.00  0.00    +0.000 A 
ATOM      9  C   UNL     1      45.653   5.363  10.471  0.00  0.00    +0.000 A 
BRANCH   8  10
ATOM     10  C   UNL     1      45.589   3.534   8.748  0.00  0.00    +0.000 A 
ATOM     11  N   UNL     1      46.063   4.206   7.678  0.00  0.00    +0.000 NA
ATOM     12  C   UNL     1      46.654   3.469   6.721  0.00  0.00    +0.000 A 
ATOM     13  C   UNL     1      46.791   2.103   6.786  0.00  0.00    +0.000 A 
ATOM     14  C   UNL     1      46.278   1.512   7.916  0.00  0.00    +0.000 A 
ATOM     15  N   UNL     1      45.680   2.198   8.906  0.00  0.00    +0.000 NA
ENDBRANCH   8  10
ENDBRANCH   1   4
BRANCH   1  16
ATOM     16  C   UNL     1      47.303   7.024  12.116  0.00  0.00    +0.000 C 
BRANCH  16  17
ATOM     17  N   UNL     1      47.899   7.307  13.431  0.00  0.00    +0.000 N 
ATOM     18  H   UNL     1      48.773   7.832  13.394  0.00  0.00    +0.000 HD
BRANCH  17  22
ATOM     19  C   UNL     1      47.829   4.296  16.382  0.00  0.00    +0.000 A 
ATOM     20  C   UNL     1      48.537   5.475  16.621  0.00  0.00    +0.000 A 
ATOM     21  C   UNL     1      48.553   6.488  15.657  0.00  0.00    +0.000 A 
ATOM     22  C   UNL     1      47.846   6.365  14.455  0.00  0.00    +0.000 A 
ATOM     23  C   UNL     1      47.161   5.163  14.223  0.00  0.00    +0.000 A 
ATOM     24  C   UNL     1      47.154   4.134  15.171  0.00  0.00    +0.000 A 
BRANCH  19  26
ATOM     25  N   UNL     1      49.000   2.880  17.973  0.00  0.00    +0.000 N 
ATOM     26  C   UNL     1      47.812   3.189  17.371  0.00  0.00    +0.000 C 
ATOM     27  O   UNL     1      46.781   2.598  17.664  0.00  0.00    +0.000 OA
ATOM     28  H   UNL     1      48.960   2.197  18.720  0.00  0.00    +0.000 HD
ATOM     29  H   UNL     1      49.795   3.502  17.948  0.00  0.00    +0.000 HD
ENDBRANCH  19  26
ENDBRANCH  17  22
ENDBRANCH  16  17
ENDBRANCH   1  16
TORSDOF 6
ENDMDL
MODEL 8
REMARK VINA RESULT:    -7.357      3.441      7.020
REMARK INTER + INTRA:         -11.030
REMARK INTER:                 -10.166
REMARK INTRA:                  -0.863
REMARK UNBOUND:                -1.092
REMARK  Name = 
REMARK  6 active torsions:
REMARK  status: ('A' for Active; 'I' for Inactive)
REMARK    1  A    between atoms: C_2  and  C_4
REMARK    2  A    between atoms: C_7  and  N_8
REMARK    3  A    between atoms: N_8  and  C_9
REMARK    4  A    between atoms: C_9  and  C_10
REMARK    5  A    between atoms: C_10  and  C_13
REMARK    6  A    between atoms: C_17  and  C_18
REMARK                            x       y       z     vdW  Elec       q    Type
REMARK                         _______ _______ _______ _____ _____    ______ ____
ROOT
ATOM      1  C   UNL     1      44.487   6.542  11.466  0.00  0.00    +0.000 C 
ATOM      2  F   UNL     1      43.272   7.157  11.397  0.00  0.00    +0.000 F 
ATOM      3  F   UNL     1      45.305   7.260  10.635  0.00  0.00    +0.000 F 
ENDROOT
BRANCH   1   4
ATOM      4  C   UNL     1      44.413   5.078  11.078  0.00  0.00    +0.000 A 
ATOM      5  C   UNL     1      43.532   4.206  11.729  0.00  0.00    +0.000 A 
ATOM      6  C   UNL     1      43.410   2.887  11.303  0.00  0.00    +0.000 A 
ATOM      7  C   UNL     1      44.158   2.430  10.214  0.00  0.00    +0.000 A 
ATOM      8  C   UNL     1      45.053   3.273   9.531  0.00  0.00    +0.000 A 
ATOM      9  C   UNL     1      45.175   4.597   9.999  0.00  0.00    +0.000 A 
BRANCH   8  10
ATOM     10  C   UNL     1      45.815   2.805   8.357  0.00  0.00    +0.000 A 
ATOM     11  N   UNL     1      46.260   1.531   8.355  0.00  0.00    +0.000 NA
ATOM     12  C   UNL     1      46.924   1.129   7.257  0.00  0.00    +0.000 A 
ATOM     13  C   UNL     1      47.162   1.937   6.171  0.00  0.00    +0.000 A 
ATOM     14  C   UNL     1      46.668   3.216   6.269  0.00  0.00    +0.000 A 
ATOM     15  N   UNL     1      45.993   3.671   7.339  0.00  0.00    +0.000 NA
ENDBRANCH   8  10
ENDBRANCH   1   4
BRANCH   1  16
ATOM     16  C   UNL     1      45.041   6.660  12.910  0.00  0.00    +0.000 C 
BRANCH  16  17
ATOM     17  N   UNL     1      45.754   7.921  13.168  0.00  0.00    +0.000 N 
ATOM     18  H   UNL     1      45.193   8.761  13.025  0.00  0.00    +0.000 HD
BRANCH  17  22
ATOM     19  C   UNL     1      49.787   8.172  11.964  0.00  0.00    +0.000 A 
ATOM     20  C   UNL     1      48.938   9.260  11.750  0.00  0.00    +0.000 A 
ATOM     21  C   UNL     1      47.603   9.195  12.161  0.00  0.00    +0.000 A 
ATOM     22  C   UNL     1      47.093   8.067  12.816  0.00  0.00    +0.000 A 
ATOM     23  C   UNL     1      47.955   6.975  12.999  0.00  0.00    +0.000 A 
ATOM     24  C   UNL     1      49.288   7.020  12.574  0.00  0.00    +0.000 A 
BRANCH  19  26
ATOM     25  N   UNL     1      51.609   7.181  10.696  0.00  0.00    +0.000 N 
ATOM     26  C   UNL     1      51.203   8.196  11.516  0.00  0.00    +0.000 C 
ATOM     27  O   UNL     1      51.967   9.098  11.834  0.00  0.00    +0.000 OA
ATOM     28  H   UNL     1      52.543   7.261  10.311  0.00  0.00    +0.000 HD
ATOM     29  H   UNL     1      50.954   6.581  10.216  0.00  0.00    +0.000 HD
ENDBRANCH  19  26
ENDBRANCH  17  22
ENDBRANCH  16  17
ENDBRANCH   1  16
TORSDOF 6
ENDMDL
MODEL 9
REMARK VINA RESULT:    -7.147      3.247      7.877
REMARK INTER + INTRA:         -10.746
REMARK INTER:                 -10.064
REMARK INTRA:                  -0.683
REMARK UNBOUND:                -1.092
REMARK  Name = 
REMARK  6 active torsions:
REMARK  status: ('A' for Active; 'I' for Inactive)
REMARK    1  A    between atoms: C_2  and  C_4
REMARK    2  A    between atoms: C_7  and  N_8
REMARK    3  A    between atoms: N_8  and  C_9
REMARK    4  A    between atoms: C_9  and  C_10
REMARK    5  A    between atoms: C_10  and  C_13
REMARK    6  A    between atoms: C_17  and  C_18
REMARK                            x       y       z     vdW  Elec       q    Type
REMARK                         _______ _______ _______ _____ _____    ______ ____
ROOT
ATOM      1  C   UNL     1      45.971   7.247  12.381  0.00  0.00    +0.000 C 
ATOM      2  F   UNL     1      45.233   7.980  13.264  0.00  0.00    +0.000 F 
ATOM      3  F   UNL     1      46.472   8.154  11.486  0.00  0.00    +0.000 F 
ENDROOT
BRANCH   1   4
ATOM      4  C   UNL     1      45.152   6.164  11.707  0.00  0.00    +0.000 A 
ATOM      5  C   UNL     1      43.795   5.997  12.008  0.00  0.00    +0.000 A 
ATOM      6  C   UNL     1      43.035   5.059  11.316  0.00  0.00    +0.000 A 
ATOM      7  C   UNL     1      43.620   4.288  10.309  0.00  0.00    +0.000 A 
ATOM      8  C   UNL     1      44.979   4.425   9.972  0.00  0.00    +0.000 A 
ATOM      9  C   UNL     1      45.732   5.365  10.705  0.00  0.00    +0.000 A 
BRANCH   8  10
ATOM     10  C   UNL     1      45.591   3.640   8.882  0.00  0.00    +0.000 A 
ATOM     11  N   UNL     1      46.088   4.309   7.820  0.00  0.00    +0.000 NA
ATOM     12  C   UNL     1      46.665   3.565   6.860  0.00  0.00    +0.000 A 
ATOM     13  C   UNL     1      46.765   2.195   6.913  0.00  0.00    +0.000 A 
ATOM     14  C   UNL     1      46.231   1.608   8.035  0.00  0.00    +0.000 A 
ATOM     15  N   UNL     1      45.646   2.301   9.028  0.00  0.00    +0.000 NA
ENDBRANCH   8  10
ENDBRANCH   1   4
BRANCH   1  16
ATOM     16  C   UNL     1      47.163   6.595  13.128  0.00  0.00    +0.000 C 
BRANCH  16  17
ATOM     17  N   UNL     1      46.787   5.427  13.939  0.00  0.00    +0.000 N 
ATOM     18  H   UNL     1      45.800   5.176  13.886  0.00  0.00    +0.000 HD
BRANCH  17  22
ATOM     19  C   UNL     1      48.587   4.569  17.654  0.00  0.00    +0.000 A 
ATOM     20  C   UNL     1      48.997   5.694  16.937  0.00  0.00    +0.000 A 
ATOM     21  C   UNL     1      48.395   5.998  15.711  0.00  0.00    +0.000 A 
ATOM     22  C   UNL     1      47.359   5.214  15.190  0.00  0.00    +0.000 A 
ATOM     23  C   UNL     1      46.978   4.074  15.914  0.00  0.00    +0.000 A 
ATOM     24  C   UNL     1      47.587   3.747  17.131  0.00  0.00    +0.000 A 
BRANCH  19  26
ATOM     25  N   UNL     1      48.527   3.349  19.756  0.00  0.00    +0.000 N 
ATOM     26  C   UNL     1      49.223   4.200  18.944  0.00  0.00    +0.000 C 
ATOM     27  O   UNL     1      50.333   4.609  19.259  0.00  0.00    +0.000 OA
ATOM     28  H   UNL     1      49.011   3.020  20.583  0.00  0.00    +0.000 HD
ATOM     29  H   UNL     1      47.747   2.801  19.420  0.00  0.00    +0.000 HD
ENDBRANCH  19  26
ENDBRANCH  17  22
ENDBRANCH  16  17
ENDBRANCH   1  16
TORSDOF 6
ENDMDL
