MODEL 1
REMARK VINA RESULT:    -7.655      0.000      0.000
REMARK INTER + INTRA:         -10.073
REMARK INTER:                  -9.445
REMARK INTRA:                  -0.628
REMARK UNBOUND:                -0.628
REMARK  Name = 
REMARK  4 active torsions:
REMARK  status: ('A' for Active; 'I' for Inactive)
REMARK    1  A    between atoms: C_4  and  O_5
REMARK    2  A    between atoms: O_5  and  C_6
REMARK    3  A    between atoms: C_6  and  C_7
REMARK    4  A    between atoms: C_11  and  N_12
REMARK                            x       y       z     vdW  Elec       q    Type
REMARK                         _______ _______ _______ _____ _____    ______ ____
ROOT
ATOM      1  C   UNL     1      44.214   4.562  10.602  0.00  0.00    +0.000 A 
ATOM      2  C   UNL     1      43.036   4.900  11.270  0.00  0.00    +0.000 A 
ATOM      3  C   UNL     1      43.078   5.258  12.612  0.00  0.00    +0.000 A 
ATOM      4  C   UNL     1      44.299   5.279  13.293  0.00  0.00    +0.000 A 
ATOM      5  C   UNL     1      45.511   4.959  12.662  0.00  0.00    +0.000 A 
ATOM      6  C   UNL     1      45.438   4.624  11.299  0.00  0.00    +0.000 A 
ENDROOT
BRANCH   5   7
ATOM      7  N   UNL     1      46.702   4.946  13.354  0.00  0.00    +0.000 N 
ATOM      8  C   UNL     1      47.031   3.955  14.391  0.00  0.00    +0.000 C 
ATOM      9  C   UNL     1      47.428   4.673  15.689  0.00  0.00    +0.000 C 
ATOM     10  O   UNL     1      48.514   5.593  15.470  0.00  0.00    +0.000 OA
ATOM     11  C   UNL     1      48.133   6.586  14.503  0.00  0.00    +0.000 C 
ATOM     12  C   UNL     1      47.751   5.957  13.149  0.00  0.00    +0.000 C 
ENDBRANCH   5   7
BRANCH   1  13
ATOM     13  C   UNL     1      44.170   4.054   9.181  0.00  0.00    +0.000 C 
BRANCH  13  14
ATOM     14  O   UNL     1      44.412   2.646   9.121  0.00  0.00    +0.000 OA
BRANCH  14  18
ATOM     15  C   UNL     1      47.698   1.845   6.769  0.00  0.00    +0.000 A 
ATOM     16  C   UNL     1      47.164   3.128   6.787  0.00  0.00    +0.000 A 
ATOM     17  C   UNL     1      46.053   3.397   7.583  0.00  0.00    +0.000 A 
ATOM     18  C   UNL     1      45.520   2.362   8.339  0.00  0.00    +0.000 A 
ATOM     19  N   UNL     1      46.024   1.108   8.338  0.00  0.00    +0.000 NA
ATOM     20  C   UNL     1      47.099   0.877   7.554  0.00  0.00    +0.000 A 
ENDBRANCH  14  18
ENDBRANCH  13  14
ENDBRANCH   1  13
TORSDOF 4
ENDMDL
MODEL 2
REMARK VINA RESULT:    -7.487      1.738      2.215
REMARK INTER + INTRA:          -9.866
REMARK INTER:                  -9.257
REMARK INTRA:                  -0.609
REMARK UNBOUND:                -0.628
REMARK  Name = 
REMARK  4 active torsions:
REMARK  status: ('A' for Active; 'I' for Inactive)
REMARK    1  A    between atoms: C_4  and  O_5
REMARK    2  A    between atoms: O_5  and  C_6
REMARK    3  A    between atoms: C_6  and  C_7
REMARK    4  A    between atoms: C_11  and  N_12
REMARK                            x       y       z     vdW  Elec       q    Type
REMARK                         _______ _______ _______ _____ _____    ______ ____
ROOT
ATOM      1  C   UNL     1      44.095   4.688  10.528  0.00  0.00    +0.000 A 
ATOM      2  C   UNL     1      43.059   4.425  11.425  0.00  0.00    +0.000 A 
ATOM      3  C   UNL     1      43.062   5.019  12.681  0.00  0.00    +0.000 A 
ATOM      4  C   UNL     1      44.102   5.879  13.046  0.00  0.00    +0.000 A 
ATOM      5  C   UNL     1      45.159   6.183  12.175  0.00  0.00    +0.000 A 
ATOM      6  C   UNL     1      45.115   5.585  10.904  0.00  0.00    +0.000 A 
ENDROOT
BRANCH   5   7
ATOM      7  N   UNL     1      46.199   7.001  12.560  0.00  0.00    +0.000 N 
ATOM      8  C   UNL     1      46.021   8.399  12.985  0.00  0.00    +0.000 C 
ATOM      9  C   UNL     1      46.922   9.316  12.145  0.00  0.00    +0.000 C 
ATOM     10  O   UNL     1      48.301   8.909  12.217  0.00  0.00    +0.000 OA
ATOM     11  C   UNL     1      48.446   7.565  11.731  0.00  0.00    +0.000 C 
ATOM     12  C   UNL     1      47.603   6.562  12.543  0.00  0.00    +0.000 C 
ENDBRANCH   5   7
BRANCH   1  13
ATOM     13  C   UNL     1      44.169   3.956   9.208  0.00  0.00    +0.000 C 
BRANCH  13  14
ATOM     14  O   UNL     1      44.764   2.665   9.359  0.00  0.00    +0.000 OA
BRANCH  14  18
ATOM     15  C   UNL     1      47.478   1.968   6.339  0.00  0.00    +0.000 A 
ATOM     16  C   UNL     1      46.851   3.205   6.426  0.00  0.00    +0.000 A 
ATOM     17  C   UNL     1      45.934   3.439   7.447  0.00  0.00    +0.000 A 
ATOM     18  C   UNL     1      45.683   2.417   8.352  0.00  0.00    +0.000 A 
ATOM     19  N   UNL     1      46.283   1.207   8.289  0.00  0.00    +0.000 NA
ATOM     20  C   UNL     1      47.164   1.009   7.285  0.00  0.00    +0.000 A 
ENDBRANCH  14  18
ENDBRANCH  13  14
ENDBRANCH   1  13
TORSDOF 4
ENDMDL
MODEL 3
REMARK VINA RESULT:    -7.270      2.161      2.737
REMARK INTER + INTRA:          -9.598
REMARK INTER:                  -8.994
REMARK INTRA:                  -0.604
REMARK UNBOUND:                -0.628
REMARK  Name = 
REMARK  4 active torsions:
REMARK  status: ('A' for Active; 'I' for Inactive)
REMARK    1  A    between atoms: C_4  and  O_5
REMARK    2  A    between atoms: O_5  and  C_6
REMARK    3  A    between atoms: C_6  and  C_7
REMARK    4  A    between atoms: C_11  and  N_12
REMARK                            x       y       z     vdW  Elec       q    Type
REMARK                         _______ _______ _______ _____ _____    ______ ____
ROOT
ATOM      1  C   UNL     1      44.995   4.490  11.120  0.00  0.00    +0.000 A 
ATOM      2  C   UNL     1      45.283   3.484  12.043  0.00  0.00    +0.000 A 
ATOM      3  C   UNL     1      45.967   3.793  13.214  0.00  0.00    +0.000 A 
ATOM      4  C   UNL     1      46.366   5.109  13.465  0.00  0.00    +0.000 A 
ATOM      5  C   UNL     1      46.089   6.156  12.572  0.00  0.00    +0.000 A 
ATOM      6  C   UNL     1      45.376   5.815  11.409  0.00  0.00    +0.000 A 
ENDROOT
BRANCH   5   7
ATOM      7  N   UNL     1      46.523   7.441  12.812  0.00  0.00    +0.000 N 
ATOM      8  C   UNL     1      45.617   8.591  12.967  0.00  0.00    +0.000 C 
ATOM      9  C   UNL     1      46.013   9.701  11.982  0.00  0.00    +0.000 C 
ATOM     10  O   UNL     1      47.391  10.083  12.147  0.00  0.00    +0.000 OA
ATOM     11  C   UNL     1      48.249   8.953  11.921  0.00  0.00    +0.000 C 
ATOM     12  C   UNL     1      47.949   7.796  12.894  0.00  0.00    +0.000 C 
ENDBRANCH   5   7
BRANCH   1  13
ATOM     13  C   UNL     1      44.362   4.150   9.791  0.00  0.00    +0.000 C 
BRANCH  13  14
ATOM     14  O   UNL     1      44.470   2.754   9.502  0.00  0.00    +0.000 OA
BRANCH  14  18
ATOM     15  C   UNL     1      47.269   2.095   6.551  0.00  0.00    +0.000 A 
ATOM     16  C   UNL     1      46.625   3.325   6.623  0.00  0.00    +0.000 A 
ATOM     17  C   UNL     1      45.679   3.545   7.622  0.00  0.00    +0.000 A 
ATOM     18  C   UNL     1      45.418   2.519   8.518  0.00  0.00    +0.000 A 
ATOM     19  N   UNL     1      46.034   1.316   8.468  0.00  0.00    +0.000 NA
ATOM     20  C   UNL     1      46.942   1.131   7.487  0.00  0.00    +0.000 A 
ENDBRANCH  14  18
ENDBRANCH  13  14
ENDBRANCH   1  13
TORSDOF 4
ENDMDL
MODEL 4
REMARK VINA RESULT:    -6.855      1.498      2.010
REMARK INTER + INTRA:          -9.086
REMARK INTER:                  -8.422
REMARK INTRA:                  -0.664
REMARK UNBOUND:                -0.628
REMARK  Name = 
REMARK  4 active torsions:
REMARK  status: ('A' for Active; 'I' for Inactive)
REMARK    1  A    between atoms: C_4  and  O_5
REMARK    2  A    between atoms: O_5  and  C_6
REMARK    3  A    between atoms: C_6  and  C_7
REMARK    4  A    between atoms: C_11  and  N_12
REMARK                            x       y       z     vdW  Elec       q    Type
REMARK                         _______ _______ _______ _____ _____    ______ ____
ROOT
ATOM      1  C   UNL     1      44.842   5.249  11.596  0.00  0.00    +0.000 A 
ATOM      2  C   UNL     1      44.607   6.603  11.358  0.00  0.00    +0.000 A 
ATOM      3  C   UNL     1      45.324   7.565  12.061  0.00  0.00    +0.000 A 
ATOM      4  C   UNL     1      46.280   7.175  13.005  0.00  0.00    +0.000 A 
ATOM      5  C   UNL     1      46.560   5.826  13.269  0.00  0.00    +0.000 A 
ATOM      6  C   UNL     1      45.835   4.878  12.526  0.00  0.00    +0.000 A 
ENDROOT
BRANCH   5   7
ATOM      7  N   UNL     1      47.475   5.454  14.229  0.00  0.00    +0.000 N 
ATOM      8  C   UNL     1      47.371   4.217  15.019  0.00  0.00    +0.000 C 
ATOM      9  C   UNL     1      47.423   4.551  16.518  0.00  0.00    +0.000 C 
ATOM     10  O   UNL     1      48.609   5.296  16.850  0.00  0.00    +0.000 OA
ATOM     11  C   UNL     1      48.643   6.528  16.111  0.00  0.00    +0.000 C 
ATOM     12  C   UNL     1      48.632   6.290  14.589  0.00  0.00    +0.000 C 
ENDBRANCH   5   7
BRANCH   1  13
ATOM     13  C   UNL     1      43.988   4.195  10.931  0.00  0.00    +0.000 C 
BRANCH  13  14
ATOM     14  O   UNL     1      43.880   4.421   9.523  0.00  0.00    +0.000 OA
BRANCH  14  18
ATOM     15  C   UNL     1      46.746   2.268   7.491  0.00  0.00    +0.000 A 
ATOM     16  C   UNL     1      45.933   1.625   8.417  0.00  0.00    +0.000 A 
ATOM     17  C   UNL     1      44.965   2.355   9.102  0.00  0.00    +0.000 A 
ATOM     18  C   UNL     1      44.845   3.710   8.828  0.00  0.00    +0.000 A 
ATOM     19  N   UNL     1      45.623   4.355   7.930  0.00  0.00    +0.000 NA
ATOM     20  C   UNL     1      46.555   3.622   7.284  0.00  0.00    +0.000 A 
ENDBRANCH  14  18
ENDBRANCH  13  14
ENDBRANCH   1  13
TORSDOF 4
ENDMDL
MODEL 5
REMARK VINA RESULT:    -6.790      1.879      2.589
REMARK INTER + INTRA:          -9.006
REMARK INTER:                  -8.359
REMARK INTRA:                  -0.647
REMARK UNBOUND:                -0.628
REMARK  Name = 
REMARK  4 active torsions:
REMARK  status: ('A' for Active; 'I' for Inactive)
REMARK    1  A    between atoms: C_4  and  O_5
REMARK    2  A    between atoms: O_5  and  C_6
REMARK    3  A    between atoms: C_6  and  C_7
REMARK    4  A    between atoms: C_11  and  N_12
REMARK                            x       y       z     vdW  Elec       q    Type
REMARK                         _______ _______ _______ _____ _____    ______ ____
ROOT
ATOM      1  C   UNL     1      45.193   4.813  11.142  0.00  0.00    +0.000 A 
ATOM      2  C   UNL     1      45.112   3.758  12.052  0.00  0.00    +0.000 A 
ATOM      3  C   UNL     1      45.901   3.767  13.197  0.00  0.00    +0.000 A 
ATOM      4  C   UNL     1      46.776   4.832  13.435  0.00  0.00    +0.000 A 
ATOM      5  C   UNL     1      46.884   5.920  12.556  0.00  0.00    +0.000 A 
ATOM      6  C   UNL     1      46.056   5.893  11.420  0.00  0.00    +0.000 A 
ENDROOT
BRANCH   5   7
ATOM      7  N   UNL     1      47.778   6.943  12.782  0.00  0.00    +0.000 N 
ATOM      8  C   UNL     1      48.257   7.326  14.121  0.00  0.00    +0.000 C 
ATOM      9  C   UNL     1      48.008   8.823  14.354  0.00  0.00    +0.000 C 
ATOM     10  O   UNL     1      48.615   9.624  13.322  0.00  0.00    +0.000 OA
ATOM     11  C   UNL     1      48.074   9.270  12.038  0.00  0.00    +0.000 C 
ATOM     12  C   UNL     1      48.312   7.786  11.700  0.00  0.00    +0.000 C 
ENDBRANCH   5   7
BRANCH   1  13
ATOM     13  C   UNL     1      44.435   4.759   9.837  0.00  0.00    +0.000 C 
BRANCH  13  14
ATOM     14  O   UNL     1      44.255   3.412   9.393  0.00  0.00    +0.000 OA
BRANCH  14  18
ATOM     15  C   UNL     1      47.237   2.264   6.792  0.00  0.00    +0.000 A 
ATOM     16  C   UNL     1      46.740   1.349   7.713  0.00  0.00    +0.000 A 
ATOM     17  C   UNL     1      45.732   1.739   8.591  0.00  0.00    +0.000 A 
ATOM     18  C   UNL     1      45.254   3.040   8.508  0.00  0.00    +0.000 A 
ATOM     19  N   UNL     1      45.721   3.945   7.619  0.00  0.00    +0.000 NA
ATOM     20  C   UNL     1      46.700   3.539   6.784  0.00  0.00    +0.000 A 
ENDBRANCH  14  18
ENDBRANCH  13  14
ENDBRANCH   1  13
TORSDOF 4
ENDMDL
MODEL 6
REMARK VINA RESULT:    -6.281      2.643      7.224
REMARK INTER + INTRA:          -8.378
REMARK INTER:                  -7.793
REMARK INTRA:                  -0.585
REMARK UNBOUND:                -0.628
REMARK  Name = 
REMARK  4 active torsions:
REMARK  status: ('A' for Active; 'I' for Inactive)
REMARK    1  A    between atoms: C_4  and  O_5
REMARK    2  A    between atoms: O_5  and  C_6
REMARK    3  A    between atoms: C_6  and  C_7
REMARK    4  A    between atoms: C_11  and  N_12
REMARK                            x       y       z     vdW  Elec       q    Type
REMARK                         _______ _______ _______ _____ _____    ______ ____
ROOT
ATOM      1  C   UNL     1      47.195   5.151  14.734  0.00  0.00    +0.000 A 
ATOM      2  C   UNL     1      48.041   6.148  14.247  0.00  0.00    +0.000 A 
ATOM      3  C   UNL     1      47.832   6.674  12.977  0.00  0.00    +0.000 A 
ATOM      4  C   UNL     1      46.777   6.204  12.189  0.00  0.00    +0.000 A 
ATOM      5  C   UNL     1      45.894   5.211  12.640  0.00  0.00    +0.000 A 
ATOM      6  C   UNL     1      46.117   4.717  13.937  0.00  0.00    +0.000 A 
ENDROOT
BRANCH   5   7
ATOM      7  N   UNL     1      44.882   4.729  11.839  0.00  0.00    +0.000 N 
ATOM      8  C   UNL     1      43.620   4.181  12.362  0.00  0.00    +0.000 C 
ATOM      9  C   UNL     1      43.392   2.771  11.799  0.00  0.00    +0.000 C 
ATOM     10  O   UNL     1      43.418   2.769  10.359  0.00  0.00    +0.000 OA
ATOM     11  C   UNL     1      44.689   3.245   9.886  0.00  0.00    +0.000 C 
ATOM     12  C   UNL     1      44.988   4.676  10.373  0.00  0.00    +0.000 C 
ENDBRANCH   5   7
BRANCH   1  13
ATOM     13  C   UNL     1      47.482   4.484  16.059  0.00  0.00    +0.000 C 
BRANCH  13  14
ATOM     14  O   UNL     1      47.925   3.137  15.882  0.00  0.00    +0.000 OA
BRANCH  14  18
ATOM     15  C   UNL     1      51.526   2.543  17.793  0.00  0.00    +0.000 A 
ATOM     16  C   UNL     1      50.849   3.745  17.964  0.00  0.00    +0.000 A 
ATOM     17  C   UNL     1      49.632   3.943  17.318  0.00  0.00    +0.000 A 
ATOM     18  C   UNL     1      49.135   2.920  16.522  0.00  0.00    +0.000 A 
ATOM     19  N   UNL     1      49.775   1.743  16.344  0.00  0.00    +0.000 NA
ATOM     20  C   UNL     1      50.955   1.581  16.980  0.00  0.00    +0.000 A 
ENDBRANCH  14  18
ENDBRANCH  13  14
ENDBRANCH   1  13
TORSDOF 4
ENDMDL
MODEL 7
REMARK VINA RESULT:    -6.037      2.405      6.999
REMARK INTER + INTRA:          -8.077
REMARK INTER:                  -7.456
REMARK INTRA:                  -0.621
REMARK UNBOUND:                -0.628
REMARK  Name = 
REMARK  4 active torsions:
REMARK  status: ('A' for Active; 'I' for Inactive)
REMARK    1  A    between atoms: C_4  and  O_5
REMARK    2  A    between atoms: O_5  and  C_6
REMARK    3  A    between atoms: C_6  and  C_7
REMARK    4  A    between atoms: C_11  and  N_12
REMARK                            x       y       z     vdW  Elec       q    Type
REMARK                         _______ _______ _______ _____ _____    ______ ____
ROOT
ATOM      1  C   UNL     1      47.090   6.655  13.335  0.00  0.00    +0.000 A 
ATOM      2  C   UNL     1      46.737   7.999  13.209  0.00  0.00    +0.000 A 
ATOM      3  C   UNL     1      45.638   8.358  12.438  0.00  0.00    +0.000 A 
ATOM      4  C   UNL     1      44.886   7.373  11.789  0.00  0.00    +0.000 A 
ATOM      5  C   UNL     1      45.195   6.008  11.895  0.00  0.00    +0.000 A 
ATOM      6  C   UNL     1      46.298   5.676  12.700  0.00  0.00    +0.000 A 
ENDROOT
BRANCH   5   7
ATOM      7  N   UNL     1      44.471   5.051  11.219  0.00  0.00    +0.000 N 
ATOM      8  C   UNL     1      43.230   4.452  11.737  0.00  0.00    +0.000 C 
ATOM      9  C   UNL     1      43.358   2.921  11.751  0.00  0.00    +0.000 C 
ATOM     10  O   UNL     1      43.693   2.410  10.448  0.00  0.00    +0.000 OA
ATOM     11  C   UNL     1      44.943   2.964  10.005  0.00  0.00    +0.000 C 
ATOM     12  C   UNL     1      44.897   4.502   9.922  0.00  0.00    +0.000 C 
ENDBRANCH   5   7
BRANCH   1  13
ATOM     13  C   UNL     1      48.351   6.260  14.067  0.00  0.00    +0.000 C 
BRANCH  13  14
ATOM     14  O   UNL     1      48.237   6.499  15.472  0.00  0.00    +0.000 OA
BRANCH  14  18
ATOM     15  C   UNL     1      48.777   3.028  17.624  0.00  0.00    +0.000 A 
ATOM     16  C   UNL     1      47.563   3.258  16.987  0.00  0.00    +0.000 A 
ATOM     17  C   UNL     1      47.383   4.432  16.260  0.00  0.00    +0.000 A 
ATOM     18  C   UNL     1      48.436   5.334  16.195  0.00  0.00    +0.000 A 
ATOM     19  N   UNL     1      49.625   5.129  16.805  0.00  0.00    +0.000 NA
ATOM     20  C   UNL     1      49.769   3.985  17.505  0.00  0.00    +0.000 A 
ENDBRANCH  14  18
ENDBRANCH  13  14
ENDBRANCH   1  13
TORSDOF 4
ENDMDL
MODEL 8
REMARK VINA RESULT:    -5.307      3.427      5.886
REMARK INTER + INTRA:          -7.176
REMARK INTER:                  -6.739
REMARK INTRA:                  -0.437
REMARK UNBOUND:                -0.628
REMARK  Name = 
REMARK  4 active torsions:
REMARK  status: ('A' for Active; 'I' for Inactive)
REMARK    1  A    between atoms: C_4  and  O_5
REMARK    2  A    between atoms: O_5  and  C_6
REMARK    3  A    between atoms: C_6  and  C_7
REMARK    4  A    between atoms: C_11  and  N_12
REMARK                            x       y       z     vdW  Elec       q    Type
REMARK                         _______ _______ _______ _____ _____    ______ ____
ROOT
ATOM      1  C   UNL     1      47.470   4.187  15.742  0.00  0.00    +0.000 A 
ATOM      2  C   UNL     1      47.987   2.898  15.879  0.00  0.00    +0.000 A 
ATOM      3  C   UNL     1      48.710   2.558  17.017  0.00  0.00    +0.000 A 
ATOM      4  C   UNL     1      48.919   3.507  18.023  0.00  0.00    +0.000 A 
ATOM      5  C   UNL     1      48.409   4.812  17.935  0.00  0.00    +0.000 A 
ATOM      6  C   UNL     1      47.664   5.117  16.784  0.00  0.00    +0.000 A 
ENDROOT
BRANCH   5   7
ATOM      7  N   UNL     1      48.655   5.749  18.915  0.00  0.00    +0.000 N 
ATOM      8  C   UNL     1      47.617   6.285  19.809  0.00  0.00    +0.000 C 
ATOM      9  C   UNL     1      47.608   7.819  19.735  0.00  0.00    +0.000 C 
ATOM     10  O   UNL     1      48.905   8.367  20.036  0.00  0.00    +0.000 OA
ATOM     11  C   UNL     1      49.879   7.876  19.101  0.00  0.00    +0.000 C 
ATOM     12  C   UNL     1      49.986   6.339  19.133  0.00  0.00    +0.000 C 
ENDBRANCH   5   7
BRANCH   1  13
ATOM     13  C   UNL     1      46.790   4.607  14.460  0.00  0.00    +0.000 C 
BRANCH  13  14
ATOM     14  O   UNL     1      46.463   3.477  13.648  0.00  0.00    +0.000 OA
BRANCH  14  18
ATOM     15  C   UNL     1      43.499   4.440  10.953  0.00  0.00    +0.000 A 
ATOM     16  C   UNL     1      44.619   5.256  11.062  0.00  0.00    +0.000 A 
ATOM     17  C   UNL     1      45.620   4.928  11.973  0.00  0.00    +0.000 A 
ATOM     18  C   UNL     1      45.460   3.785  12.743  0.00  0.00    +0.000 A 
ATOM     19  N   UNL     1      44.381   2.975  12.652  0.00  0.00    +0.000 NA
ATOM     20  C   UNL     1      43.426   3.321  11.763  0.00  0.00    +0.000 A 
ENDBRANCH  14  18
ENDBRANCH  13  14
ENDBRANCH   1  13
TORSDOF 4
ENDMDL
MODEL 9
REMARK VINA RESULT:    -5.276      3.170      5.142
REMARK INTER + INTRA:          -7.138
REMARK INTER:                  -6.501
REMARK INTRA:                  -0.636
REMARK UNBOUND:                -0.628
REMARK  Name = 
REMARK  4 active torsions:
REMARK  status: ('A' for Active; 'I' for Inactive)
REMARK    1  A    between atoms: C_4  and  O_5
REMARK    2  A    between atoms: O_5  and  C_6
REMARK    3  A    between atoms: C_6  and  C_7
REMARK    4  A    between atoms: C_11  and  N_12
REMARK                            x       y       z     vdW  Elec       q    Type
REMARK                         _______ _______ _______ _____ _____    ______ ____
ROOT
ATOM      1  C   UNL     1      47.765   6.831  13.210  0.00  0.00    +0.000 A 
ATOM      2  C   UNL     1      48.544   7.986  13.280  0.00  0.00    +0.000 A 
ATOM      3  C   UNL     1      49.300   8.245  14.418  0.00  0.00    +0.000 A 
ATOM      4  C   UNL     1      49.278   7.348  15.491  0.00  0.00    +0.000 A 
ATOM      5  C   UNL     1      48.520   6.167  15.462  0.00  0.00    +0.000 A 
ATOM      6  C   UNL     1      47.786   5.924  14.288  0.00  0.00    +0.000 A 
ENDROOT
BRANCH   5   7
ATOM      7  N   UNL     1      48.477   5.312  16.541  0.00  0.00    +0.000 N 
ATOM      8  C   UNL     1      49.520   5.254  17.577  0.00  0.00    +0.000 C 
ATOM      9  C   UNL     1      50.034   3.814  17.718  0.00  0.00    +0.000 C 
ATOM     10  O   UNL     1      48.959   2.896  17.993  0.00  0.00    +0.000 OA
ATOM     11  C   UNL     1      47.994   2.930  16.928  0.00  0.00    +0.000 C 
ATOM     12  C   UNL     1      47.393   4.336  16.737  0.00  0.00    +0.000 C 
ENDBRANCH   5   7
BRANCH   1  13
ATOM     13  C   UNL     1      46.846   6.598  12.034  0.00  0.00    +0.000 C 
BRANCH  13  14
ATOM     14  O   UNL     1      45.472   6.657  12.424  0.00  0.00    +0.000 OA
BRANCH  14  18
ATOM     15  C   UNL     1      43.454   3.243  11.306  0.00  0.00    +0.000 A 
ATOM     16  C   UNL     1      43.612   3.535  12.656  0.00  0.00    +0.000 A 
ATOM     17  C   UNL     1      44.294   4.690  13.031  0.00  0.00    +0.000 A 
ATOM     18  C   UNL     1      44.792   5.515  12.032  0.00  0.00    +0.000 A 
ATOM     19  N   UNL     1      44.647   5.251  10.714  0.00  0.00    +0.000 NA
ATOM     20  C   UNL     1      43.985   4.123  10.381  0.00  0.00    +0.000 A 
ENDBRANCH  14  18
ENDBRANCH  13  14
ENDBRANCH   1  13
TORSDOF 4
ENDMDL
