MODEL 1
REMARK VINA RESULT:    -7.954      0.000      0.000
REMARK INTER + INTRA:         -10.350
REMARK INTER:                 -10.046
REMARK INTRA:                  -0.304
REMARK UNBOUND:                -0.304
REMARK  Name = 
REMARK  5 active torsions:
REMARK  status: ('A' for Active; 'I' for Inactive)
REMARK    1  A    between atoms: N_1  and  C_2
REMARK    2  A    between atoms: C_2  and  C_3
REMARK    3  A    between atoms: C_5  and  C_6
REMARK    4  A    between atoms: C_6  and  N_7
REMARK    5  A    between atoms: C_12  and  C_13
REMARK                            x       y       z     vdW  Elec       q    Type
REMARK                         _______ _______ _______ _____ _____    ______ ____
ROOT
ATOM      1  N   UNL     1      44.033   4.476  10.440  0.00  0.00    +0.000 N 
ATOM      2  C   UNL     1      43.406   3.415  11.049  0.00  0.00    +0.000 A 
ATOM      3  C   UNL     1      43.987   2.257  10.593  0.00  0.00    +0.000 A 
ATOM      4  C   UNL     1      44.906   2.616   9.575  0.00  0.00    +0.000 A 
ATOM      5  C   UNL     1      45.722   1.855   8.716  0.00  0.00    +0.000 A 
ATOM      6  C   UNL     1      46.484   2.497   7.733  0.00  0.00    +0.000 A 
ATOM      7  C   UNL     1      46.466   3.896   7.650  0.00  0.00    +0.000 A 
ATOM      8  C   UNL     1      45.697   4.678   8.527  0.00  0.00    +0.000 A 
ATOM      9  C   UNL     1      44.906   4.010   9.475  0.00  0.00    +0.000 A 
ENDROOT
BRANCH   6  10
ATOM     10  C   UNL     1      47.294   1.736   6.736  0.00  0.00    +0.000 C 
ATOM     11  N   UNL     1      48.292   2.390   6.069  0.00  0.00    +0.000 N 
ATOM     12  O   UNL     1      47.095   0.548   6.525  0.00  0.00    +0.000 OA
ATOM     13  H   UNL     1      48.559   3.352   6.201  0.00  0.00    +0.000 HD
ATOM     14  H   UNL     1      48.843   1.838   5.418  0.00  0.00    +0.000 HD
ENDBRANCH   6  10
BRANCH   1  15
ATOM     15  C   UNL     1      43.873   5.861  10.862  0.00  0.00    +0.000 C 
BRANCH  15  18
ATOM     16  C   UNL     1      46.338   5.650  13.674  0.00  0.00    +0.000 C 
ATOM     17  C   UNL     1      44.976   5.300  13.099  0.00  0.00    +0.000 C 
ATOM     18  C   UNL     1      44.806   6.312  11.985  0.00  0.00    +0.000 C 
ATOM     19  C   UNL     1      46.242   6.490  11.498  0.00  0.00    +0.000 C 
ATOM     20  O   UNL     1      47.125   6.162  12.581  0.00  0.00    +0.000 OA
BRANCH  16  21
ATOM     21  C   UNL     1      47.045   4.470  14.365  0.00  0.00    +0.000 C 
BRANCH  21  22
ATOM     22  N   UNL     1      46.826   3.185  13.689  0.00  0.00    +0.000 NA
ATOM     23  H   UNL     1      47.354   3.171  12.818  0.00  0.00    +0.000 HD
ATOM     24  H   UNL     1      45.839   3.134  13.426  0.00  0.00    +0.000 HD
ENDBRANCH  21  22
ENDBRANCH  16  21
ENDBRANCH  15  18
ENDBRANCH   1  15
TORSDOF 5
ENDMDL
MODEL 2
REMARK VINA RESULT:    -7.665      1.326      1.428
REMARK INTER + INTRA:          -9.985
REMARK INTER:                  -9.440
REMARK INTRA:                  -0.545
REMARK UNBOUND:                -0.304
REMARK  Name = 
REMARK  5 active torsions:
REMARK  status: ('A' for Active; 'I' for Inactive)
REMARK    1  A    between atoms: N_1  and  C_2
REMARK    2  A    between atoms: C_2  and  C_3
REMARK    3  A    between atoms: C_5  and  C_6
REMARK    4  A    between atoms: C_6  and  N_7
REMARK    5  A    between atoms: C_12  and  C_13
REMARK                            x       y       z     vdW  Elec       q    Type
REMARK                         _______ _______ _______ _____ _____    ______ ____
ROOT
ATOM      1  N   UNL     1      44.142   4.568  10.528  0.00  0.00    +0.000 N 
ATOM      2  C   UNL     1      43.488   3.510  11.113  0.00  0.00    +0.000 A 
ATOM      3  C   UNL     1      44.007   2.349  10.595  0.00  0.00    +0.000 A 
ATOM      4  C   UNL     1      44.911   2.711   9.565  0.00  0.00    +0.000 A 
ATOM      5  C   UNL     1      45.670   1.953   8.652  0.00  0.00    +0.000 A 
ATOM      6  C   UNL     1      46.430   2.603   7.673  0.00  0.00    +0.000 A 
ATOM      7  C   UNL     1      46.468   4.004   7.647  0.00  0.00    +0.000 A 
ATOM      8  C   UNL     1      45.758   4.780   8.576  0.00  0.00    +0.000 A 
ATOM      9  C   UNL     1      44.966   4.107   9.520  0.00  0.00    +0.000 A 
ENDROOT
BRANCH   6  10
ATOM     10  C   UNL     1      47.179   1.851   6.623  0.00  0.00    +0.000 C 
ATOM     11  N   UNL     1      47.940   2.555   5.732  0.00  0.00    +0.000 N 
ATOM     12  O   UNL     1      47.139   0.630   6.561  0.00  0.00    +0.000 OA
ATOM     13  H   UNL     1      48.069   3.553   5.725  0.00  0.00    +0.000 HD
ATOM     14  H   UNL     1      48.459   2.012   5.048  0.00  0.00    +0.000 HD
ENDBRANCH   6  10
BRANCH   1  15
ATOM     15  C   UNL     1      44.052   5.940  11.009  0.00  0.00    +0.000 C 
BRANCH  15  18
ATOM     16  C   UNL     1      47.045   6.625  13.154  0.00  0.00    +0.000 C 
ATOM     17  C   UNL     1      46.287   5.692  12.225  0.00  0.00    +0.000 C 
ATOM     18  C   UNL     1      44.880   6.249  12.256  0.00  0.00    +0.000 C 
ATOM     19  C   UNL     1      45.136   7.746  12.415  0.00  0.00    +0.000 C 
ATOM     20  O   UNL     1      46.417   7.916  13.040  0.00  0.00    +0.000 OA
BRANCH  16  21
ATOM     21  C   UNL     1      48.553   6.711  12.857  0.00  0.00    +0.000 C 
BRANCH  21  22
ATOM     22  N   UNL     1      49.387   6.668  14.065  0.00  0.00    +0.000 NA
ATOM     23  H   UNL     1      49.502   5.699  14.357  0.00  0.00    +0.000 HD
ATOM     24  H   UNL     1      48.872   7.134  14.816  0.00  0.00    +0.000 HD
ENDBRANCH  21  22
ENDBRANCH  16  21
ENDBRANCH  15  18
ENDBRANCH   1  15
TORSDOF 5
ENDMDL
MODEL 3
REMARK VINA RESULT:    -7.523      1.720      6.093
REMARK INTER + INTRA:          -9.805
REMARK INTER:                  -9.761
REMARK INTRA:                  -0.044
REMARK UNBOUND:                -0.304
REMARK  Name = 
REMARK  5 active torsions:
REMARK  status: ('A' for Active; 'I' for Inactive)
REMARK    1  A    between atoms: N_1  and  C_2
REMARK    2  A    between atoms: C_2  and  C_3
REMARK    3  A    between atoms: C_5  and  C_6
REMARK    4  A    between atoms: C_6  and  N_7
REMARK    5  A    between atoms: C_12  and  C_13
REMARK                            x       y       z     vdW  Elec       q    Type
REMARK                         _______ _______ _______ _____ _____    ______ ____
ROOT
ATOM      1  N   UNL     1      44.519   4.180  10.585  0.00  0.00    +0.000 N 
ATOM      2  C   UNL     1      43.996   3.273  11.476  0.00  0.00    +0.000 A 
ATOM      3  C   UNL     1      44.420   3.620  12.736  0.00  0.00    +0.000 A 
ATOM      4  C   UNL     1      45.338   4.691  12.595  0.00  0.00    +0.000 A 
ATOM      5  C   UNL     1      46.133   5.393  13.521  0.00  0.00    +0.000 A 
ATOM      6  C   UNL     1      47.025   6.371  13.068  0.00  0.00    +0.000 A 
ATOM      7  C   UNL     1      47.079   6.678  11.702  0.00  0.00    +0.000 A 
ATOM      8  C   UNL     1      46.262   6.024  10.766  0.00  0.00    +0.000 A 
ATOM      9  C   UNL     1      45.408   5.014  11.237  0.00  0.00    +0.000 A 
ENDROOT
BRANCH   6  10
ATOM     10  C   UNL     1      47.957   7.082  13.994  0.00  0.00    +0.000 C 
ATOM     11  N   UNL     1      47.506   8.196  14.647  0.00  0.00    +0.000 N 
ATOM     12  O   UNL     1      49.094   6.678  14.190  0.00  0.00    +0.000 OA
ATOM     13  H   UNL     1      46.578   8.582  14.584  0.00  0.00    +0.000 HD
ATOM     14  H   UNL     1      48.154   8.640  15.291  0.00  0.00    +0.000 HD
ENDBRANCH   6  10
BRANCH   1  15
ATOM     15  C   UNL     1      44.085   4.296   9.199  0.00  0.00    +0.000 C 
BRANCH  15  18
ATOM     16  C   UNL     1      46.535   2.374   7.119  0.00  0.00    +0.000 C 
ATOM     17  C   UNL     1      45.817   3.677   7.424  0.00  0.00    +0.000 C 
ATOM     18  C   UNL     1      44.632   3.228   8.253  0.00  0.00    +0.000 C 
ATOM     19  C   UNL     1      45.211   2.036   9.012  0.00  0.00    +0.000 C 
ATOM     20  O   UNL     1      46.300   1.504   8.243  0.00  0.00    +0.000 OA
BRANCH  16  21
ATOM     21  C   UNL     1      48.041   2.539   6.847  0.00  0.00    +0.000 C 
BRANCH  21  22
ATOM     22  N   UNL     1      48.526   1.710   5.737  0.00  0.00    +0.000 NA
ATOM     23  H   UNL     1      47.741   1.467   5.134  0.00  0.00    +0.000 HD
ATOM     24  H   UNL     1      48.868   0.831   6.130  0.00  0.00    +0.000 HD
ENDBRANCH  21  22
ENDBRANCH  16  21
ENDBRANCH  15  18
ENDBRANCH   1  15
TORSDOF 5
ENDMDL
MODEL 4
REMARK VINA RESULT:    -6.278      1.957      6.282
REMARK INTER + INTRA:          -8.234
REMARK INTER:                  -8.519
REMARK INTRA:                   0.286
REMARK UNBOUND:                -0.304
REMARK  Name = 
REMARK  5 active torsions:
REMARK  status: ('A' for Active; 'I' for Inactive)
REMARK    1  A    between atoms: N_1  and  C_2
REMARK    2  A    between atoms: C_2  and  C_3
REMARK    3  A    between atoms: C_5  and  C_6
REMARK    4  A    between atoms: C_6  and  N_7
REMARK    5  A    between atoms: C_12  and  C_13
REMARK                            x       y       z     vdW  Elec       q    Type
REMARK                         _______ _______ _______ _____ _____    ______ ____
ROOT
ATOM      1  N   UNL     1      44.120   3.648  10.878  0.00  0.00    +0.000 N 
ATOM      2  C   UNL     1      43.213   3.291  11.847  0.00  0.00    +0.000 A 
ATOM      3  C   UNL     1      43.127   4.321  12.751  0.00  0.00    +0.000 A 
ATOM      4  C   UNL     1      44.109   5.280  12.396  0.00  0.00    +0.000 A 
ATOM      5  C   UNL     1      44.523   6.486  12.993  0.00  0.00    +0.000 A 
ATOM      6  C   UNL     1      45.599   7.197  12.448  0.00  0.00    +0.000 A 
ATOM      7  C   UNL     1      46.217   6.726  11.282  0.00  0.00    +0.000 A 
ATOM      8  C   UNL     1      45.790   5.552  10.642  0.00  0.00    +0.000 A 
ATOM      9  C   UNL     1      44.740   4.831  11.233  0.00  0.00    +0.000 A 
ENDROOT
BRANCH   6  10
ATOM     10  C   UNL     1      46.139   8.431  13.092  0.00  0.00    +0.000 C 
ATOM     11  N   UNL     1      45.458   9.606  12.926  0.00  0.00    +0.000 N 
ATOM     12  O   UNL     1      47.155   8.405  13.770  0.00  0.00    +0.000 OA
ATOM     13  H   UNL     1      44.594   9.722  12.422  0.00  0.00    +0.000 HD
ATOM     14  H   UNL     1      45.836  10.421  13.400  0.00  0.00    +0.000 HD
ENDBRANCH   6  10
BRANCH   1  15
ATOM     15  C   UNL     1      44.285   2.931   9.620  0.00  0.00    +0.000 C 
BRANCH  15  18
ATOM     16  C   UNL     1      47.072   2.497   7.156  0.00  0.00    +0.000 C 
ATOM     17  C   UNL     1      46.224   1.935   8.285  0.00  0.00    +0.000 C 
ATOM     18  C   UNL     1      45.610   3.176   8.899  0.00  0.00    +0.000 C 
ATOM     19  C   UNL     1      45.440   4.081   7.682  0.00  0.00    +0.000 C 
ATOM     20  O   UNL     1      46.403   3.687   6.694  0.00  0.00    +0.000 OA
BRANCH  16  21
ATOM     21  C   UNL     1      47.309   1.507   6.002  0.00  0.00    +0.000 C 
BRANCH  21  22
ATOM     22  N   UNL     1      48.431   1.886   5.132  0.00  0.00    +0.000 NA
ATOM     23  H   UNL     1      49.069   1.097   5.049  0.00  0.00    +0.000 HD
ATOM     24  H   UNL     1      48.953   2.628   5.602  0.00  0.00    +0.000 HD
ENDBRANCH  21  22
ENDBRANCH  16  21
ENDBRANCH  15  18
ENDBRANCH   1  15
TORSDOF 5
ENDMDL
MODEL 5
REMARK VINA RESULT:    -6.173      3.098      6.492
REMARK INTER + INTRA:          -8.100
REMARK INTER:                  -7.626
REMARK INTRA:                  -0.474
REMARK UNBOUND:                -0.304
REMARK  Name = 
REMARK  5 active torsions:
REMARK  status: ('A' for Active; 'I' for Inactive)
REMARK    1  A    between atoms: N_1  and  C_2
REMARK    2  A    between atoms: C_2  and  C_3
REMARK    3  A    between atoms: C_5  and  C_6
REMARK    4  A    between atoms: C_6  and  N_7
REMARK    5  A    between atoms: C_12  and  C_13
REMARK                            x       y       z     vdW  Elec       q    Type
REMARK                         _______ _______ _______ _____ _____    ______ ____
ROOT
ATOM      1  N   UNL     1      45.092   5.516  12.987  0.00  0.00    +0.000 N 
ATOM      2  C   UNL     1      46.063   4.677  13.479  0.00  0.00    +0.000 A 
ATOM      3  C   UNL     1      47.178   5.429  13.755  0.00  0.00    +0.000 A 
ATOM      4  C   UNL     1      46.927   6.746  13.292  0.00  0.00    +0.000 A 
ATOM      5  C   UNL     1      47.722   7.906  13.242  0.00  0.00    +0.000 A 
ATOM      6  C   UNL     1      47.220   9.066  12.642  0.00  0.00    +0.000 A 
ATOM      7  C   UNL     1      45.909   9.074  12.145  0.00  0.00    +0.000 A 
ATOM      8  C   UNL     1      45.082   7.944  12.228  0.00  0.00    +0.000 A 
ATOM      9  C   UNL     1      45.622   6.778  12.791  0.00  0.00    +0.000 A 
ENDROOT
BRANCH   6  10
ATOM     10  C   UNL     1      48.051  10.296  12.478  0.00  0.00    +0.000 C 
ATOM     11  N   UNL     1      48.360  11.028  13.591  0.00  0.00    +0.000 N 
ATOM     12  O   UNL     1      48.469  10.644  11.383  0.00  0.00    +0.000 OA
ATOM     13  H   UNL     1      48.099  10.804  14.537  0.00  0.00    +0.000 HD
ATOM     14  H   UNL     1      48.950  11.844  13.450  0.00  0.00    +0.000 HD
ENDBRANCH   6  10
BRANCH   1  15
ATOM     15  C   UNL     1      43.695   5.134  12.830  0.00  0.00    +0.000 C 
BRANCH  15  18
ATOM     16  C   UNL     1      44.160   3.593   9.448  0.00  0.00    +0.000 C 
ATOM     17  C   UNL     1      44.329   4.782  10.378  0.00  0.00    +0.000 C 
ATOM     18  C   UNL     1      43.344   4.488  11.490  0.00  0.00    +0.000 C 
ATOM     19  C   UNL     1      43.393   2.964  11.561  0.00  0.00    +0.000 C 
ATOM     20  O   UNL     1      43.806   2.470  10.278  0.00  0.00    +0.000 OA
BRANCH  16  21
ATOM     21  C   UNL     1      45.403   3.286   8.595  0.00  0.00    +0.000 C 
BRANCH  21  22
ATOM     22  N   UNL     1      45.941   4.466   7.906  0.00  0.00    +0.000 NA
ATOM     23  H   UNL     1      46.436   4.166   7.067  0.00  0.00    +0.000 HD
ATOM     24  H   UNL     1      46.643   4.891   8.515  0.00  0.00    +0.000 HD
ENDBRANCH  21  22
ENDBRANCH  16  21
ENDBRANCH  15  18
ENDBRANCH   1  15
TORSDOF 5
ENDMDL
MODEL 6
REMARK VINA RESULT:    -6.112      2.498      6.392
REMARK INTER + INTRA:          -8.023
REMARK INTER:                  -7.519
REMARK INTRA:                  -0.504
REMARK UNBOUND:                -0.304
REMARK  Name = 
REMARK  5 active torsions:
REMARK  status: ('A' for Active; 'I' for Inactive)
REMARK    1  A    between atoms: N_1  and  C_2
REMARK    2  A    between atoms: C_2  and  C_3
REMARK    3  A    between atoms: C_5  and  C_6
REMARK    4  A    between atoms: C_6  and  N_7
REMARK    5  A    between atoms: C_12  and  C_13
REMARK                            x       y       z     vdW  Elec       q    Type
REMARK                         _______ _______ _______ _____ _____    ______ ____
ROOT
ATOM      1  N   UNL     1      44.728   5.693  11.837  0.00  0.00    +0.000 N 
ATOM      2  C   UNL     1      43.968   6.760  11.421  0.00  0.00    +0.000 A 
ATOM      3  C   UNL     1      44.754   7.885  11.459  0.00  0.00    +0.000 A 
ATOM      4  C   UNL     1      45.993   7.518  12.044  0.00  0.00    +0.000 A 
ATOM      5  C   UNL     1      47.137   8.258  12.397  0.00  0.00    +0.000 A 
ATOM      6  C   UNL     1      48.201   7.622  13.048  0.00  0.00    +0.000 A 
ATOM      7  C   UNL     1      48.136   6.244  13.293  0.00  0.00    +0.000 A 
ATOM      8  C   UNL     1      47.026   5.477  12.907  0.00  0.00    +0.000 A 
ATOM      9  C   UNL     1      45.951   6.144  12.297  0.00  0.00    +0.000 A 
ENDROOT
BRANCH   6  10
ATOM     10  C   UNL     1      49.398   8.375  13.527  0.00  0.00    +0.000 C 
ATOM     11  N   UNL     1      50.623   7.772  13.451  0.00  0.00    +0.000 N 
ATOM     12  O   UNL     1      49.305   9.513  13.964  0.00  0.00    +0.000 OA
ATOM     13  H   UNL     1      50.809   6.858  13.071  0.00  0.00    +0.000 HD
ATOM     14  H   UNL     1      51.421   8.320  13.759  0.00  0.00    +0.000 HD
ENDBRANCH   6  10
BRANCH   1  15
ATOM     15  C   UNL     1      44.324   4.302  11.683  0.00  0.00    +0.000 C 
BRANCH  15  18
ATOM     16  C   UNL     1      44.954   3.341   8.118  0.00  0.00    +0.000 C 
ATOM     17  C   UNL     1      45.038   4.374   9.229  0.00  0.00    +0.000 C 
ATOM     18  C   UNL     1      44.041   3.861  10.247  0.00  0.00    +0.000 C 
ATOM     19  C   UNL     1      44.167   2.349  10.079  0.00  0.00    +0.000 C 
ATOM     20  O   UNL     1      44.638   2.085   8.749  0.00  0.00    +0.000 OA
BRANCH  16  21
ATOM     21  C   UNL     1      46.233   3.233   7.269  0.00  0.00    +0.000 C 
BRANCH  21  22
ATOM     22  N   UNL     1      47.012   4.478   7.230  0.00  0.00    +0.000 NA
ATOM     23  H   UNL     1      47.997   4.260   7.372  0.00  0.00    +0.000 HD
ATOM     24  H   UNL     1      46.727   5.049   8.028  0.00  0.00    +0.000 HD
ENDBRANCH  21  22
ENDBRANCH  16  21
ENDBRANCH  15  18
ENDBRANCH   1  15
TORSDOF 5
ENDMDL
MODEL 7
REMARK VINA RESULT:    -6.000      4.237      6.097
REMARK INTER + INTRA:          -7.882
REMARK INTER:                  -7.334
REMARK INTRA:                  -0.547
REMARK UNBOUND:                -0.304
REMARK  Name = 
REMARK  5 active torsions:
REMARK  status: ('A' for Active; 'I' for Inactive)
REMARK    1  A    between atoms: N_1  and  C_2
REMARK    2  A    between atoms: C_2  and  C_3
REMARK    3  A    between atoms: C_5  and  C_6
REMARK    4  A    between atoms: C_6  and  N_7
REMARK    5  A    between atoms: C_12  and  C_13
REMARK                            x       y       z     vdW  Elec       q    Type
REMARK                         _______ _______ _______ _____ _____    ______ ____
ROOT
ATOM      1  N   UNL     1      48.000   7.287  13.845  0.00  0.00    +0.000 N 
ATOM      2  C   UNL     1      47.860   8.651  13.756  0.00  0.00    +0.000 A 
ATOM      3  C   UNL     1      46.612   8.920  13.250  0.00  0.00    +0.000 A 
ATOM      4  C   UNL     1      46.023   7.681  12.894  0.00  0.00    +0.000 A 
ATOM      5  C   UNL     1      44.804   7.348  12.273  0.00  0.00    +0.000 A 
ATOM      6  C   UNL     1      44.521   6.012  11.969  0.00  0.00    +0.000 A 
ATOM      7  C   UNL     1      45.434   5.013  12.336  0.00  0.00    +0.000 A 
ATOM      8  C   UNL     1      46.633   5.316  12.999  0.00  0.00    +0.000 A 
ATOM      9  C   UNL     1      46.917   6.667  13.251  0.00  0.00    +0.000 A 
ENDROOT
BRANCH   6  10
ATOM     10  C   UNL     1      43.288   5.612  11.229  0.00  0.00    +0.000 C 
ATOM     11  N   UNL     1      42.075   6.022  11.710  0.00  0.00    +0.000 N 
ATOM     12  O   UNL     1      43.344   4.950  10.203  0.00  0.00    +0.000 OA
ATOM     13  H   UNL     1      41.926   6.601  12.520  0.00  0.00    +0.000 HD
ATOM     14  H   UNL     1      41.257   5.757  11.169  0.00  0.00    +0.000 HD
ENDBRANCH   6  10
BRANCH   1  15
ATOM     15  C   UNL     1      49.077   6.629  14.574  0.00  0.00    +0.000 C 
BRANCH  15  18
ATOM     16  C   UNL     1      48.350   4.793  17.756  0.00  0.00    +0.000 C 
ATOM     17  C   UNL     1      47.936   5.184  16.347  0.00  0.00    +0.000 C 
ATOM     18  C   UNL     1      48.807   6.389  16.059  0.00  0.00    +0.000 C 
ATOM     19  C   UNL     1      50.083   6.048  16.823  0.00  0.00    +0.000 C 
ATOM     20  O   UNL     1      49.739   5.151  17.890  0.00  0.00    +0.000 OA
BRANCH  16  21
ATOM     21  C   UNL     1      48.123   3.306  18.083  0.00  0.00    +0.000 C 
BRANCH  21  22
ATOM     22  N   UNL     1      46.790   2.824  17.701  0.00  0.00    +0.000 NA
ATOM     23  H   UNL     1      46.889   1.989  17.125  0.00  0.00    +0.000 HD
ATOM     24  H   UNL     1      46.360   3.534  17.104  0.00  0.00    +0.000 HD
ENDBRANCH  21  22
ENDBRANCH  16  21
ENDBRANCH  15  18
ENDBRANCH   1  15
TORSDOF 5
ENDMDL
MODEL 8
REMARK VINA RESULT:    -5.850      3.713      5.321
REMARK INTER + INTRA:          -7.692
REMARK INTER:                  -7.169
REMARK INTRA:                  -0.523
REMARK UNBOUND:                -0.304
REMARK  Name = 
REMARK  5 active torsions:
REMARK  status: ('A' for Active; 'I' for Inactive)
REMARK    1  A    between atoms: N_1  and  C_2
REMARK    2  A    between atoms: C_2  and  C_3
REMARK    3  A    between atoms: C_5  and  C_6
REMARK    4  A    between atoms: C_6  and  N_7
REMARK    5  A    between atoms: C_12  and  C_13
REMARK                            x       y       z     vdW  Elec       q    Type
REMARK                         _______ _______ _______ _____ _____    ______ ____
ROOT
ATOM      1  N   UNL     1      47.247   7.124  12.808  0.00  0.00    +0.000 N 
ATOM      2  C   UNL     1      47.597   6.628  14.042  0.00  0.00    +0.000 A 
ATOM      3  C   UNL     1      47.161   5.328  14.119  0.00  0.00    +0.000 A 
ATOM      4  C   UNL     1      46.404   5.065  12.949  0.00  0.00    +0.000 A 
ATOM      5  C   UNL     1      45.665   3.944  12.524  0.00  0.00    +0.000 A 
ATOM      6  C   UNL     1      44.938   4.005  11.331  0.00  0.00    +0.000 A 
ATOM      7  C   UNL     1      44.996   5.164  10.545  0.00  0.00    +0.000 A 
ATOM      8  C   UNL     1      45.763   6.275  10.925  0.00  0.00    +0.000 A 
ATOM      9  C   UNL     1      46.448   6.210  12.149  0.00  0.00    +0.000 A 
ENDROOT
BRANCH   6  10
ATOM     10  C   UNL     1      44.065   2.881  10.878  0.00  0.00    +0.000 C 
ATOM     11  N   UNL     1      44.485   2.108   9.831  0.00  0.00    +0.000 N 
ATOM     12  O   UNL     1      43.004   2.632  11.433  0.00  0.00    +0.000 OA
ATOM     13  H   UNL     1      45.356   2.207   9.336  0.00  0.00    +0.000 HD
ATOM     14  H   UNL     1      43.882   1.335   9.565  0.00  0.00    +0.000 HD
ENDBRANCH   6  10
BRANCH   1  15
ATOM     15  C   UNL     1      47.763   8.371  12.261  0.00  0.00    +0.000 C 
BRANCH  15  18
ATOM     16  C   UNL     1      51.364   8.118  11.261  0.00  0.00    +0.000 C 
ATOM     17  C   UNL     1      50.055   7.436  11.621  0.00  0.00    +0.000 C 
ATOM     18  C   UNL     1      49.282   8.532  12.324  0.00  0.00    +0.000 C 
ATOM     19  C   UNL     1      49.756   9.779  11.582  0.00  0.00    +0.000 C 
ATOM     20  O   UNL     1      51.054   9.506  11.034  0.00  0.00    +0.000 OA
BRANCH  16  21
ATOM     21  C   UNL     1      52.075   7.499  10.044  0.00  0.00    +0.000 C 
BRANCH  21  22
ATOM     22  N   UNL     1      52.868   6.309  10.378  0.00  0.00    +0.000 NA
ATOM     23  H   UNL     1      52.378   5.771  11.091  0.00  0.00    +0.000 HD
ATOM     24  H   UNL     1      53.740   6.625  10.807  0.00  0.00    +0.000 HD
ENDBRANCH  21  22
ENDBRANCH  16  21
ENDBRANCH  15  18
ENDBRANCH   1  15
TORSDOF 5
ENDMDL
MODEL 9
REMARK VINA RESULT:    -5.794      3.517      6.363
REMARK INTER + INTRA:          -7.622
REMARK INTER:                  -7.019
REMARK INTRA:                  -0.603
REMARK UNBOUND:                -0.304
REMARK  Name = 
REMARK  5 active torsions:
REMARK  status: ('A' for Active; 'I' for Inactive)
REMARK    1  A    between atoms: N_1  and  C_2
REMARK    2  A    between atoms: C_2  and  C_3
REMARK    3  A    between atoms: C_5  and  C_6
REMARK    4  A    between atoms: C_6  and  N_7
REMARK    5  A    between atoms: C_12  and  C_13
REMARK                            x       y       z     vdW  Elec       q    Type
REMARK                         _______ _______ _______ _____ _____    ______ ____
ROOT
ATOM      1  N   UNL     1      45.715   7.661  12.680  0.00  0.00    +0.000 N 
ATOM      2  C   UNL     1      45.226   8.937  12.523  0.00  0.00    +0.000 A 
ATOM      3  C   UNL     1      46.242   9.727  12.045  0.00  0.00    +0.000 A 
ATOM      4  C   UNL     1      47.423   8.942  12.037  0.00  0.00    +0.000 A 
ATOM      5  C   UNL     1      48.763   9.239  11.721  0.00  0.00    +0.000 A 
ATOM      6  C   UNL     1      49.748   8.259  11.887  0.00  0.00    +0.000 A 
ATOM      7  C   UNL     1      49.380   6.976  12.316  0.00  0.00    +0.000 A 
ATOM      8  C   UNL     1      48.044   6.644  12.590  0.00  0.00    +0.000 A 
ATOM      9  C   UNL     1      47.080   7.655  12.461  0.00  0.00    +0.000 A 
ENDROOT
BRANCH   6  10
ATOM     10  C   UNL     1      51.195   8.544  11.657  0.00  0.00    +0.000 C 
ATOM     11  N   UNL     1      52.102   8.116  12.586  0.00  0.00    +0.000 N 
ATOM     12  O   UNL     1      51.579   9.130  10.655  0.00  0.00    +0.000 OA
ATOM     13  H   UNL     1      51.891   7.592  13.420  0.00  0.00    +0.000 HD
ATOM     14  H   UNL     1      53.081   8.301  12.386  0.00  0.00    +0.000 HD
ENDBRANCH   6  10
BRANCH   1  15
ATOM     15  C   UNL     1      44.874   6.496  12.916  0.00  0.00    +0.000 C 
BRANCH  15  18
ATOM     16  C   UNL     1      44.039   4.099  10.162  0.00  0.00    +0.000 C 
ATOM     17  C   UNL     1      45.058   4.979  10.867  0.00  0.00    +0.000 C 
ATOM     18  C   UNL     1      44.192   5.922  11.675  0.00  0.00    +0.000 C 
ATOM     19  C   UNL     1      43.005   5.032  12.035  0.00  0.00    +0.000 C 
ATOM     20  O   UNL     1      42.904   4.000  11.043  0.00  0.00    +0.000 OA
BRANCH  16  21
ATOM     21  C   UNL     1      44.574   2.707   9.783  0.00  0.00    +0.000 C 
BRANCH  21  22
ATOM     22  N   UNL     1      45.419   2.716   8.581  0.00  0.00    +0.000 NA
ATOM     23  H   UNL     1      45.725   3.670   8.396  0.00  0.00    +0.000 HD
ATOM     24  H   UNL     1      44.836   2.443   7.788  0.00  0.00    +0.000 HD
ENDBRANCH  21  22
ENDBRANCH  16  21
ENDBRANCH  15  18
ENDBRANCH   1  15
TORSDOF 5
ENDMDL
