MODEL 1
REMARK VINA RESULT:    -9.226      0.000      0.000
REMARK INTER + INTRA:         -12.923
REMARK INTER:                 -11.922
REMARK INTRA:                  -1.001
REMARK UNBOUND:                -1.001
REMARK  Name = 
REMARK  5 active torsions:
REMARK  status: ('A' for Active; 'I' for Inactive)
REMARK    1  A    between atoms: C_2  and  C_3
REMARK    2  A    between atoms: C_6  and  C_7
REMARK    3  A    between atoms: C_11  and  C_12
REMARK    4  A    between atoms: C_12  and  N_13
REMARK    5  A    between atoms: C_17  and  C_18
REMARK                            x       y       z     vdW  Elec       q    Type
REMARK                         _______ _______ _______ _____ _____    ______ ____
ROOT
ATOM      1  C   UNL     1      43.920   5.138  11.158  0.00  0.00    +0.000 C 
ATOM      2  C   UNL     1      42.630   5.816  11.603  0.00  0.00    +0.000 C 
ATOM      3  C   UNL     1      42.743   4.332  11.686  0.00  0.00    +0.000 C 
ENDROOT
BRANCH   1   4
ATOM      4  N   UNL     1      44.238   5.147   9.718  0.00  0.00    +0.000 N 
ATOM      5  C   UNL     1      45.023   4.170   9.089  0.00  0.00    +0.000 A 
ATOM      6  C   UNL     1      44.960   2.817   9.411  0.00  0.00    +0.000 A 
ATOM      7  C   UNL     1      45.699   1.887   8.677  0.00  0.00    +0.000 A 
ATOM      8  C   UNL     1      46.502   2.330   7.633  0.00  0.00    +0.000 A 
ATOM      9  C   UNL     1      46.508   3.690   7.365  0.00  0.00    +0.000 A 
ATOM     10  N   UNL     1      45.793   4.609   8.070  0.00  0.00    +0.000 NA
ATOM     11  H   UNL     1      44.555   6.036   9.336  0.00  0.00    +0.000 HD
BRANCH   8  12
ATOM     12  C   UNL     1      47.308   1.422   6.791  0.00  0.00    +0.000 C 
ATOM     13  N   UNL     1      48.323   1.976   6.059  0.00  0.00    +0.000 N 
ATOM     14  O   UNL     1      47.065   0.225   6.726  0.00  0.00    +0.000 OA
ATOM     15  H   UNL     1      48.420   2.969   5.909  0.00  0.00    +0.000 HD
ATOM     16  H   UNL     1      48.810   1.358   5.422  0.00  0.00    +0.000 HD
ENDBRANCH   8  12
ENDBRANCH   1   4
BRANCH   1  21
ATOM     17  C   UNL     1      47.200   6.619  12.561  0.00  0.00    +0.000 A 
ATOM     18  C   UNL     1      47.418   5.780  13.664  0.00  0.00    +0.000 A 
ATOM     19  C   UNL     1      46.519   4.758  13.974  0.00  0.00    +0.000 A 
ATOM     20  C   UNL     1      45.392   4.547  13.178  0.00  0.00    +0.000 A 
ATOM     21  C   UNL     1      45.135   5.350  12.056  0.00  0.00    +0.000 A 
ATOM     22  C   UNL     1      46.046   6.385  11.787  0.00  0.00    +0.000 A 
BRANCH  17  26
ATOM     23  C   UNL     1      49.890   9.696  11.418  0.00  0.00    +0.000 A 
ATOM     24  C   UNL     1      48.576  10.050  11.690  0.00  0.00    +0.000 A 
ATOM     25  C   UNL     1      47.686   9.050  12.089  0.00  0.00    +0.000 A 
ATOM     26  C   UNL     1      48.116   7.722  12.209  0.00  0.00    +0.000 A 
ATOM     27  C   UNL     1      49.469   7.495  11.936  0.00  0.00    +0.000 A 
ATOM     28  N   UNL     1      50.359   8.436  11.537  0.00  0.00    +0.000 NA
BRANCH  23  30
ATOM     29  N   UNL     1      51.625  11.444  10.583  0.00  0.00    +0.000 NA
ATOM     30  C   UNL     1      50.836  10.680  10.961  0.00  0.00    +0.000 C 
ENDBRANCH  23  30
ENDBRANCH  17  26
ENDBRANCH   1  21
TORSDOF 5
ENDMDL
MODEL 2
REMARK VINA RESULT:    -8.718      2.845      4.548
REMARK INTER + INTRA:         -12.267
REMARK INTER:                 -11.446
REMARK INTRA:                  -0.821
REMARK UNBOUND:                -1.001
REMARK  Name = 
REMARK  5 active torsions:
REMARK  status: ('A' for Active; 'I' for Inactive)
REMARK    1  A    between atoms: C_2  and  C_3
REMARK    2  A    between atoms: C_6  and  C_7
REMARK    3  A    between atoms: C_11  and  C_12
REMARK    4  A    between atoms: C_12  and  N_13
REMARK    5  A    between atoms: C_17  and  C_18
REMARK                            x       y       z     vdW  Elec       q    Type
REMARK                         _______ _______ _______ _____ _____    ______ ____
ROOT
ATOM      1  C   UNL     1      44.149   4.930  11.400  0.00  0.00    +0.000 C 
ATOM      2  C   UNL     1      42.858   5.350  12.092  0.00  0.00    +0.000 C 
ATOM      3  C   UNL     1      43.345   3.949  12.239  0.00  0.00    +0.000 C 
ENDROOT
BRANCH   1   4
ATOM      4  N   UNL     1      44.141   4.842   9.928  0.00  0.00    +0.000 N 
ATOM      5  C   UNL     1      44.951   3.960   9.198  0.00  0.00    +0.000 A 
ATOM      6  C   UNL     1      45.231   2.661   9.612  0.00  0.00    +0.000 A 
ATOM      7  C   UNL     1      45.965   1.805   8.788  0.00  0.00    +0.000 A 
ATOM      8  C   UNL     1      46.419   2.272   7.560  0.00  0.00    +0.000 A 
ATOM      9  C   UNL     1      46.095   3.574   7.211  0.00  0.00    +0.000 A 
ATOM     10  N   UNL     1      45.380   4.418   8.002  0.00  0.00    +0.000 NA
ATOM     11  H   UNL     1      44.184   5.727   9.427  0.00  0.00    +0.000 HD
BRANCH   8  12
ATOM     12  C   UNL     1      47.190   1.438   6.613  0.00  0.00    +0.000 C 
ATOM     13  N   UNL     1      48.142   2.064   5.854  0.00  0.00    +0.000 N 
ATOM     14  O   UNL     1      46.972   0.241   6.491  0.00  0.00    +0.000 OA
ATOM     15  H   UNL     1      48.205   3.066   5.760  0.00  0.00    +0.000 HD
ATOM     16  H   UNL     1      48.600   1.498   5.150  0.00  0.00    +0.000 HD
ENDBRANCH   8  12
ENDBRANCH   1   4
BRANCH   1  21
ATOM     17  C   UNL     1      47.056   5.642  13.841  0.00  0.00    +0.000 A 
ATOM     18  C   UNL     1      47.800   6.574  13.102  0.00  0.00    +0.000 A 
ATOM     19  C   UNL     1      47.391   6.964  11.825  0.00  0.00    +0.000 A 
ATOM     20  C   UNL     1      46.223   6.439  11.269  0.00  0.00    +0.000 A 
ATOM     21  C   UNL     1      45.438   5.513  11.973  0.00  0.00    +0.000 A 
ATOM     22  C   UNL     1      45.891   5.123  13.244  0.00  0.00    +0.000 A 
BRANCH  17  26
ATOM     23  C   UNL     1      48.191   4.500  17.768  0.00  0.00    +0.000 A 
ATOM     24  C   UNL     1      47.338   3.658  17.068  0.00  0.00    +0.000 A 
ATOM     25  C   UNL     1      46.975   4.012  15.766  0.00  0.00    +0.000 A 
ATOM     26  C   UNL     1      47.464   5.190  15.186  0.00  0.00    +0.000 A 
ATOM     27  C   UNL     1      48.338   5.939  15.980  0.00  0.00    +0.000 A 
ATOM     28  N   UNL     1      48.704   5.634  17.249  0.00  0.00    +0.000 NA
BRANCH  23  30
ATOM     29  N   UNL     1      48.832   3.994  20.236  0.00  0.00    +0.000 NA
ATOM     30  C   UNL     1      48.561   4.205  19.128  0.00  0.00    +0.000 C 
ENDBRANCH  23  30
ENDBRANCH  17  26
ENDBRANCH   1  21
TORSDOF 5
ENDMDL
MODEL 3
REMARK VINA RESULT:    -7.597      2.805      3.932
REMARK INTER + INTRA:         -10.818
REMARK INTER:                 -10.399
REMARK INTRA:                  -0.419
REMARK UNBOUND:                -1.001
REMARK  Name = 
REMARK  5 active torsions:
REMARK  status: ('A' for Active; 'I' for Inactive)
REMARK    1  A    between atoms: C_2  and  C_3
REMARK    2  A    between atoms: C_6  and  C_7
REMARK    3  A    between atoms: C_11  and  C_12
REMARK    4  A    between atoms: C_12  and  N_13
REMARK    5  A    between atoms: C_17  and  C_18
REMARK                            x       y       z     vdW  Elec       q    Type
REMARK                         _______ _______ _______ _____ _____    ______ ____
ROOT
ATOM      1  C   UNL     1      44.327   5.495  11.303  0.00  0.00    +0.000 C 
ATOM      2  C   UNL     1      42.888   5.503  11.805  0.00  0.00    +0.000 C 
ATOM      3  C   UNL     1      43.768   4.343  12.124  0.00  0.00    +0.000 C 
ENDROOT
BRANCH   1   4
ATOM      4  N   UNL     1      44.546   5.347   9.853  0.00  0.00    +0.000 N 
ATOM      5  C   UNL     1      45.165   4.231   9.270  0.00  0.00    +0.000 A 
ATOM      6  C   UNL     1      44.963   2.928   9.715  0.00  0.00    +0.000 A 
ATOM      7  C   UNL     1      45.535   1.856   9.026  0.00  0.00    +0.000 A 
ATOM      8  C   UNL     1      46.313   2.109   7.903  0.00  0.00    +0.000 A 
ATOM      9  C   UNL     1      46.463   3.431   7.514  0.00  0.00    +0.000 A 
ATOM     10  N   UNL     1      45.912   4.486   8.174  0.00  0.00    +0.000 NA
ATOM     11  H   UNL     1      44.941   6.155   9.375  0.00  0.00    +0.000 HD
BRANCH   8  12
ATOM     12  C   UNL     1      46.947   1.041   7.101  0.00  0.00    +0.000 C 
ATOM     13  N   UNL     1      46.857  -0.239   7.574  0.00  0.00    +0.000 N 
ATOM     14  O   UNL     1      47.551   1.291   6.067  0.00  0.00    +0.000 OA
ATOM     15  H   UNL     1      46.569  -0.464   8.515  0.00  0.00    +0.000 HD
ATOM     16  H   UNL     1      47.369  -0.947   7.062  0.00  0.00    +0.000 HD
ENDBRANCH   8  12
ENDBRANCH   1   4
BRANCH   1  21
ATOM     17  C   UNL     1      47.030   6.932  13.658  0.00  0.00    +0.000 A 
ATOM     18  C   UNL     1      47.037   8.278  13.261  0.00  0.00    +0.000 A 
ATOM     19  C   UNL     1      46.201   8.726  12.238  0.00  0.00    +0.000 A 
ATOM     20  C   UNL     1      45.331   7.840  11.601  0.00  0.00    +0.000 A 
ATOM     21  C   UNL     1      45.276   6.487  11.969  0.00  0.00    +0.000 A 
ATOM     22  C   UNL     1      46.149   6.063  12.985  0.00  0.00    +0.000 A 
BRANCH  17  26
ATOM     23  C   UNL     1      49.561   5.289  16.642  0.00  0.00    +0.000 A 
ATOM     24  C   UNL     1      49.938   6.492  16.062  0.00  0.00    +0.000 A 
ATOM     25  C   UNL     1      49.102   7.055  15.094  0.00  0.00    +0.000 A 
ATOM     26  C   UNL     1      47.912   6.414  14.723  0.00  0.00    +0.000 A 
ATOM     27  C   UNL     1      47.628   5.223  15.398  0.00  0.00    +0.000 A 
ATOM     28  N   UNL     1      48.419   4.641  16.333  0.00  0.00    +0.000 NA
BRANCH  23  30
ATOM     29  N   UNL     1      51.110   4.160  18.400  0.00  0.00    +0.000 NA
ATOM     30  C   UNL     1      50.409   4.644  17.612  0.00  0.00    +0.000 C 
ENDBRANCH  23  30
ENDBRANCH  17  26
ENDBRANCH   1  21
TORSDOF 5
ENDMDL
MODEL 4
REMARK VINA RESULT:    -6.948      5.244      8.745
REMARK INTER + INTRA:          -9.979
REMARK INTER:                  -9.011
REMARK INTRA:                  -0.968
REMARK UNBOUND:                -1.001
REMARK  Name = 
REMARK  5 active torsions:
REMARK  status: ('A' for Active; 'I' for Inactive)
REMARK    1  A    between atoms: C_2  and  C_3
REMARK    2  A    between atoms: C_6  and  C_7
REMARK    3  A    between atoms: C_11  and  C_12
REMARK    4  A    between atoms: C_12  and  N_13
REMARK    5  A    between atoms: C_17  and  C_18
REMARK                            x       y       z     vdW  Elec       q    Type
REMARK                         _______ _______ _______ _____ _____    ______ ____
ROOT
ATOM      1  C   UNL     1      49.318   7.314  17.153  0.00  0.00    +0.000 C 
ATOM      2  C   UNL     1      48.740   8.564  17.805  0.00  0.00    +0.000 C 
ATOM      3  C   UNL     1      50.217   8.365  17.786  0.00  0.00    +0.000 C 
ENDROOT
BRANCH   1   4
ATOM      4  N   UNL     1      49.086   6.022  17.824  0.00  0.00    +0.000 N 
ATOM      5  C   UNL     1      49.948   4.921  17.711  0.00  0.00    +0.000 A 
ATOM      6  C   UNL     1      51.335   5.039  17.675  0.00  0.00    +0.000 A 
ATOM      7  C   UNL     1      52.135   3.894  17.659  0.00  0.00    +0.000 A 
ATOM      8  C   UNL     1      51.530   2.643  17.667  0.00  0.00    +0.000 A 
ATOM      9  C   UNL     1      50.144   2.605  17.712  0.00  0.00    +0.000 A 
ATOM     10  N   UNL     1      49.351   3.710  17.729  0.00  0.00    +0.000 NA
ATOM     11  H   UNL     1      48.146   5.639  17.745  0.00  0.00    +0.000 HD
BRANCH   8  12
ATOM     12  C   UNL     1      52.291   1.376  17.667  0.00  0.00    +0.000 C 
ATOM     13  N   UNL     1      51.634   0.247  18.073  0.00  0.00    +0.000 N 
ATOM     14  O   UNL     1      53.469   1.339  17.342  0.00  0.00    +0.000 OA
ATOM     15  H   UNL     1      50.746   0.264  18.553  0.00  0.00    +0.000 HD
ATOM     16  H   UNL     1      52.190  -0.595  18.151  0.00  0.00    +0.000 HD
ENDBRANCH   8  12
ENDBRANCH   1   4
BRANCH   1  21
ATOM     17  C   UNL     1      48.088   6.338  13.624  0.00  0.00    +0.000 A 
ATOM     18  C   UNL     1      48.997   7.046  12.823  0.00  0.00    +0.000 A 
ATOM     19  C   UNL     1      49.986   7.845  13.398  0.00  0.00    +0.000 A 
ATOM     20  C   UNL     1      50.094   7.940  14.787  0.00  0.00    +0.000 A 
ATOM     21  C   UNL     1      49.218   7.242  15.632  0.00  0.00    +0.000 A 
ATOM     22  C   UNL     1      48.218   6.468  15.021  0.00  0.00    +0.000 A 
BRANCH  17  26
ATOM     23  C   UNL     1      44.945   3.899  12.147  0.00  0.00    +0.000 A 
ATOM     24  C   UNL     1      45.182   5.108  11.510  0.00  0.00    +0.000 A 
ATOM     25  C   UNL     1      46.228   5.910  11.973  0.00  0.00    +0.000 A 
ATOM     26  C   UNL     1      47.016   5.497  13.055  0.00  0.00    +0.000 A 
ATOM     27  C   UNL     1      46.699   4.247  13.594  0.00  0.00    +0.000 A 
ATOM     28  N   UNL     1      45.686   3.446  13.180  0.00  0.00    +0.000 NA
BRANCH  23  30
ATOM     29  N   UNL     1      42.986   2.345  11.432  0.00  0.00    +0.000 NA
ATOM     30  C   UNL     1      43.852   3.055  11.739  0.00  0.00    +0.000 C 
ENDBRANCH  23  30
ENDBRANCH  17  26
ENDBRANCH   1  21
TORSDOF 5
ENDMDL
MODEL 5
REMARK VINA RESULT:    -6.892      1.723      2.370
REMARK INTER + INTRA:          -9.908
REMARK INTER:                  -9.968
REMARK INTRA:                   0.060
REMARK UNBOUND:                -1.001
REMARK  Name = 
REMARK  5 active torsions:
REMARK  status: ('A' for Active; 'I' for Inactive)
REMARK    1  A    between atoms: C_2  and  C_3
REMARK    2  A    between atoms: C_6  and  C_7
REMARK    3  A    between atoms: C_11  and  C_12
REMARK    4  A    between atoms: C_12  and  N_13
REMARK    5  A    between atoms: C_17  and  C_18
REMARK                            x       y       z     vdW  Elec       q    Type
REMARK                         _______ _______ _______ _____ _____    ______ ____
ROOT
ATOM      1  C   UNL     1      44.484   5.774  11.030  0.00  0.00    +0.000 C 
ATOM      2  C   UNL     1      43.131   5.409  11.628  0.00  0.00    +0.000 C 
ATOM      3  C   UNL     1      44.338   4.627  12.018  0.00  0.00    +0.000 C 
ENDROOT
BRANCH   1   4
ATOM      4  N   UNL     1      44.694   5.507   9.595  0.00  0.00    +0.000 N 
ATOM      5  C   UNL     1      45.302   4.343   9.101  0.00  0.00    +0.000 A 
ATOM      6  C   UNL     1      45.093   3.082   9.652  0.00  0.00    +0.000 A 
ATOM      7  C   UNL     1      45.654   1.953   9.050  0.00  0.00    +0.000 A 
ATOM      8  C   UNL     1      46.428   2.108   7.906  0.00  0.00    +0.000 A 
ATOM      9  C   UNL     1      46.584   3.394   7.410  0.00  0.00    +0.000 A 
ATOM     10  N   UNL     1      46.044   4.503   7.984  0.00  0.00    +0.000 NA
ATOM     11  H   UNL     1      45.091   6.271   9.051  0.00  0.00    +0.000 HD
BRANCH   8  12
ATOM     12  C   UNL     1      47.049   0.974   7.190  0.00  0.00    +0.000 C 
ATOM     13  N   UNL     1      46.770  -0.286   7.643  0.00  0.00    +0.000 N 
ATOM     14  O   UNL     1      47.805   1.152   6.245  0.00  0.00    +0.000 OA
ATOM     15  H   UNL     1      46.339  -0.471   8.537  0.00  0.00    +0.000 HD
ATOM     16  H   UNL     1      47.270  -1.046   7.199  0.00  0.00    +0.000 HD
ENDBRANCH   8  12
ENDBRANCH   1   4
BRANCH   1  21
ATOM     17  C   UNL     1      47.111   8.376  12.147  0.00  0.00    +0.000 A 
ATOM     18  C   UNL     1      46.290   9.483  12.409  0.00  0.00    +0.000 A 
ATOM     19  C   UNL     1      44.909   9.412  12.217  0.00  0.00    +0.000 A 
ATOM     20  C   UNL     1      44.322   8.228  11.770  0.00  0.00    +0.000 A 
ATOM     21  C   UNL     1      45.097   7.088  11.506  0.00  0.00    +0.000 A 
ATOM     22  C   UNL     1      46.485   7.201  11.686  0.00  0.00    +0.000 A 
BRANCH  17  26
ATOM     23  C   UNL     1      51.302   8.439  12.809  0.00  0.00    +0.000 A 
ATOM     24  C   UNL     1      50.835   7.796  11.672  0.00  0.00    +0.000 A 
ATOM     25  C   UNL     1      49.458   7.787  11.431  0.00  0.00    +0.000 A 
ATOM     26  C   UNL     1      48.576   8.416  12.320  0.00  0.00    +0.000 A 
ATOM     27  C   UNL     1      49.170   9.055  13.413  0.00  0.00    +0.000 A 
ATOM     28  N   UNL     1      50.498   9.075  13.686  0.00  0.00    +0.000 NA
BRANCH  23  30
ATOM     29  N   UNL     1      53.837   8.400  13.388  0.00  0.00    +0.000 NA
ATOM     30  C   UNL     1      52.707   8.440  13.128  0.00  0.00    +0.000 C 
ENDBRANCH  23  30
ENDBRANCH  17  26
ENDBRANCH   1  21
TORSDOF 5
ENDMDL
