MODEL 1
REMARK VINA RESULT:    -8.202      0.000      0.000
REMARK INTER + INTRA:         -10.877
REMARK INTER:                 -10.120
REMARK INTRA:                  -0.757
REMARK UNBOUND:                -0.757
REMARK  Name = 
REMARK  4 active torsions:
REMARK  status: ('A' for Active; 'I' for Inactive)
REMARK    1  A    between atoms: C_2  and  C_4
REMARK    2  A    between atoms: C_7  and  N_8
REMARK    3  A    between atoms: N_8  and  C_9
REMARK    4  A    between atoms: C_9  and  C_10
REMARK                            x       y       z     vdW  Elec       q    Type
REMARK                         _______ _______ _______ _____ _____    ______ ____
ROOT
ATOM      1  C   UNL     1      46.495   2.694   7.510  0.00  0.00    +0.000 A 
ATOM      2  C   UNL     1      46.098   4.033   7.623  0.00  0.00    +0.000 A 
ATOM      3  C   UNL     1      45.169   4.415   8.603  0.00  0.00    +0.000 A 
ATOM      4  C   UNL     1      44.654   3.477   9.498  0.00  0.00    +0.000 A 
ATOM      5  C   UNL     1      45.050   2.137   9.365  0.00  0.00    +0.000 A 
ATOM      6  C   UNL     1      45.950   1.741   8.372  0.00  0.00    +0.000 A 
ENDROOT
BRANCH   1   8
ATOM      7  N   UNL     1      47.469   2.893   5.284  0.00  0.00    +0.000 N 
ATOM      8  C   UNL     1      47.472   2.236   6.487  0.00  0.00    +0.000 C 
ATOM      9  O   UNL     1      48.278   1.348   6.719  0.00  0.00    +0.000 OA
ATOM     10  H   UNL     1      48.216   2.649   4.651  0.00  0.00    +0.000 HD
ATOM     11  H   UNL     1      47.017   3.784   5.164  0.00  0.00    +0.000 HD
ENDBRANCH   1   8
BRANCH   4  12
ATOM     12  N   UNL     1      43.755   3.787  10.530  0.00  0.00    +0.000 N 
ATOM     13  H   UNL     1      43.331   2.949  10.919  0.00  0.00    +0.000 HD
BRANCH  12  14
ATOM     14  C   UNL     1      43.825   4.957  11.419  0.00  0.00    +0.000 C 
ATOM     15  C   UNL     1      42.605   5.070  12.334  0.00  0.00    +0.000 C 
ATOM     16  C   UNL     1      42.851   6.117  11.301  0.00  0.00    +0.000 C 
BRANCH  14  17
ATOM     17  C   UNL     1      45.190   5.238  12.048  0.00  0.00    +0.000 A 
ATOM     18  C   UNL     1      45.964   6.350  11.661  0.00  0.00    +0.000 A 
ATOM     19  C   UNL     1      47.165   6.671  12.299  0.00  0.00    +0.000 A 
ATOM     20  C   UNL     1      47.636   5.866  13.330  0.00  0.00    +0.000 A 
ATOM     21  C   UNL     1      46.914   4.738  13.711  0.00  0.00    +0.000 A 
ATOM     22  C   UNL     1      45.706   4.431  13.076  0.00  0.00    +0.000 A 
ENDBRANCH  14  17
ENDBRANCH  12  14
ENDBRANCH   4  12
TORSDOF 4
ENDMDL
MODEL 2
REMARK VINA RESULT:    -8.154      0.797      1.736
REMARK INTER + INTRA:         -10.818
REMARK INTER:                 -10.495
REMARK INTRA:                  -0.323
REMARK UNBOUND:                -0.757
REMARK  Name = 
REMARK  4 active torsions:
REMARK  status: ('A' for Active; 'I' for Inactive)
REMARK    1  A    between atoms: C_2  and  C_4
REMARK    2  A    between atoms: C_7  and  N_8
REMARK    3  A    between atoms: N_8  and  C_9
REMARK    4  A    between atoms: C_9  and  C_10
REMARK                            x       y       z     vdW  Elec       q    Type
REMARK                         _______ _______ _______ _____ _____    ______ ____
ROOT
ATOM      1  C   UNL     1      46.390   2.275   7.808  0.00  0.00    +0.000 A 
ATOM      2  C   UNL     1      45.503   1.714   8.735  0.00  0.00    +0.000 A 
ATOM      3  C   UNL     1      44.638   2.536   9.473  0.00  0.00    +0.000 A 
ATOM      4  C   UNL     1      44.624   3.916   9.271  0.00  0.00    +0.000 A 
ATOM      5  C   UNL     1      45.527   4.466   8.348  0.00  0.00    +0.000 A 
ATOM      6  C   UNL     1      46.415   3.660   7.633  0.00  0.00    +0.000 A 
ENDROOT
BRANCH   1   8
ATOM      7  N   UNL     1      48.447   2.076   6.515  0.00  0.00    +0.000 N 
ATOM      8  C   UNL     1      47.330   1.450   7.005  0.00  0.00    +0.000 C 
ATOM      9  O   UNL     1      47.148   0.255   6.826  0.00  0.00    +0.000 OA
ATOM     10  H   UNL     1      49.130   1.475   6.078  0.00  0.00    +0.000 HD
ATOM     11  H   UNL     1      48.756   2.967   6.866  0.00  0.00    +0.000 HD
ENDBRANCH   1   8
BRANCH   4  12
ATOM     12  N   UNL     1      43.761   4.800   9.938  0.00  0.00    +0.000 N 
ATOM     13  H   UNL     1      42.858   4.858   9.476  0.00  0.00    +0.000 HD
BRANCH  12  14
ATOM     14  C   UNL     1      43.782   5.113  11.375  0.00  0.00    +0.000 C 
ATOM     15  C   UNL     1      42.949   4.131  12.200  0.00  0.00    +0.000 C 
ATOM     16  C   UNL     1      42.535   5.562  12.119  0.00  0.00    +0.000 C 
BRANCH  14  17
ATOM     17  C   UNL     1      45.137   5.526  11.950  0.00  0.00    +0.000 A 
ATOM     18  C   UNL     1      45.736   4.814  13.009  0.00  0.00    +0.000 A 
ATOM     19  C   UNL     1      47.017   5.122  13.473  0.00  0.00    +0.000 A 
ATOM     20  C   UNL     1      47.725   6.173  12.902  0.00  0.00    +0.000 A 
ATOM     21  C   UNL     1      47.147   6.921  11.879  0.00  0.00    +0.000 A 
ATOM     22  C   UNL     1      45.868   6.598  11.411  0.00  0.00    +0.000 A 
ENDBRANCH  14  17
ENDBRANCH  12  14
ENDBRANCH   4  12
TORSDOF 4
ENDMDL
MODEL 3
REMARK VINA RESULT:    -6.704      3.293      6.308
REMARK INTER + INTRA:          -9.028
REMARK INTER:                  -8.490
REMARK INTRA:                  -0.539
REMARK UNBOUND:                -0.757
REMARK  Name = 
REMARK  4 active torsions:
REMARK  status: ('A' for Active; 'I' for Inactive)
REMARK    1  A    between atoms: C_2  and  C_4
REMARK    2  A    between atoms: C_7  and  N_8
REMARK    3  A    between atoms: N_8  and  C_9
REMARK    4  A    between atoms: C_9  and  C_10
REMARK                            x       y       z     vdW  Elec       q    Type
REMARK                         _______ _______ _______ _____ _____    ______ ____
ROOT
ATOM      1  C   UNL     1      46.984   8.070  12.998  0.00  0.00    +0.000 A 
ATOM      2  C   UNL     1      45.596   8.252  12.965  0.00  0.00    +0.000 A 
ATOM      3  C   UNL     1      44.802   7.481  12.101  0.00  0.00    +0.000 A 
ATOM      4  C   UNL     1      45.377   6.503  11.291  0.00  0.00    +0.000 A 
ATOM      5  C   UNL     1      46.771   6.341  11.325  0.00  0.00    +0.000 A 
ATOM      6  C   UNL     1      47.573   7.125  12.157  0.00  0.00    +0.000 A 
ENDROOT
BRANCH   1   8
ATOM      7  N   UNL     1      47.394   9.159  15.140  0.00  0.00    +0.000 N 
ATOM      8  C   UNL     1      47.870   8.863  13.890  0.00  0.00    +0.000 C 
ATOM      9  O   UNL     1      48.995   9.198  13.548  0.00  0.00    +0.000 OA
ATOM     10  H   UNL     1      48.054   9.591  15.770  0.00  0.00    +0.000 HD
ATOM     11  H   UNL     1      46.605   8.677  15.538  0.00  0.00    +0.000 HD
ENDBRANCH   1   8
BRANCH   4  12
ATOM     12  N   UNL     1      44.648   5.664  10.434  0.00  0.00    +0.000 N 
ATOM     13  H   UNL     1      44.459   6.115   9.543  0.00  0.00    +0.000 HD
BRANCH  12  14
ATOM     14  C   UNL     1      44.677   4.193  10.429  0.00  0.00    +0.000 C 
ATOM     15  C   UNL     1      43.359   3.580  10.904  0.00  0.00    +0.000 C 
ATOM     16  C   UNL     1      44.597   3.382  11.712  0.00  0.00    +0.000 C 
BRANCH  14  17
ATOM     17  C   UNL     1      45.346   3.542   9.219  0.00  0.00    +0.000 A 
ATOM     18  C   UNL     1      45.884   4.314   8.169  0.00  0.00    +0.000 A 
ATOM     19  C   UNL     1      46.586   3.732   7.110  0.00  0.00    +0.000 A 
ATOM     20  C   UNL     1      46.745   2.352   7.062  0.00  0.00    +0.000 A 
ATOM     21  C   UNL     1      46.193   1.557   8.063  0.00  0.00    +0.000 A 
ATOM     22  C   UNL     1      45.503   2.148   9.128  0.00  0.00    +0.000 A 
ENDBRANCH  14  17
ENDBRANCH  12  14
ENDBRANCH   4  12
TORSDOF 4
ENDMDL
MODEL 4
REMARK VINA RESULT:    -6.311      3.357      6.503
REMARK INTER + INTRA:          -8.544
REMARK INTER:                  -8.158
REMARK INTRA:                  -0.386
REMARK UNBOUND:                -0.757
REMARK  Name = 
REMARK  4 active torsions:
REMARK  status: ('A' for Active; 'I' for Inactive)
REMARK    1  A    between atoms: C_2  and  C_4
REMARK    2  A    between atoms: C_7  and  N_8
REMARK    3  A    between atoms: N_8  and  C_9
REMARK    4  A    between atoms: C_9  and  C_10
REMARK                            x       y       z     vdW  Elec       q    Type
REMARK                         _______ _______ _______ _____ _____    ______ ____
ROOT
ATOM      1  C   UNL     1      47.758   5.498  15.126  0.00  0.00    +0.000 A 
ATOM      2  C   UNL     1      46.927   4.435  14.752  0.00  0.00    +0.000 A 
ATOM      3  C   UNL     1      46.175   4.506  13.570  0.00  0.00    +0.000 A 
ATOM      4  C   UNL     1      46.268   5.619  12.735  0.00  0.00    +0.000 A 
ATOM      5  C   UNL     1      47.094   6.684  13.128  0.00  0.00    +0.000 A 
ATOM      6  C   UNL     1      47.822   6.636  14.319  0.00  0.00    +0.000 A 
ENDROOT
BRANCH   1   8
ATOM      7  N   UNL     1      48.271   6.407  17.329  0.00  0.00    +0.000 N 
ATOM      8  C   UNL     1      48.572   5.476  16.370  0.00  0.00    +0.000 C 
ATOM      9  O   UNL     1      49.439   4.635  16.557  0.00  0.00    +0.000 OA
ATOM     10  H   UNL     1      48.751   6.299  18.210  0.00  0.00    +0.000 HD
ATOM     11  H   UNL     1      47.406   6.922  17.320  0.00  0.00    +0.000 HD
ENDBRANCH   1   8
BRANCH   4  12
ATOM     12  N   UNL     1      45.581   5.748  11.517  0.00  0.00    +0.000 N 
ATOM     13  H   UNL     1      46.121   6.278  10.840  0.00  0.00    +0.000 HD
BRANCH  12  14
ATOM     14  C   UNL     1      44.597   4.799  10.972  0.00  0.00    +0.000 C 
ATOM     15  C   UNL     1      43.193   5.399  10.883  0.00  0.00    +0.000 C 
ATOM     16  C   UNL     1      43.450   4.259  11.810  0.00  0.00    +0.000 C 
BRANCH  14  17
ATOM     17  C   UNL     1      45.067   3.957   9.786  0.00  0.00    +0.000 A 
ATOM     18  C   UNL     1      45.679   4.546   8.661  0.00  0.00    +0.000 A 
ATOM     19  C   UNL     1      46.201   3.775   7.618  0.00  0.00    +0.000 A 
ATOM     20  C   UNL     1      46.099   2.390   7.664  0.00  0.00    +0.000 A 
ATOM     21  C   UNL     1      45.465   1.779   8.743  0.00  0.00    +0.000 A 
ATOM     22  C   UNL     1      44.957   2.557   9.790  0.00  0.00    +0.000 A 
ENDBRANCH  14  17
ENDBRANCH  12  14
ENDBRANCH   4  12
TORSDOF 4
ENDMDL
MODEL 5
REMARK VINA RESULT:    -5.787      3.808      6.907
REMARK INTER + INTRA:          -7.898
REMARK INTER:                  -7.350
REMARK INTRA:                  -0.548
REMARK UNBOUND:                -0.757
REMARK  Name = 
REMARK  4 active torsions:
REMARK  status: ('A' for Active; 'I' for Inactive)
REMARK    1  A    between atoms: C_2  and  C_4
REMARK    2  A    between atoms: C_7  and  N_8
REMARK    3  A    between atoms: N_8  and  C_9
REMARK    4  A    between atoms: C_9  and  C_10
REMARK                            x       y       z     vdW  Elec       q    Type
REMARK                         _______ _______ _______ _____ _____    ______ ____
ROOT
ATOM      1  C   UNL     1      48.029   4.638  16.173  0.00  0.00    +0.000 A 
ATOM      2  C   UNL     1      47.294   3.724  15.408  0.00  0.00    +0.000 A 
ATOM      3  C   UNL     1      46.835   4.078  14.130  0.00  0.00    +0.000 A 
ATOM      4  C   UNL     1      47.131   5.330  13.590  0.00  0.00    +0.000 A 
ATOM      5  C   UNL     1      47.857   6.241  14.373  0.00  0.00    +0.000 A 
ATOM      6  C   UNL     1      48.290   5.910  15.659  0.00  0.00    +0.000 A 
ENDROOT
BRANCH   1   8
ATOM      7  N   UNL     1      47.598   4.105  18.512  0.00  0.00    +0.000 N 
ATOM      8  C   UNL     1      48.534   4.315  17.533  0.00  0.00    +0.000 C 
ATOM      9  O   UNL     1      49.728   4.192  17.765  0.00  0.00    +0.000 OA
ATOM     10  H   UNL     1      47.955   3.770  19.394  0.00  0.00    +0.000 HD
ATOM     11  H   UNL     1      46.630   3.933  18.297  0.00  0.00    +0.000 HD
ENDBRANCH   1   8
BRANCH   4  12
ATOM     12  N   UNL     1      46.746   5.743  12.306  0.00  0.00    +0.000 N 
ATOM     13  H   UNL     1      47.510   5.657  11.642  0.00  0.00    +0.000 HD
BRANCH  12  14
ATOM     14  C   UNL     1      45.385   5.686  11.748  0.00  0.00    +0.000 C 
ATOM     15  C   UNL     1      44.744   7.069  11.626  0.00  0.00    +0.000 C 
ATOM     16  C   UNL     1      44.163   6.068  12.567  0.00  0.00    +0.000 C 
BRANCH  14  17
ATOM     17  C   UNL     1      45.182   4.723  10.578  0.00  0.00    +0.000 A 
ATOM     18  C   UNL     1      45.659   5.022   9.286  0.00  0.00    +0.000 A 
ATOM     19  C   UNL     1      45.566   4.106   8.235  0.00  0.00    +0.000 A 
ATOM     20  C   UNL     1      44.967   2.870   8.447  0.00  0.00    +0.000 A 
ATOM     21  C   UNL     1      44.452   2.557   9.702  0.00  0.00    +0.000 A 
ATOM     22  C   UNL     1      44.560   3.475  10.753  0.00  0.00    +0.000 A 
ENDBRANCH  14  17
ENDBRANCH  12  14
ENDBRANCH   4  12
TORSDOF 4
ENDMDL
MODEL 6
REMARK VINA RESULT:    -5.748      3.552      6.285
REMARK INTER + INTRA:          -7.850
REMARK INTER:                  -7.589
REMARK INTRA:                  -0.261
REMARK UNBOUND:                -0.757
REMARK  Name = 
REMARK  4 active torsions:
REMARK  status: ('A' for Active; 'I' for Inactive)
REMARK    1  A    between atoms: C_2  and  C_4
REMARK    2  A    between atoms: C_7  and  N_8
REMARK    3  A    between atoms: N_8  and  C_9
REMARK    4  A    between atoms: C_9  and  C_10
REMARK                            x       y       z     vdW  Elec       q    Type
REMARK                         _______ _______ _______ _____ _____    ______ ____
ROOT
ATOM      1  C   UNL     1      45.365   8.789  11.828  0.00  0.00    +0.000 A 
ATOM      2  C   UNL     1      46.189   7.657  11.816  0.00  0.00    +0.000 A 
ATOM      3  C   UNL     1      45.688   6.422  11.377  0.00  0.00    +0.000 A 
ATOM      4  C   UNL     1      44.376   6.310  10.917  0.00  0.00    +0.000 A 
ATOM      5  C   UNL     1      43.557   7.450  10.947  0.00  0.00    +0.000 A 
ATOM      6  C   UNL     1      44.037   8.677  11.412  0.00  0.00    +0.000 A 
ENDROOT
BRANCH   1   8
ATOM      7  N   UNL     1      47.062  10.161  12.916  0.00  0.00    +0.000 N 
ATOM      8  C   UNL     1      45.844  10.119  12.288  0.00  0.00    +0.000 C 
ATOM      9  O   UNL     1      45.210  11.142  12.074  0.00  0.00    +0.000 OA
ATOM     10  H   UNL     1      47.423  11.083  13.110  0.00  0.00    +0.000 HD
ATOM     11  H   UNL     1      47.715   9.397  12.863  0.00  0.00    +0.000 HD
ENDBRANCH   1   8
BRANCH   4  12
ATOM     12  N   UNL     1      43.815   5.123  10.424  0.00  0.00    +0.000 N 
ATOM     13  H   UNL     1      43.224   5.297   9.615  0.00  0.00    +0.000 HD
BRANCH  12  14
ATOM     14  C   UNL     1      44.402   3.778  10.526  0.00  0.00    +0.000 C 
ATOM     15  C   UNL     1      43.462   2.778  11.199  0.00  0.00    +0.000 C 
ATOM     16  C   UNL     1      44.743   3.148  11.866  0.00  0.00    +0.000 C 
BRANCH  14  17
ATOM     17  C   UNL     1      45.168   3.288   9.297  0.00  0.00    +0.000 A 
ATOM     18  C   UNL     1      45.664   4.186   8.330  0.00  0.00    +0.000 A 
ATOM     19  C   UNL     1      46.450   3.756   7.258  0.00  0.00    +0.000 A 
ATOM     20  C   UNL     1      46.739   2.405   7.111  0.00  0.00    +0.000 A 
ATOM     21  C   UNL     1      46.233   1.486   8.027  0.00  0.00    +0.000 A 
ATOM     22  C   UNL     1      45.457   1.926   9.106  0.00  0.00    +0.000 A 
ENDBRANCH  14  17
ENDBRANCH  12  14
ENDBRANCH   4  12
TORSDOF 4
ENDMDL
MODEL 7
REMARK VINA RESULT:    -5.464      3.178      5.253
REMARK INTER + INTRA:          -7.499
REMARK INTER:                  -6.867
REMARK INTRA:                  -0.632
REMARK UNBOUND:                -0.757
REMARK  Name = 
REMARK  4 active torsions:
REMARK  status: ('A' for Active; 'I' for Inactive)
REMARK    1  A    between atoms: C_2  and  C_4
REMARK    2  A    between atoms: C_7  and  N_8
REMARK    3  A    between atoms: N_8  and  C_9
REMARK    4  A    between atoms: C_9  and  C_10
REMARK                            x       y       z     vdW  Elec       q    Type
REMARK                         _______ _______ _______ _____ _____    ______ ____
ROOT
ATOM      1  C   UNL     1      44.723   4.068  11.467  0.00  0.00    +0.000 A 
ATOM      2  C   UNL     1      45.150   4.227  12.791  0.00  0.00    +0.000 A 
ATOM      3  C   UNL     1      45.824   5.394  13.182  0.00  0.00    +0.000 A 
ATOM      4  C   UNL     1      46.047   6.425  12.270  0.00  0.00    +0.000 A 
ATOM      5  C   UNL     1      45.625   6.247  10.943  0.00  0.00    +0.000 A 
ATOM      6  C   UNL     1      44.983   5.075  10.536  0.00  0.00    +0.000 A 
ENDROOT
BRANCH   1   8
ATOM      7  N   UNL     1      44.563   2.169   9.947  0.00  0.00    +0.000 N 
ATOM      8  C   UNL     1      44.010   2.850  11.000  0.00  0.00    +0.000 C 
ATOM      9  O   UNL     1      43.003   2.439  11.557  0.00  0.00    +0.000 OA
ATOM     10  H   UNL     1      44.134   1.283   9.724  0.00  0.00    +0.000 HD
ATOM     11  H   UNL     1      45.513   2.323   9.652  0.00  0.00    +0.000 HD
ENDBRANCH   1   8
BRANCH   4  12
ATOM     12  N   UNL     1      46.674   7.638  12.593  0.00  0.00    +0.000 N 
ATOM     13  H   UNL     1      46.020   8.298  13.002  0.00  0.00    +0.000 HD
BRANCH  12  14
ATOM     14  C   UNL     1      48.091   7.814  12.950  0.00  0.00    +0.000 C 
ATOM     15  C   UNL     1      48.803   8.819  12.043  0.00  0.00    +0.000 C 
ATOM     16  C   UNL     1      49.214   7.386  12.021  0.00  0.00    +0.000 C 
BRANCH  14  17
ATOM     17  C   UNL     1      48.398   7.893  14.445  0.00  0.00    +0.000 A 
ATOM     18  C   UNL     1      48.148   9.064  15.189  0.00  0.00    +0.000 A 
ATOM     19  C   UNL     1      48.332   9.112  16.573  0.00  0.00    +0.000 A 
ATOM     20  C   UNL     1      48.797   7.990  17.248  0.00  0.00    +0.000 A 
ATOM     21  C   UNL     1      49.090   6.828  16.538  0.00  0.00    +0.000 A 
ATOM     22  C   UNL     1      48.891   6.784  15.153  0.00  0.00    +0.000 A 
ENDBRANCH  14  17
ENDBRANCH  12  14
ENDBRANCH   4  12
TORSDOF 4
ENDMDL
MODEL 8
REMARK VINA RESULT:    -5.389      3.395      5.290
REMARK INTER + INTRA:          -7.407
REMARK INTER:                  -6.911
REMARK INTRA:                  -0.496
REMARK UNBOUND:                -0.757
REMARK  Name = 
REMARK  4 active torsions:
REMARK  status: ('A' for Active; 'I' for Inactive)
REMARK    1  A    between atoms: C_2  and  C_4
REMARK    2  A    between atoms: C_7  and  N_8
REMARK    3  A    between atoms: N_8  and  C_9
REMARK    4  A    between atoms: C_9  and  C_10
REMARK                            x       y       z     vdW  Elec       q    Type
REMARK                         _______ _______ _______ _____ _____    ______ ____
ROOT
ATOM      1  C   UNL     1      44.984   3.978  11.473  0.00  0.00    +0.000 A 
ATOM      2  C   UNL     1      45.309   5.170  10.813  0.00  0.00    +0.000 A 
ATOM      3  C   UNL     1      46.222   6.069  11.385  0.00  0.00    +0.000 A 
ATOM      4  C   UNL     1      46.843   5.775  12.599  0.00  0.00    +0.000 A 
ATOM      5  C   UNL     1      46.497   4.584  13.256  0.00  0.00    +0.000 A 
ATOM      6  C   UNL     1      45.566   3.698  12.711  0.00  0.00    +0.000 A 
ENDROOT
BRANCH   1   8
ATOM      7  N   UNL     1      44.463   2.201   9.887  0.00  0.00    +0.000 N 
ATOM      8  C   UNL     1      44.020   2.994  10.914  0.00  0.00    +0.000 C 
ATOM      9  O   UNL     1      42.897   2.858  11.376  0.00  0.00    +0.000 OA
ATOM     10  H   UNL     1      43.838   1.462   9.604  0.00  0.00    +0.000 HD
ATOM     11  H   UNL     1      45.442   2.102   9.675  0.00  0.00    +0.000 HD
ENDBRANCH   1   8
BRANCH   4  12
ATOM     12  N   UNL     1      47.796   6.601  13.215  0.00  0.00    +0.000 N 
ATOM     13  H   UNL     1      48.662   6.102  13.393  0.00  0.00    +0.000 HD
BRANCH  12  14
ATOM     14  C   UNL     1      47.901   8.062  13.069  0.00  0.00    +0.000 C 
ATOM     15  C   UNL     1      47.664   8.800  14.388  0.00  0.00    +0.000 C 
ATOM     16  C   UNL     1      46.704   8.978  13.260  0.00  0.00    +0.000 C 
BRANCH  14  17
ATOM     17  C   UNL     1      49.047   8.565  12.191  0.00  0.00    +0.000 A 
ATOM     18  C   UNL     1      49.083   9.892  11.716  0.00  0.00    +0.000 A 
ATOM     19  C   UNL     1      50.174  10.388  10.998  0.00  0.00    +0.000 A 
ATOM     20  C   UNL     1      51.250   9.556  10.712  0.00  0.00    +0.000 A 
ATOM     21  C   UNL     1      51.228   8.229  11.134  0.00  0.00    +0.000 A 
ATOM     22  C   UNL     1      50.138   7.742  11.864  0.00  0.00    +0.000 A 
ENDBRANCH  14  17
ENDBRANCH  12  14
ENDBRANCH   4  12
TORSDOF 4
ENDMDL
MODEL 9
REMARK VINA RESULT:    -5.335      3.931      6.239
REMARK INTER + INTRA:          -7.339
REMARK INTER:                  -6.715
REMARK INTRA:                  -0.624
REMARK UNBOUND:                -0.757
REMARK  Name = 
REMARK  4 active torsions:
REMARK  status: ('A' for Active; 'I' for Inactive)
REMARK    1  A    between atoms: C_2  and  C_4
REMARK    2  A    between atoms: C_7  and  N_8
REMARK    3  A    between atoms: N_8  and  C_9
REMARK    4  A    between atoms: C_9  and  C_10
REMARK                            x       y       z     vdW  Elec       q    Type
REMARK                         _______ _______ _______ _____ _____    ______ ____
ROOT
ATOM      1  C   UNL     1      44.454   5.357  12.020  0.00  0.00    +0.000 A 
ATOM      2  C   UNL     1      45.052   4.917  13.208  0.00  0.00    +0.000 A 
ATOM      3  C   UNL     1      46.388   5.242  13.490  0.00  0.00    +0.000 A 
ATOM      4  C   UNL     1      47.128   6.032  12.611  0.00  0.00    +0.000 A 
ATOM      5  C   UNL     1      46.520   6.455  11.418  0.00  0.00    +0.000 A 
ATOM      6  C   UNL     1      45.201   6.110  11.113  0.00  0.00    +0.000 A 
ENDROOT
BRANCH   1   8
ATOM      7  N   UNL     1      42.139   6.064  11.728  0.00  0.00    +0.000 N 
ATOM      8  C   UNL     1      43.045   5.037  11.671  0.00  0.00    +0.000 C 
ATOM      9  O   UNL     1      42.710   3.922  11.300  0.00  0.00    +0.000 OA
ATOM     10  H   UNL     1      41.218   5.857  11.373  0.00  0.00    +0.000 HD
ATOM     11  H   UNL     1      42.428   7.028  11.763  0.00  0.00    +0.000 HD
ENDBRANCH   1   8
BRANCH   4  12
ATOM     12  N   UNL     1      48.452   6.434  12.841  0.00  0.00    +0.000 N 
ATOM     13  H   UNL     1      49.084   6.053  12.142  0.00  0.00    +0.000 HD
BRANCH  12  14
ATOM     14  C   UNL     1      48.879   7.679  13.498  0.00  0.00    +0.000 C 
ATOM     15  C   UNL     1      49.937   7.439  14.576  0.00  0.00    +0.000 C 
ATOM     16  C   UNL     1      48.593   7.954  14.966  0.00  0.00    +0.000 C 
BRANCH  14  17
ATOM     17  C   UNL     1      49.088   8.883  12.580  0.00  0.00    +0.000 A 
ATOM     18  C   UNL     1      50.311   9.099  11.913  0.00  0.00    +0.000 A 
ATOM     19  C   UNL     1      50.477  10.139  10.995  0.00  0.00    +0.000 A 
ATOM     20  C   UNL     1      49.424  11.010  10.739  0.00  0.00    +0.000 A 
ATOM     21  C   UNL     1      48.215  10.848  11.410  0.00  0.00    +0.000 A 
ATOM     22  C   UNL     1      48.052   9.796  12.318  0.00  0.00    +0.000 A 
ENDBRANCH  14  17
ENDBRANCH  12  14
ENDBRANCH   4  12
TORSDOF 4
ENDMDL
