MODEL 1
REMARK VINA RESULT:    -8.335      0.000      0.000
REMARK INTER + INTRA:         -12.455
REMARK INTER:                 -11.258
REMARK INTRA:                  -1.197
REMARK UNBOUND:                -1.197
REMARK  Name = 
REMARK  7 active torsions:
REMARK  status: ('A' for Active; 'I' for Inactive)
REMARK    1  A    between atoms: C_1  and  O_2
REMARK    2  A    between atoms: O_2  and  C_3
REMARK    3  A    between atoms: C_5  and  O_6
REMARK    4  A    between atoms: O_6  and  C_7
REMARK    5  A    between atoms: C_11  and  C_12
REMARK    6  A    between atoms: C_12  and  N_13
REMARK    7  A    between atoms: C_14  and  C_16
REMARK                            x       y       z     vdW  Elec       q    Type
REMARK                         _______ _______ _______ _____ _____    ______ ____
ROOT
ATOM      1  C   UNL     1      46.407   7.092  12.655  0.00  0.00    +0.000 C 
ENDROOT
BRANCH   1   6
ATOM      2  C   UNL     1      43.973   5.020  10.617  0.00  0.00    +0.000 A 
ATOM      3  C   UNL     1      43.076   4.699  11.627  0.00  0.00    +0.000 A 
ATOM      4  N   UNL     1      43.185   5.130  12.906  0.00  0.00    +0.000 NA
ATOM      5  C   UNL     1      44.253   5.906  13.195  0.00  0.00    +0.000 A 
ATOM      6  C   UNL     1      45.208   6.289  12.258  0.00  0.00    +0.000 A 
ATOM      7  C   UNL     1      45.016   5.888  10.934  0.00  0.00    +0.000 A 
BRANCH   2   8
ATOM      8  O   UNL     1      43.742   4.488   9.375  0.00  0.00    +0.000 OA
BRANCH   8  11
ATOM      9  C   UNL     1      46.468   2.956   7.435  0.00  0.00    +0.000 A 
ATOM     10  C   UNL     1      45.655   3.962   7.926  0.00  0.00    +0.000 A 
ATOM     11  C   UNL     1      44.651   3.610   8.826  0.00  0.00    +0.000 A 
ATOM     12  C   UNL     1      44.562   2.295   9.268  0.00  0.00    +0.000 A 
ATOM     13  C   UNL     1      45.446   1.368   8.743  0.00  0.00    +0.000 A 
ATOM     14  N   UNL     1      46.385   1.666   7.822  0.00  0.00    +0.000 NA
BRANCH   9  16
ATOM     15  C   UNL     1      47.875   2.218   5.719  0.00  0.00    +0.000 C 
ATOM     16  O   UNL     1      47.379   3.326   6.463  0.00  0.00    +0.000 OA
ENDBRANCH   9  16
ENDBRANCH   8  11
ENDBRANCH   2   8
ENDBRANCH   1   6
BRANCH   1  17
ATOM     17  N   UNL     1      46.899   6.708  13.948  0.00  0.00    +0.000 N 
ATOM     18  C   UNL     1      48.231   6.510  14.193  0.00  0.00    +0.000 C 
ATOM     19  O   UNL     1      49.084   6.665  13.323  0.00  0.00    +0.000 OA
ATOM     20  H   UNL     1      46.211   6.402  14.629  0.00  0.00    +0.000 HD
BRANCH  18  21
ATOM     21  C   UNL     1      48.594   6.166  15.571  0.00  0.00    +0.000 A 
ATOM     22  C   UNL     1      49.460   6.993  16.274  0.00  0.00    +0.000 A 
ATOM     23  S   UNL     1      49.753   6.474  17.870  0.00  0.00    +0.000 S 
ATOM     24  C   UNL     1      48.766   5.104  17.666  0.00  0.00    +0.000 A 
ATOM     25  N   UNL     1      48.605   4.205  18.672  0.00  0.00    +0.000 NA
ATOM     26  C   UNL     1      47.858   3.194  18.370  0.00  0.00    +0.000 A 
ATOM     27  N   UNL     1      47.250   3.009  17.158  0.00  0.00    +0.000 N 
ATOM     28  C   UNL     1      47.333   3.922  16.133  0.00  0.00    +0.000 A 
ATOM     29  O   UNL     1      46.684   3.779  15.099  0.00  0.00    +0.000 OA
ATOM     30  C   UNL     1      48.198   5.056  16.405  0.00  0.00    +0.000 A 
ATOM     31  H   UNL     1      46.656   2.207  16.996  0.00  0.00    +0.000 HD
ENDBRANCH  18  21
ENDBRANCH   1  17
TORSDOF 6
ENDMDL
MODEL 2
REMARK VINA RESULT:    -7.627      2.101      2.936
REMARK INTER + INTRA:         -11.499
REMARK INTER:                 -10.769
REMARK INTRA:                  -0.729
REMARK UNBOUND:                -1.197
REMARK  Name = 
REMARK  7 active torsions:
REMARK  status: ('A' for Active; 'I' for Inactive)
REMARK    1  A    between atoms: C_1  and  O_2
REMARK    2  A    between atoms: O_2  and  C_3
REMARK    3  A    between atoms: C_5  and  O_6
REMARK    4  A    between atoms: O_6  and  C_7
REMARK    5  A    between atoms: C_11  and  C_12
REMARK    6  A    between atoms: C_12  and  N_13
REMARK    7  A    between atoms: C_14  and  C_16
REMARK                            x       y       z     vdW  Elec       q    Type
REMARK                         _______ _______ _______ _____ _____    ______ ____
ROOT
ATOM      1  C   UNL     1      46.250   4.394  14.889  0.00  0.00    +0.000 C 
ENDROOT
BRANCH   1   6
ATOM      2  C   UNL     1      45.619   5.427  11.297  0.00  0.00    +0.000 A 
ATOM      3  C   UNL     1      46.497   6.500  11.230  0.00  0.00    +0.000 A 
ATOM      4  N   UNL     1      47.299   6.891  12.250  0.00  0.00    +0.000 NA
ATOM      5  C   UNL     1      47.204   6.185  13.399  0.00  0.00    +0.000 A 
ATOM      6  C   UNL     1      46.360   5.092  13.569  0.00  0.00    +0.000 A 
ATOM      7  C   UNL     1      45.609   4.674  12.468  0.00  0.00    +0.000 A 
BRANCH   2   8
ATOM      8  O   UNL     1      44.855   5.168  10.188  0.00  0.00    +0.000 OA
BRANCH   8  11
ATOM      9  C   UNL     1      46.209   3.234   7.365  0.00  0.00    +0.000 A 
ATOM     10  C   UNL     1      45.948   4.345   8.148  0.00  0.00    +0.000 A 
ATOM     11  C   UNL     1      45.223   4.161   9.323  0.00  0.00    +0.000 A 
ATOM     12  C   UNL     1      44.873   2.873   9.714  0.00  0.00    +0.000 A 
ATOM     13  C   UNL     1      45.210   1.823   8.878  0.00  0.00    +0.000 A 
ATOM     14  N   UNL     1      45.854   1.977   7.703  0.00  0.00    +0.000 NA
BRANCH   9  16
ATOM     15  C   UNL     1      47.643   2.382   5.726  0.00  0.00    +0.000 C 
ATOM     16  O   UNL     1      46.833   3.472   6.155  0.00  0.00    +0.000 OA
ENDBRANCH   9  16
ENDBRANCH   8  11
ENDBRANCH   2   8
ENDBRANCH   1   6
BRANCH   1  17
ATOM     17  N   UNL     1      47.417   4.603  15.699  0.00  0.00    +0.000 N 
ATOM     18  C   UNL     1      47.588   3.981  16.906  0.00  0.00    +0.000 C 
ATOM     19  O   UNL     1      46.758   3.196  17.358  0.00  0.00    +0.000 OA
ATOM     20  H   UNL     1      48.025   5.372  15.438  0.00  0.00    +0.000 HD
BRANCH  18  21
ATOM     21  C   UNL     1      48.849   4.251  17.603  0.00  0.00    +0.000 A 
ATOM     22  C   UNL     1      48.971   5.401  18.371  0.00  0.00    +0.000 A 
ATOM     23  S   UNL     1      50.483   5.550  19.141  0.00  0.00    +0.000 S 
ATOM     24  C   UNL     1      51.044   4.104  18.444  0.00  0.00    +0.000 A 
ATOM     25  N   UNL     1      52.305   3.658  18.681  0.00  0.00    +0.000 NA
ATOM     26  C   UNL     1      52.612   2.567  18.061  0.00  0.00    +0.000 A 
ATOM     27  N   UNL     1      51.767   1.876  17.235  0.00  0.00    +0.000 N 
ATOM     28  C   UNL     1      50.463   2.253  17.015  0.00  0.00    +0.000 A 
ATOM     29  O   UNL     1      49.700   1.550  16.358  0.00  0.00    +0.000 OA
ATOM     30  C   UNL     1      50.081   3.499  17.654  0.00  0.00    +0.000 A 
ATOM     31  H   UNL     1      52.063   1.012  16.800  0.00  0.00    +0.000 HD
ENDBRANCH  18  21
ENDBRANCH   1  17
TORSDOF 6
ENDMDL
MODEL 3
REMARK VINA RESULT:    -7.623      2.027      3.046
REMARK INTER + INTRA:         -11.494
REMARK INTER:                 -10.552
REMARK INTRA:                  -0.941
REMARK UNBOUND:                -1.197
REMARK  Name = 
REMARK  7 active torsions:
REMARK  status: ('A' for Active; 'I' for Inactive)
REMARK    1  A    between atoms: C_1  and  O_2
REMARK    2  A    between atoms: O_2  and  C_3
REMARK    3  A    between atoms: C_5  and  O_6
REMARK    4  A    between atoms: O_6  and  C_7
REMARK    5  A    between atoms: C_11  and  C_12
REMARK    6  A    between atoms: C_12  and  N_13
REMARK    7  A    between atoms: C_14  and  C_16
REMARK                            x       y       z     vdW  Elec       q    Type
REMARK                         _______ _______ _______ _____ _____    ______ ____
ROOT
ATOM      1  C   UNL     1      47.033   4.061  14.714  0.00  0.00    +0.000 C 
ENDROOT
BRANCH   1   6
ATOM      2  C   UNL     1      45.263   5.348  11.619  0.00  0.00    +0.000 A 
ATOM      3  C   UNL     1      45.634   6.683  11.706  0.00  0.00    +0.000 A 
ATOM      4  N   UNL     1      46.438   7.187  12.672  0.00  0.00    +0.000 NA
ATOM      5  C   UNL     1      46.879   6.317  13.608  0.00  0.00    +0.000 A 
ATOM      6  C   UNL     1      46.570   4.960  13.610  0.00  0.00    +0.000 A 
ATOM      7  C   UNL     1      45.803   4.466  12.553  0.00  0.00    +0.000 A 
BRANCH   2   8
ATOM      8  O   UNL     1      44.423   4.992  10.595  0.00  0.00    +0.000 OA
BRANCH   8  11
ATOM      9  C   UNL     1      45.932   3.495   7.591  0.00  0.00    +0.000 A 
ATOM     10  C   UNL     1      45.598   4.485   8.498  0.00  0.00    +0.000 A 
ATOM     11  C   UNL     1      44.860   4.120   9.622  0.00  0.00    +0.000 A 
ATOM     12  C   UNL     1      44.571   2.778   9.841  0.00  0.00    +0.000 A 
ATOM     13  C   UNL     1      44.979   1.858   8.891  0.00  0.00    +0.000 A 
ATOM     14  N   UNL     1      45.637   2.190   7.762  0.00  0.00    +0.000 NA
BRANCH   9  16
ATOM     15  C   UNL     1      46.970   2.831   5.604  0.00  0.00    +0.000 C 
ATOM     16  O   UNL     1      46.567   3.913   6.437  0.00  0.00    +0.000 OA
ENDBRANCH   9  16
ENDBRANCH   8  11
ENDBRANCH   2   8
ENDBRANCH   1   6
BRANCH   1  17
ATOM     17  N   UNL     1      47.467   4.807  15.861  0.00  0.00    +0.000 N 
ATOM     18  C   UNL     1      47.241   4.377  17.140  0.00  0.00    +0.000 C 
ATOM     19  O   UNL     1      46.667   3.318  17.380  0.00  0.00    +0.000 OA
ATOM     20  H   UNL     1      47.779   5.760  15.698  0.00  0.00    +0.000 HD
BRANCH  18  21
ATOM     21  C   UNL     1      47.781   5.217  18.214  0.00  0.00    +0.000 A 
ATOM     22  C   UNL     1      46.911   5.811  19.118  0.00  0.00    +0.000 A 
ATOM     23  S   UNL     1      47.698   6.726  20.321  0.00  0.00    +0.000 S 
ATOM     24  C   UNL     1      49.226   6.393  19.653  0.00  0.00    +0.000 A 
ATOM     25  N   UNL     1      50.355   6.911  20.205  0.00  0.00    +0.000 NA
ATOM     26  C   UNL     1      51.443   6.608  19.577  0.00  0.00    +0.000 A 
ATOM     27  N   UNL     1      51.505   5.825  18.456  0.00  0.00    +0.000 N 
ATOM     28  C   UNL     1      50.397   5.228  17.900  0.00  0.00    +0.000 A 
ATOM     29  O   UNL     1      50.502   4.442  16.962  0.00  0.00    +0.000 OA
ATOM     30  C   UNL     1      49.141   5.573  18.542  0.00  0.00    +0.000 A 
ATOM     31  H   UNL     1      52.394   5.605  18.028  0.00  0.00    +0.000 HD
ENDBRANCH  18  21
ENDBRANCH   1  17
TORSDOF 6
ENDMDL
MODEL 4
REMARK VINA RESULT:    -7.230      1.732      2.097
REMARK INTER + INTRA:         -10.963
REMARK INTER:                  -9.970
REMARK INTRA:                  -0.993
REMARK UNBOUND:                -1.197
REMARK  Name = 
REMARK  7 active torsions:
REMARK  status: ('A' for Active; 'I' for Inactive)
REMARK    1  A    between atoms: C_1  and  O_2
REMARK    2  A    between atoms: O_2  and  C_3
REMARK    3  A    between atoms: C_5  and  O_6
REMARK    4  A    between atoms: O_6  and  C_7
REMARK    5  A    between atoms: C_11  and  C_12
REMARK    6  A    between atoms: C_12  and  N_13
REMARK    7  A    between atoms: C_14  and  C_16
REMARK                            x       y       z     vdW  Elec       q    Type
REMARK                         _______ _______ _______ _____ _____    ______ ____
ROOT
ATOM      1  C   UNL     1      48.295   6.385  13.335  0.00  0.00    +0.000 C 
ENDROOT
BRANCH   1   6
ATOM      2  C   UNL     1      45.017   6.110  11.453  0.00  0.00    +0.000 A 
ATOM      3  C   UNL     1      44.564   7.410  11.631  0.00  0.00    +0.000 A 
ATOM      4  N   UNL     1      45.255   8.373  12.285  0.00  0.00    +0.000 NA
ATOM      5  C   UNL     1      46.451   8.014  12.804  0.00  0.00    +0.000 A 
ATOM      6  C   UNL     1      46.998   6.741  12.679  0.00  0.00    +0.000 A 
ATOM      7  C   UNL     1      46.289   5.799  11.929  0.00  0.00    +0.000 A 
BRANCH   2   8
ATOM      8  O   UNL     1      44.192   5.240  10.787  0.00  0.00    +0.000 OA
BRANCH   8  11
ATOM      9  C   UNL     1      45.922   3.680   7.938  0.00  0.00    +0.000 A 
ATOM     10  C   UNL     1      45.487   4.695   8.771  0.00  0.00    +0.000 A 
ATOM     11  C   UNL     1      44.725   4.345   9.885  0.00  0.00    +0.000 A 
ATOM     12  C   UNL     1      44.512   3.002  10.171  0.00  0.00    +0.000 A 
ATOM     13  C   UNL     1      45.019   2.059   9.293  0.00  0.00    +0.000 A 
ATOM     14  N   UNL     1      45.703   2.369   8.173  0.00  0.00    +0.000 NA
BRANCH   9  16
ATOM     15  C   UNL     1      46.804   2.996   5.883  0.00  0.00    +0.000 C 
ATOM     16  O   UNL     1      46.579   4.073   6.788  0.00  0.00    +0.000 OA
ENDBRANCH   9  16
ENDBRANCH   8  11
ENDBRANCH   2   8
ENDBRANCH   1   6
BRANCH   1  17
ATOM     17  N   UNL     1      48.191   6.413  14.767  0.00  0.00    +0.000 N 
ATOM     18  C   UNL     1      49.057   7.131  15.548  0.00  0.00    +0.000 C 
ATOM     19  O   UNL     1      49.963   7.805  15.066  0.00  0.00    +0.000 OA
ATOM     20  H   UNL     1      47.573   5.731  15.196  0.00  0.00    +0.000 HD
BRANCH  18  21
ATOM     21  C   UNL     1      48.803   7.105  16.991  0.00  0.00    +0.000 A 
ATOM     22  C   UNL     1      48.475   8.284  17.647  0.00  0.00    +0.000 A 
ATOM     23  S   UNL     1      48.177   8.079  19.312  0.00  0.00    +0.000 S 
ATOM     24  C   UNL     1      48.516   6.415  19.224  0.00  0.00    +0.000 A 
ATOM     25  N   UNL     1      48.468   5.634  20.336  0.00  0.00    +0.000 NA
ATOM     26  C   UNL     1      48.782   4.397  20.133  0.00  0.00    +0.000 A 
ATOM     27  N   UNL     1      49.128   3.869  18.919  0.00  0.00    +0.000 N 
ATOM     28  C   UNL     1      49.129   4.605  17.757  0.00  0.00    +0.000 A 
ATOM     29  O   UNL     1      49.335   4.074  16.669  0.00  0.00    +0.000 OA
ATOM     30  C   UNL     1      48.826   6.014  17.937  0.00  0.00    +0.000 A 
ATOM     31  H   UNL     1      49.337   2.884  18.825  0.00  0.00    +0.000 HD
ENDBRANCH  18  21
ENDBRANCH   1  17
TORSDOF 6
ENDMDL
MODEL 5
REMARK VINA RESULT:    -7.085      2.873      8.134
REMARK INTER + INTRA:         -10.766
REMARK INTER:                  -9.634
REMARK INTRA:                  -1.132
REMARK UNBOUND:                -1.197
REMARK  Name = 
REMARK  7 active torsions:
REMARK  status: ('A' for Active; 'I' for Inactive)
REMARK    1  A    between atoms: C_1  and  O_2
REMARK    2  A    between atoms: O_2  and  C_3
REMARK    3  A    between atoms: C_5  and  O_6
REMARK    4  A    between atoms: O_6  and  C_7
REMARK    5  A    between atoms: C_11  and  C_12
REMARK    6  A    between atoms: C_12  and  N_13
REMARK    7  A    between atoms: C_14  and  C_16
REMARK                            x       y       z     vdW  Elec       q    Type
REMARK                         _______ _______ _______ _____ _____    ______ ____
ROOT
ATOM      1  C   UNL     1      47.419   7.892  11.953  0.00  0.00    +0.000 C 
ENDROOT
BRANCH   1   6
ATOM      2  C   UNL     1      49.002   7.175  15.322  0.00  0.00    +0.000 A 
ATOM      3  C   UNL     1      50.300   7.573  15.032  0.00  0.00    +0.000 A 
ATOM      4  N   UNL     1      50.690   8.085  13.841  0.00  0.00    +0.000 NA
ATOM      5  C   UNL     1      49.739   8.187  12.885  0.00  0.00    +0.000 A 
ATOM      6  C   UNL     1      48.410   7.820  13.073  0.00  0.00    +0.000 A 
ATOM      7  C   UNL     1      48.033   7.371  14.341  0.00  0.00    +0.000 A 
BRANCH   2   8
ATOM      8  O   UNL     1      48.765   6.653  16.568  0.00  0.00    +0.000 OA
BRANCH   8  11
ATOM      9  C   UNL     1      50.158   3.357  17.428  0.00  0.00    +0.000 A 
ATOM     10  C   UNL     1      50.116   4.733  17.292  0.00  0.00    +0.000 A 
ATOM     11  C   UNL     1      48.948   5.306  16.793  0.00  0.00    +0.000 A 
ATOM     12  C   UNL     1      47.845   4.498  16.542  0.00  0.00    +0.000 A 
ATOM     13  C   UNL     1      47.976   3.135  16.743  0.00  0.00    +0.000 A 
ATOM     14  N   UNL     1      49.113   2.544  17.163  0.00  0.00    +0.000 NA
BRANCH   9  16
ATOM     15  C   UNL     1      51.516   1.454  17.441  0.00  0.00    +0.000 C 
ATOM     16  O   UNL     1      51.368   2.818  17.821  0.00  0.00    +0.000 OA
ENDBRANCH   9  16
ENDBRANCH   8  11
ENDBRANCH   2   8
ENDBRANCH   1   6
BRANCH   1  17
ATOM     17  N   UNL     1      46.733   6.644  11.771  0.00  0.00    +0.000 N 
ATOM     18  C   UNL     1      45.370   6.570  11.661  0.00  0.00    +0.000 C 
ATOM     19  O   UNL     1      44.658   7.570  11.697  0.00  0.00    +0.000 OA
ATOM     20  H   UNL     1      47.273   5.797  11.916  0.00  0.00    +0.000 HD
BRANCH  18  21
ATOM     21  C   UNL     1      44.809   5.236  11.430  0.00  0.00    +0.000 A 
ATOM     22  C   UNL     1      44.050   4.634  12.425  0.00  0.00    +0.000 A 
ATOM     23  S   UNL     1      43.443   3.103  11.988  0.00  0.00    +0.000 S 
ATOM     24  C   UNL     1      44.207   3.171  10.470  0.00  0.00    +0.000 A 
ATOM     25  N   UNL     1      44.107   2.138   9.593  0.00  0.00    +0.000 NA
ATOM     26  C   UNL     1      44.765   2.307   8.493  0.00  0.00    +0.000 A 
ATOM     27  N   UNL     1      45.502   3.419   8.188  0.00  0.00    +0.000 N 
ATOM     28  C   UNL     1      45.579   4.514   9.016  0.00  0.00    +0.000 A 
ATOM     29  O   UNL     1      46.157   5.539   8.662  0.00  0.00    +0.000 OA
ATOM     30  C   UNL     1      44.894   4.358  10.286  0.00  0.00    +0.000 A 
ATOM     31  H   UNL     1      45.971   3.498   7.296  0.00  0.00    +0.000 HD
ENDBRANCH  18  21
ENDBRANCH   1  17
TORSDOF 6
ENDMDL
MODEL 6
REMARK VINA RESULT:    -7.079      2.426      3.477
REMARK INTER + INTRA:         -10.759
REMARK INTER:                  -9.814
REMARK INTRA:                  -0.945
REMARK UNBOUND:                -1.197
REMARK  Name = 
REMARK  7 active torsions:
REMARK  status: ('A' for Active; 'I' for Inactive)
REMARK    1  A    between atoms: C_1  and  O_2
REMARK    2  A    between atoms: O_2  and  C_3
REMARK    3  A    between atoms: C_5  and  O_6
REMARK    4  A    between atoms: O_6  and  C_7
REMARK    5  A    between atoms: C_11  and  C_12
REMARK    6  A    between atoms: C_12  and  N_13
REMARK    7  A    between atoms: C_14  and  C_16
REMARK                            x       y       z     vdW  Elec       q    Type
REMARK                         _______ _______ _______ _____ _____    ______ ____
ROOT
ATOM      1  C   UNL     1      47.247   4.252  15.033  0.00  0.00    +0.000 C 
ENDROOT
BRANCH   1   6
ATOM      2  C   UNL     1      45.487   5.488  11.911  0.00  0.00    +0.000 A 
ATOM      3  C   UNL     1      46.066   6.747  11.829  0.00  0.00    +0.000 A 
ATOM      4  N   UNL     1      47.005   7.209  12.688  0.00  0.00    +0.000 NA
ATOM      5  C   UNL     1      47.370   6.379  13.691  0.00  0.00    +0.000 A 
ATOM      6  C   UNL     1      46.854   5.098  13.861  0.00  0.00    +0.000 A 
ATOM      7  C   UNL     1      45.947   4.630  12.907  0.00  0.00    +0.000 A 
BRANCH   2   8
ATOM      8  O   UNL     1      44.532   5.171  10.979  0.00  0.00    +0.000 OA
BRANCH   8  11
ATOM      9  C   UNL     1      45.746   3.632   7.865  0.00  0.00    +0.000 A 
ATOM     10  C   UNL     1      45.557   4.618   8.816  0.00  0.00    +0.000 A 
ATOM     11  C   UNL     1      44.833   4.293   9.961  0.00  0.00    +0.000 A 
ATOM     12  C   UNL     1      44.413   2.981  10.152  0.00  0.00    +0.000 A 
ATOM     13  C   UNL     1      44.681   2.058   9.157  0.00  0.00    +0.000 A 
ATOM     14  N   UNL     1      45.322   2.359   8.009  0.00  0.00    +0.000 NA
BRANCH   9  16
ATOM     15  C   UNL     1      46.906   2.924   5.962  0.00  0.00    +0.000 C 
ATOM     16  O   UNL     1      46.372   4.021   6.697  0.00  0.00    +0.000 OA
ENDBRANCH   9  16
ENDBRANCH   8  11
ENDBRANCH   2   8
ENDBRANCH   1   6
BRANCH   1  17
ATOM     17  N   UNL     1      47.212   4.995  16.260  0.00  0.00    +0.000 N 
ATOM     18  C   UNL     1      48.333   5.214  17.014  0.00  0.00    +0.000 C 
ATOM     19  O   UNL     1      49.438   4.798  16.674  0.00  0.00    +0.000 OA
ATOM     20  H   UNL     1      46.296   5.193  16.651  0.00  0.00    +0.000 HD
BRANCH  18  21
ATOM     21  C   UNL     1      48.157   6.030  18.219  0.00  0.00    +0.000 A 
ATOM     22  C   UNL     1      47.943   5.405  19.440  0.00  0.00    +0.000 A 
ATOM     23  S   UNL     1      47.793   6.491  20.745  0.00  0.00    +0.000 S 
ATOM     24  C   UNL     1      47.968   7.835  19.718  0.00  0.00    +0.000 A 
ATOM     25  N   UNL     1      47.908   9.100  20.211  0.00  0.00    +0.000 NA
ATOM     26  C   UNL     1      48.020  10.028  19.317  0.00  0.00    +0.000 A 
ATOM     27  N   UNL     1      48.199   9.803  17.979  0.00  0.00    +0.000 N 
ATOM     28  C   UNL     1      48.329   8.543  17.444  0.00  0.00    +0.000 A 
ATOM     29  O   UNL     1      48.600   8.381  16.257  0.00  0.00    +0.000 OA
ATOM     30  C   UNL     1      48.165   7.462  18.400  0.00  0.00    +0.000 A 
ATOM     31  H   UNL     1      48.306  10.575  17.336  0.00  0.00    +0.000 HD
ENDBRANCH  18  21
ENDBRANCH   1  17
TORSDOF 6
ENDMDL
MODEL 7
REMARK VINA RESULT:    -6.849      2.679      8.284
REMARK INTER + INTRA:         -10.448
REMARK INTER:                  -9.286
REMARK INTRA:                  -1.162
REMARK UNBOUND:                -1.197
REMARK  Name = 
REMARK  7 active torsions:
REMARK  status: ('A' for Active; 'I' for Inactive)
REMARK    1  A    between atoms: C_1  and  O_2
REMARK    2  A    between atoms: O_2  and  C_3
REMARK    3  A    between atoms: C_5  and  O_6
REMARK    4  A    between atoms: O_6  and  C_7
REMARK    5  A    between atoms: C_11  and  C_12
REMARK    6  A    between atoms: C_12  and  N_13
REMARK    7  A    between atoms: C_14  and  C_16
REMARK                            x       y       z     vdW  Elec       q    Type
REMARK                         _______ _______ _______ _____ _____    ______ ____
ROOT
ATOM      1  C   UNL     1      47.387   8.311  11.928  0.00  0.00    +0.000 C 
ENDROOT
BRANCH   1   6
ATOM      2  C   UNL     1      49.830   7.265  14.631  0.00  0.00    +0.000 A 
ATOM      3  C   UNL     1      50.815   8.217  14.402  0.00  0.00    +0.000 A 
ATOM      4  N   UNL     1      50.730   9.187  13.462  0.00  0.00    +0.000 NA
ATOM      5  C   UNL     1      49.613   9.196  12.700  0.00  0.00    +0.000 A 
ATOM      6  C   UNL     1      48.567   8.292  12.849  0.00  0.00    +0.000 A 
ATOM      7  C   UNL     1      48.659   7.356  13.883  0.00  0.00    +0.000 A 
BRANCH   2   8
ATOM      8  O   UNL     1      50.070   6.330  15.605  0.00  0.00    +0.000 OA
BRANCH   8  11
ATOM      9  C   UNL     1      47.461   4.927  17.788  0.00  0.00    +0.000 A 
ATOM     10  C   UNL     1      48.381   4.967  16.755  0.00  0.00    +0.000 A 
ATOM     11  C   UNL     1      49.141   6.125  16.601  0.00  0.00    +0.000 A 
ATOM     12  C   UNL     1      49.021   7.148  17.534  0.00  0.00    +0.000 A 
ATOM     13  C   UNL     1      48.096   6.998  18.553  0.00  0.00    +0.000 A 
ATOM     14  N   UNL     1      47.300   5.918  18.690  0.00  0.00    +0.000 NA
BRANCH   9  16
ATOM     15  C   UNL     1      47.347   2.605  17.541  0.00  0.00    +0.000 C 
ATOM     16  O   UNL     1      46.650   3.810  17.841  0.00  0.00    +0.000 OA
ENDBRANCH   9  16
ENDBRANCH   8  11
ENDBRANCH   2   8
ENDBRANCH   1   6
BRANCH   1  17
ATOM     17  N   UNL     1      46.705   7.048  11.913  0.00  0.00    +0.000 N 
ATOM     18  C   UNL     1      45.370   6.943  11.628  0.00  0.00    +0.000 C 
ATOM     19  O   UNL     1      44.683   7.923  11.353  0.00  0.00    +0.000 OA
ATOM     20  H   UNL     1      47.200   6.254  12.307  0.00  0.00    +0.000 HD
BRANCH  18  21
ATOM     21  C   UNL     1      44.816   5.585  11.602  0.00  0.00    +0.000 A 
ATOM     22  C   UNL     1      44.131   5.108  12.711  0.00  0.00    +0.000 A 
ATOM     23  S   UNL     1      43.522   3.529  12.509  0.00  0.00    +0.000 S 
ATOM     24  C   UNL     1      44.187   3.412  10.949  0.00  0.00    +0.000 A 
ATOM     25  N   UNL     1      44.049   2.277  10.215  0.00  0.00    +0.000 NA
ATOM     26  C   UNL     1      44.633   2.311   9.063  0.00  0.00    +0.000 A 
ATOM     27  N   UNL     1      45.331   3.381   8.574  0.00  0.00    +0.000 N 
ATOM     28  C   UNL     1      45.444   4.573   9.252  0.00  0.00    +0.000 A 
ATOM     29  O   UNL     1      45.982   5.549   8.737  0.00  0.00    +0.000 OA
ATOM     30  C   UNL     1      44.843   4.572  10.574  0.00  0.00    +0.000 A 
ATOM     31  H   UNL     1      45.742   3.351   7.651  0.00  0.00    +0.000 HD
ENDBRANCH  18  21
ENDBRANCH   1  17
TORSDOF 6
ENDMDL
MODEL 8
REMARK VINA RESULT:    -6.677      3.768      7.805
REMARK INTER + INTRA:         -10.216
REMARK INTER:                  -8.797
REMARK INTRA:                  -1.419
REMARK UNBOUND:                -1.197
REMARK  Name = 
REMARK  7 active torsions:
REMARK  status: ('A' for Active; 'I' for Inactive)
REMARK    1  A    between atoms: C_1  and  O_2
REMARK    2  A    between atoms: O_2  and  C_3
REMARK    3  A    between atoms: C_5  and  O_6
REMARK    4  A    between atoms: O_6  and  C_7
REMARK    5  A    between atoms: C_11  and  C_12
REMARK    6  A    between atoms: C_12  and  N_13
REMARK    7  A    between atoms: C_14  and  C_16
REMARK                            x       y       z     vdW  Elec       q    Type
REMARK                         _______ _______ _______ _____ _____    ______ ____
ROOT
ATOM      1  C   UNL     1      48.723   8.811  15.737  0.00  0.00    +0.000 C 
ENDROOT
BRANCH   1   6
ATOM      2  C   UNL     1      48.553   6.224  18.502  0.00  0.00    +0.000 A 
ATOM      3  C   UNL     1      49.040   7.000  19.545  0.00  0.00    +0.000 A 
ATOM      4  N   UNL     1      49.387   8.303  19.425  0.00  0.00    +0.000 NA
ATOM      5  C   UNL     1      49.258   8.854  18.197  0.00  0.00    +0.000 A 
ATOM      6  C   UNL     1      48.777   8.166  17.087  0.00  0.00    +0.000 A 
ATOM      7  C   UNL     1      48.357   6.847  17.272  0.00  0.00    +0.000 A 
BRANCH   2   8
ATOM      8  O   UNL     1      48.267   4.911  18.774  0.00  0.00    +0.000 OA
BRANCH   8  11
ATOM      9  C   UNL     1      50.752   2.572  17.398  0.00  0.00    +0.000 A 
ATOM     10  C   UNL     1      50.251   3.580  18.202  0.00  0.00    +0.000 A 
ATOM     11  C   UNL     1      48.904   3.911  18.072  0.00  0.00    +0.000 A 
ATOM     12  C   UNL     1      48.097   3.164  17.220  0.00  0.00    +0.000 A 
ATOM     13  C   UNL     1      48.687   2.152  16.484  0.00  0.00    +0.000 A 
ATOM     14  N   UNL     1      50.000   1.852  16.540  0.00  0.00    +0.000 NA
BRANCH   9  16
ATOM     15  C   UNL     1      52.442   0.965  17.572  0.00  0.00    +0.000 C 
ATOM     16  O   UNL     1      52.113   2.348  17.477  0.00  0.00    +0.000 OA
ENDBRANCH   9  16
ENDBRANCH   8  11
ENDBRANCH   2   8
ENDBRANCH   1   6
BRANCH   1  17
ATOM     17  N   UNL     1      47.681   8.253  14.923  0.00  0.00    +0.000 N 
ATOM     18  C   UNL     1      47.877   7.927  13.608  0.00  0.00    +0.000 C 
ATOM     19  O   UNL     1      48.963   8.079  13.054  0.00  0.00    +0.000 OA
ATOM     20  H   UNL     1      46.738   8.284  15.299  0.00  0.00    +0.000 HD
BRANCH  18  21
ATOM     21  C   UNL     1      46.738   7.322  12.912  0.00  0.00    +0.000 A 
ATOM     22  C   UNL     1      45.904   8.123  12.144  0.00  0.00    +0.000 A 
ATOM     23  S   UNL     1      44.651   7.264  11.374  0.00  0.00    +0.000 S 
ATOM     24  C   UNL     1      45.152   5.797  12.072  0.00  0.00    +0.000 A 
ATOM     25  N   UNL     1      44.473   4.644  11.835  0.00  0.00    +0.000 NA
ATOM     26  C   UNL     1      44.941   3.611  12.456  0.00  0.00    +0.000 A 
ATOM     27  N   UNL     1      46.032   3.626  13.282  0.00  0.00    +0.000 N 
ATOM     28  C   UNL     1      46.788   4.754  13.501  0.00  0.00    +0.000 A 
ATOM     29  O   UNL     1      47.825   4.707  14.158  0.00  0.00    +0.000 OA
ATOM     30  C   UNL     1      46.278   5.954  12.862  0.00  0.00    +0.000 A 
ATOM     31  H   UNL     1      46.362   2.775  13.717  0.00  0.00    +0.000 HD
ENDBRANCH  18  21
ENDBRANCH   1  17
TORSDOF 6
ENDMDL
MODEL 9
REMARK VINA RESULT:    -6.653      3.799      8.435
REMARK INTER + INTRA:         -10.183
REMARK INTER:                  -9.223
REMARK INTRA:                  -0.960
REMARK UNBOUND:                -1.197
REMARK  Name = 
REMARK  7 active torsions:
REMARK  status: ('A' for Active; 'I' for Inactive)
REMARK    1  A    between atoms: C_1  and  O_2
REMARK    2  A    between atoms: O_2  and  C_3
REMARK    3  A    between atoms: C_5  and  O_6
REMARK    4  A    between atoms: O_6  and  C_7
REMARK    5  A    between atoms: C_11  and  C_12
REMARK    6  A    between atoms: C_12  and  N_13
REMARK    7  A    between atoms: C_14  and  C_16
REMARK                            x       y       z     vdW  Elec       q    Type
REMARK                         _______ _______ _______ _____ _____    ______ ____
ROOT
ATOM      1  C   UNL     1      47.144   3.515  16.781  0.00  0.00    +0.000 C 
ENDROOT
BRANCH   1   6
ATOM      2  C   UNL     1      50.640   4.841  17.408  0.00  0.00    +0.000 A 
ATOM      3  C   UNL     1      51.319   3.631  17.445  0.00  0.00    +0.000 A 
ATOM      4  N   UNL     1      50.734   2.425  17.250  0.00  0.00    +0.000 NA
ATOM      5  C   UNL     1      49.401   2.427  17.025  0.00  0.00    +0.000 A 
ATOM      6  C   UNL     1      48.629   3.583  16.964  0.00  0.00    +0.000 A 
ATOM      7  C   UNL     1      49.283   4.810  17.093  0.00  0.00    +0.000 A 
BRANCH   2   8
ATOM      8  O   UNL     1      51.365   5.979  17.648  0.00  0.00    +0.000 OA
BRANCH   8  11
ATOM      9  C   UNL     1      53.825   7.192  15.195  0.00  0.00    +0.000 A 
ATOM     10  C   UNL     1      53.329   6.443  16.246  0.00  0.00    +0.000 A 
ATOM     11  C   UNL     1      51.995   6.623  16.605  0.00  0.00    +0.000 A 
ATOM     12  C   UNL     1      51.192   7.465  15.845  0.00  0.00    +0.000 A 
ATOM     13  C   UNL     1      51.774   8.145  14.789  0.00  0.00    +0.000 A 
ATOM     14  N   UNL     1      53.077   8.041  14.458  0.00  0.00    +0.000 NA
BRANCH   9  16
ATOM     15  C   UNL     1      55.510   5.840  14.299  0.00  0.00    +0.000 C 
ATOM     16  O   UNL     1      55.178   7.067  14.940  0.00  0.00    +0.000 OA
ENDBRANCH   9  16
ENDBRANCH   8  11
ENDBRANCH   2   8
ENDBRANCH   1   6
BRANCH   1  17
ATOM     17  N   UNL     1      46.688   4.449  15.791  0.00  0.00    +0.000 N 
ATOM     18  C   UNL     1      46.743   4.177  14.451  0.00  0.00    +0.000 C 
ATOM     19  O   UNL     1      47.171   3.110  14.020  0.00  0.00    +0.000 OA
ATOM     20  H   UNL     1      46.500   5.396  16.105  0.00  0.00    +0.000 HD
BRANCH  18  21
ATOM     21  C   UNL     1      46.199   5.204  13.557  0.00  0.00    +0.000 A 
ATOM     22  C   UNL     1      46.953   6.337  13.282  0.00  0.00    +0.000 A 
ATOM     23  S   UNL     1      46.195   7.414  12.201  0.00  0.00    +0.000 S 
ATOM     24  C   UNL     1      44.816   6.425  12.094  0.00  0.00    +0.000 A 
ATOM     25  N   UNL     1      43.753   6.792  11.331  0.00  0.00    +0.000 NA
ATOM     26  C   UNL     1      42.759   5.966  11.368  0.00  0.00    +0.000 A 
ATOM     27  N   UNL     1      42.738   4.803  12.088  0.00  0.00    +0.000 N 
ATOM     28  C   UNL     1      43.813   4.359  12.822  0.00  0.00    +0.000 A 
ATOM     29  O   UNL     1      43.801   3.258  13.366  0.00  0.00    +0.000 OA
ATOM     30  C   UNL     1      44.941   5.273  12.851  0.00  0.00    +0.000 A 
ATOM     31  H   UNL     1      41.937   4.187  12.052  0.00  0.00    +0.000 HD
ENDBRANCH  18  21
ENDBRANCH   1  17
TORSDOF 6
ENDMDL
