MODEL 1
REMARK VINA RESULT:    -7.996      0.000      0.000
REMARK INTER + INTRA:         -12.244
REMARK INTER:                 -11.034
REMARK INTRA:                  -1.209
REMARK UNBOUND:                -1.209
REMARK  Name = 
REMARK  11 active torsions:
REMARK  status: ('A' for Active; 'I' for Inactive)
REMARK    1  A    between atoms: C_1  and  C_2
REMARK    2  A    between atoms: C_2  and  C_3
REMARK    3  A    between atoms: C_5  and  N_6
REMARK    4  A    between atoms: N_6  and  C_7
REMARK    5  A    between atoms: C_9  and  C_10
REMARK    6  A    between atoms: C_10  and  C_11
REMARK    7  A    between atoms: C_10  and  C_12
REMARK    8  A    between atoms: C_10  and  C_13
REMARK    9  A    between atoms: C_13  and  N_14
REMARK   10  A    between atoms: C_18  and  S_19
REMARK   11  A    between atoms: S_19  and  N_20
REMARK                            x       y       z     vdW  Elec       q    Type
REMARK                         _______ _______ _______ _____ _____    ______ ____
ROOT
ATOM      1  C   UNL     1      43.638   5.702  11.930  0.00  0.00    +0.000 C 
ATOM      2  C   UNL     1      42.926   4.861  13.018  0.00  0.00    +0.000 C 
ATOM      3  C   UNL     1      42.967   7.100  11.884  0.00  0.00    +0.000 C 
ENDROOT
BRANCH   1   6
ATOM      4  C   UNL     1      47.029   5.208  13.699  0.00  0.00    +0.000 A 
ATOM      5  C   UNL     1      45.674   5.135  13.350  0.00  0.00    +0.000 A 
ATOM      6  C   UNL     1      45.123   5.888  12.293  0.00  0.00    +0.000 A 
ATOM      7  C   UNL     1      45.978   6.779  11.623  0.00  0.00    +0.000 A 
ATOM      8  C   UNL     1      47.324   6.870  11.969  0.00  0.00    +0.000 A 
ATOM      9  F   UNL     1      48.114   7.727  11.305  0.00  0.00    +0.000 F 
ATOM     10  C   UNL     1      47.849   6.088  12.987  0.00  0.00    +0.000 A 
ATOM     11  F   UNL     1      49.149   6.200  13.308  0.00  0.00    +0.000 F 
BRANCH   4  12
ATOM     12  N   UNL     1      47.552   4.461  14.768  0.00  0.00    +0.000 N 
ATOM     13  H   UNL     1      47.678   3.473  14.559  0.00  0.00    +0.000 HD
BRANCH  12  18
ATOM     14  C   UNL     1      48.794   3.799  19.083  0.00  0.00    +0.000 C 
ATOM     15  C   UNL     1      48.572   3.744  17.577  0.00  0.00    +0.000 C 
ATOM     16  C   UNL     1      49.292   2.536  16.959  0.00  0.00    +0.000 C 
ATOM     17  C   UNL     1      48.823   5.075  16.819  0.00  0.00    +0.000 C 
ATOM     18  C   UNL     1      47.557   4.822  16.089  0.00  0.00    +0.000 C 
ATOM     19  C   UNL     1      47.094   3.884  17.129  0.00  0.00    +0.000 C 
ENDBRANCH  12  18
ENDBRANCH   4  12
ENDBRANCH   1   6
BRANCH   1  20
ATOM     20  C   UNL     1      43.371   5.049  10.539  0.00  0.00    +0.000 C 
BRANCH  20  21
ATOM     21  N   UNL     1      43.691   3.615  10.505  0.00  0.00    +0.000 N 
ATOM     22  C   UNL     1      44.599   3.275   9.488  0.00  0.00    +0.000 A 
ATOM     23  C   UNL     1      44.997   1.945   9.372  0.00  0.00    +0.000 A 
ATOM     24  C   UNL     1      45.881   1.585   8.353  0.00  0.00    +0.000 A 
ATOM     25  C   UNL     1      46.351   2.571   7.495  0.00  0.00    +0.000 A 
ATOM     26  C   UNL     1      45.926   3.870   7.683  0.00  0.00    +0.000 A 
ATOM     27  N   UNL     1      45.075   4.234   8.667  0.00  0.00    +0.000 NA
ATOM     28  H   UNL     1      42.868   3.026  10.412  0.00  0.00    +0.000 HD
BRANCH  25  29
ATOM     29  S   UNL     1      47.388   2.204   6.139  0.00  0.00    +0.000 S 
ATOM     30  O   UNL     1      47.637   0.781   6.109  0.00  0.00    +0.000 OA
ATOM     31  O   UNL     1      46.931   2.932   4.979  0.00  0.00    +0.000 OA
BRANCH  29  32
ATOM     32  N   UNL     1      48.836   2.915   6.591  0.00  0.00    +0.000 NA
ATOM     33  H   UNL     1      48.739   3.338   7.514  0.00  0.00    +0.000 HD
ATOM     34  H   UNL     1      49.596   2.235   6.529  0.00  0.00    +0.000 HD
ENDBRANCH  29  32
ENDBRANCH  25  29
ENDBRANCH  20  21
ENDBRANCH   1  20
TORSDOF 7
ENDMDL
MODEL 2
REMARK VINA RESULT:    -7.503      3.242      4.296
REMARK INTER + INTRA:         -11.563
REMARK INTER:                 -10.534
REMARK INTRA:                  -1.029
REMARK UNBOUND:                -1.209
REMARK  Name = 
REMARK  11 active torsions:
REMARK  status: ('A' for Active; 'I' for Inactive)
REMARK    1  A    between atoms: C_1  and  C_2
REMARK    2  A    between atoms: C_2  and  C_3
REMARK    3  A    between atoms: C_5  and  N_6
REMARK    4  A    between atoms: N_6  and  C_7
REMARK    5  A    between atoms: C_9  and  C_10
REMARK    6  A    between atoms: C_10  and  C_11
REMARK    7  A    between atoms: C_10  and  C_12
REMARK    8  A    between atoms: C_10  and  C_13
REMARK    9  A    between atoms: C_13  and  N_14
REMARK   10  A    between atoms: C_18  and  S_19
REMARK   11  A    between atoms: S_19  and  N_20
REMARK                            x       y       z     vdW  Elec       q    Type
REMARK                         _______ _______ _______ _____ _____    ______ ____
ROOT
ATOM      1  C   UNL     1      44.131   5.692  11.985  0.00  0.00    +0.000 C 
ATOM      2  C   UNL     1      45.347   4.814  12.370  0.00  0.00    +0.000 C 
ATOM      3  C   UNL     1      43.039   5.507  13.070  0.00  0.00    +0.000 C 
ENDROOT
BRANCH   1   6
ATOM      4  C   UNL     1      46.078   8.935  12.736  0.00  0.00    +0.000 A 
ATOM      5  C   UNL     1      45.613   7.614  12.755  0.00  0.00    +0.000 A 
ATOM      6  C   UNL     1      44.539   7.176  11.954  0.00  0.00    +0.000 A 
ATOM      7  C   UNL     1      43.895   8.140  11.160  0.00  0.00    +0.000 A 
ATOM      8  C   UNL     1      44.339   9.460  11.141  0.00  0.00    +0.000 A 
ATOM      9  F   UNL     1      43.703  10.353  10.368  0.00  0.00    +0.000 F 
ATOM     10  C   UNL     1      45.423   9.854  11.910  0.00  0.00    +0.000 A 
ATOM     11  F   UNL     1      45.827  11.135  11.882  0.00  0.00    +0.000 F 
BRANCH   4  12
ATOM     12  N   UNL     1      47.139   9.351  13.558  0.00  0.00    +0.000 N 
ATOM     13  H   UNL     1      46.926  10.169  14.125  0.00  0.00    +0.000 HD
BRANCH  12  18
ATOM     14  C   UNL     1      51.107   9.665  11.377  0.00  0.00    +0.000 C 
ATOM     15  C   UNL     1      49.673   9.790  11.876  0.00  0.00    +0.000 C 
ATOM     16  C   UNL     1      48.866  10.751  10.991  0.00  0.00    +0.000 C 
ATOM     17  C   UNL     1      49.519  10.064  13.396  0.00  0.00    +0.000 C 
ATOM     18  C   UNL     1      48.460   9.025  13.409  0.00  0.00    +0.000 C 
ATOM     19  C   UNL     1      48.956   8.442  12.147  0.00  0.00    +0.000 C 
ENDBRANCH  12  18
ENDBRANCH   4  12
ENDBRANCH   1   6
BRANCH   1  20
ATOM     20  C   UNL     1      43.520   5.143  10.659  0.00  0.00    +0.000 C 
BRANCH  20  21
ATOM     21  N   UNL     1      43.684   3.691  10.505  0.00  0.00    +0.000 N 
ATOM     22  C   UNL     1      44.603   3.341   9.502  0.00  0.00    +0.000 A 
ATOM     23  C   UNL     1      44.861   1.990   9.280  0.00  0.00    +0.000 A 
ATOM     24  C   UNL     1      45.754   1.622   8.272  0.00  0.00    +0.000 A 
ATOM     25  C   UNL     1      46.373   2.620   7.530  0.00  0.00    +0.000 A 
ATOM     26  C   UNL     1      46.082   3.937   7.819  0.00  0.00    +0.000 A 
ATOM     27  N   UNL     1      45.223   4.308   8.795  0.00  0.00    +0.000 NA
ATOM     28  H   UNL     1      42.809   3.209  10.323  0.00  0.00    +0.000 HD
BRANCH  25  29
ATOM     29  S   UNL     1      47.435   2.259   6.192  0.00  0.00    +0.000 S 
ATOM     30  O   UNL     1      47.709   0.840   6.179  0.00  0.00    +0.000 OA
ATOM     31  O   UNL     1      46.982   2.968   5.019  0.00  0.00    +0.000 OA
BRANCH  29  32
ATOM     32  N   UNL     1      48.864   2.999   6.658  0.00  0.00    +0.000 NA
ATOM     33  H   UNL     1      49.161   3.659   5.939  0.00  0.00    +0.000 HD
ATOM     34  H   UNL     1      48.757   3.419   7.582  0.00  0.00    +0.000 HD
ENDBRANCH  29  32
ENDBRANCH  25  29
ENDBRANCH  20  21
ENDBRANCH   1  20
TORSDOF 7
ENDMDL
MODEL 3
REMARK VINA RESULT:    -7.423      5.307      9.022
REMARK INTER + INTRA:         -11.453
REMARK INTER:                 -10.327
REMARK INTRA:                  -1.126
REMARK UNBOUND:                -1.209
REMARK  Name = 
REMARK  11 active torsions:
REMARK  status: ('A' for Active; 'I' for Inactive)
REMARK    1  A    between atoms: C_1  and  C_2
REMARK    2  A    between atoms: C_2  and  C_3
REMARK    3  A    between atoms: C_5  and  N_6
REMARK    4  A    between atoms: N_6  and  C_7
REMARK    5  A    between atoms: C_9  and  C_10
REMARK    6  A    between atoms: C_10  and  C_11
REMARK    7  A    between atoms: C_10  and  C_12
REMARK    8  A    between atoms: C_10  and  C_13
REMARK    9  A    between atoms: C_13  and  N_14
REMARK   10  A    between atoms: C_18  and  S_19
REMARK   11  A    between atoms: S_19  and  N_20
REMARK                            x       y       z     vdW  Elec       q    Type
REMARK                         _______ _______ _______ _____ _____    ______ ____
ROOT
ATOM      1  C   UNL     1      47.015   6.853  12.547  0.00  0.00    +0.000 C 
ATOM      2  C   UNL     1      47.746   7.239  11.239  0.00  0.00    +0.000 C 
ATOM      3  C   UNL     1      46.488   8.153  13.208  0.00  0.00    +0.000 C 
ENDROOT
BRANCH   1   6
ATOM      4  C   UNL     1      44.539   4.676  10.546  0.00  0.00    +0.000 A 
ATOM      5  C   UNL     1      45.578   5.546  10.900  0.00  0.00    +0.000 A 
ATOM      6  C   UNL     1      45.811   5.946  12.232  0.00  0.00    +0.000 A 
ATOM      7  C   UNL     1      44.913   5.484  13.209  0.00  0.00    +0.000 A 
ATOM      8  C   UNL     1      43.868   4.628  12.868  0.00  0.00    +0.000 A 
ATOM      9  F   UNL     1      43.033   4.202  13.827  0.00  0.00    +0.000 F 
ATOM     10  C   UNL     1      43.687   4.219  11.556  0.00  0.00    +0.000 A 
ATOM     11  F   UNL     1      42.666   3.401  11.251  0.00  0.00    +0.000 F 
BRANCH   4  12
ATOM     12  N   UNL     1      44.316   4.305   9.209  0.00  0.00    +0.000 N 
ATOM     13  H   UNL     1      43.632   4.886   8.729  0.00  0.00    +0.000 HD
BRANCH  12  18
ATOM     14  C   UNL     1      46.994   1.648   6.687  0.00  0.00    +0.000 C 
ATOM     15  C   UNL     1      46.340   2.774   7.476  0.00  0.00    +0.000 C 
ATOM     16  C   UNL     1      47.174   4.061   7.392  0.00  0.00    +0.000 C 
ATOM     17  C   UNL     1      45.902   2.408   8.919  0.00  0.00    +0.000 C 
ATOM     18  C   UNL     1      44.620   3.100   8.637  0.00  0.00    +0.000 C 
ATOM     19  C   UNL     1      44.832   2.988   7.181  0.00  0.00    +0.000 C 
ENDBRANCH  12  18
ENDBRANCH   4  12
ENDBRANCH   1   6
BRANCH   1  20
ATOM     20  C   UNL     1      48.056   6.253  13.542  0.00  0.00    +0.000 C 
BRANCH  20  21
ATOM     21  N   UNL     1      48.541   7.229  14.528  0.00  0.00    +0.000 N 
ATOM     22  C   UNL     1      48.659   6.697  15.822  0.00  0.00    +0.000 A 
ATOM     23  C   UNL     1      49.134   7.523  16.839  0.00  0.00    +0.000 A 
ATOM     24  C   UNL     1      49.236   7.018  18.136  0.00  0.00    +0.000 A 
ATOM     25  C   UNL     1      48.875   5.697  18.370  0.00  0.00    +0.000 A 
ATOM     26  C   UNL     1      48.430   4.934  17.310  0.00  0.00    +0.000 A 
ATOM     27  N   UNL     1      48.331   5.408  16.049  0.00  0.00    +0.000 NA
ATOM     28  H   UNL     1      47.968   8.066  14.574  0.00  0.00    +0.000 HD
BRANCH  25  29
ATOM     29  S   UNL     1      48.883   5.003  19.972  0.00  0.00    +0.000 S 
ATOM     30  O   UNL     1      50.251   4.866  20.418  0.00  0.00    +0.000 OA
ATOM     31  O   UNL     1      47.871   5.647  20.776  0.00  0.00    +0.000 OA
BRANCH  29  32
ATOM     32  N   UNL     1      48.332   3.446  19.692  0.00  0.00    +0.000 NA
ATOM     33  H   UNL     1      48.386   2.901  20.553  0.00  0.00    +0.000 HD
ATOM     34  H   UNL     1      47.397   3.473  19.282  0.00  0.00    +0.000 HD
ENDBRANCH  29  32
ENDBRANCH  25  29
ENDBRANCH  20  21
ENDBRANCH   1  20
TORSDOF 7
ENDMDL
MODEL 4
REMARK VINA RESULT:    -7.206      4.721      7.980
REMARK INTER + INTRA:         -11.154
REMARK INTER:                  -9.845
REMARK INTRA:                  -1.309
REMARK UNBOUND:                -1.209
REMARK  Name = 
REMARK  11 active torsions:
REMARK  status: ('A' for Active; 'I' for Inactive)
REMARK    1  A    between atoms: C_1  and  C_2
REMARK    2  A    between atoms: C_2  and  C_3
REMARK    3  A    between atoms: C_5  and  N_6
REMARK    4  A    between atoms: N_6  and  C_7
REMARK    5  A    between atoms: C_9  and  C_10
REMARK    6  A    between atoms: C_10  and  C_11
REMARK    7  A    between atoms: C_10  and  C_12
REMARK    8  A    between atoms: C_10  and  C_13
REMARK    9  A    between atoms: C_13  and  N_14
REMARK   10  A    between atoms: C_18  and  S_19
REMARK   11  A    between atoms: S_19  and  N_20
REMARK                            x       y       z     vdW  Elec       q    Type
REMARK                         _______ _______ _______ _____ _____    ______ ____
ROOT
ATOM      1  C   UNL     1      48.628   9.374  12.429  0.00  0.00    +0.000 C 
ATOM      2  C   UNL     1      49.457  10.096  11.339  0.00  0.00    +0.000 C 
ATOM      3  C   UNL     1      48.776  10.167  13.753  0.00  0.00    +0.000 C 
ENDROOT
BRANCH   1   6
ATOM      4  C   UNL     1      45.034   8.084  11.886  0.00  0.00    +0.000 A 
ATOM      5  C   UNL     1      46.404   8.161  12.167  0.00  0.00    +0.000 A 
ATOM      6  C   UNL     1      47.139   9.357  12.037  0.00  0.00    +0.000 A 
ATOM      7  C   UNL     1      46.454  10.482  11.548  0.00  0.00    +0.000 A 
ATOM      8  C   UNL     1      45.095  10.417  11.252  0.00  0.00    +0.000 A 
ATOM      9  F   UNL     1      44.471  11.511  10.792  0.00  0.00    +0.000 F 
ATOM     10  C   UNL     1      44.388   9.237  11.428  0.00  0.00    +0.000 A 
ATOM     11  F   UNL     1      43.079   9.196  11.127  0.00  0.00    +0.000 F 
BRANCH   4  12
ATOM     12  N   UNL     1      44.327   6.876  12.006  0.00  0.00    +0.000 N 
ATOM     13  H   UNL     1      44.285   6.515  12.956  0.00  0.00    +0.000 HD
BRANCH  12  18
ATOM     14  C   UNL     1      44.420   2.733  10.157  0.00  0.00    +0.000 C 
ATOM     15  C   UNL     1      44.542   3.966  11.042  0.00  0.00    +0.000 C 
ATOM     16  C   UNL     1      45.262   3.631  12.356  0.00  0.00    +0.000 C 
ATOM     17  C   UNL     1      43.232   4.776  11.239  0.00  0.00    +0.000 C 
ATOM     18  C   UNL     1      44.030   6.002  10.995  0.00  0.00    +0.000 C 
ATOM     19  C   UNL     1      45.097   5.228  10.331  0.00  0.00    +0.000 C 
ENDBRANCH  12  18
ENDBRANCH   4  12
ENDBRANCH   1   6
BRANCH   1  20
ATOM     20  C   UNL     1      49.261   7.973  12.691  0.00  0.00    +0.000 C 
BRANCH  20  21
ATOM     21  N   UNL     1      49.971   7.892  13.976  0.00  0.00    +0.000 N 
ATOM     22  C   UNL     1      49.403   6.964  14.864  0.00  0.00    +0.000 A 
ATOM     23  C   UNL     1      50.004   6.781  16.107  0.00  0.00    +0.000 A 
ATOM     24  C   UNL     1      49.440   5.880  17.012  0.00  0.00    +0.000 A 
ATOM     25  C   UNL     1      48.302   5.179  16.636  0.00  0.00    +0.000 A 
ATOM     26  C   UNL     1      47.772   5.399  15.382  0.00  0.00    +0.000 A 
ATOM     27  N   UNL     1      48.310   6.264  14.494  0.00  0.00    +0.000 NA
ATOM     28  H   UNL     1      50.042   8.788  14.448  0.00  0.00    +0.000 HD
BRANCH  25  29
ATOM     29  S   UNL     1      47.474   4.098  17.730  0.00  0.00    +0.000 S 
ATOM     30  O   UNL     1      46.544   3.288  16.977  0.00  0.00    +0.000 OA
ATOM     31  O   UNL     1      48.431   3.523  18.647  0.00  0.00    +0.000 OA
BRANCH  29  32
ATOM     32  N   UNL     1      46.539   5.151  18.637  0.00  0.00    +0.000 NA
ATOM     33  H   UNL     1      47.141   5.813  19.128  0.00  0.00    +0.000 HD
ATOM     34  H   UNL     1      45.836   5.597  18.044  0.00  0.00    +0.000 HD
ENDBRANCH  29  32
ENDBRANCH  25  29
ENDBRANCH  20  21
ENDBRANCH   1  20
TORSDOF 7
ENDMDL
MODEL 5
REMARK VINA RESULT:    -7.166      2.543      3.104
REMARK INTER + INTRA:         -11.098
REMARK INTER:                 -10.308
REMARK INTRA:                  -0.791
REMARK UNBOUND:                -1.209
REMARK  Name = 
REMARK  11 active torsions:
REMARK  status: ('A' for Active; 'I' for Inactive)
REMARK    1  A    between atoms: C_1  and  C_2
REMARK    2  A    between atoms: C_2  and  C_3
REMARK    3  A    between atoms: C_5  and  N_6
REMARK    4  A    between atoms: N_6  and  C_7
REMARK    5  A    between atoms: C_9  and  C_10
REMARK    6  A    between atoms: C_10  and  C_11
REMARK    7  A    between atoms: C_10  and  C_12
REMARK    8  A    between atoms: C_10  and  C_13
REMARK    9  A    between atoms: C_13  and  N_14
REMARK   10  A    between atoms: C_18  and  S_19
REMARK   11  A    between atoms: S_19  and  N_20
REMARK                            x       y       z     vdW  Elec       q    Type
REMARK                         _______ _______ _______ _____ _____    ______ ____
ROOT
ATOM      1  C   UNL     1      44.154   5.483  12.100  0.00  0.00    +0.000 C 
ATOM      2  C   UNL     1      45.298   4.522  12.505  0.00  0.00    +0.000 C 
ATOM      3  C   UNL     1      43.015   5.344  13.143  0.00  0.00    +0.000 C 
ENDROOT
BRANCH   1   6
ATOM      4  C   UNL     1      46.267   8.581  13.007  0.00  0.00    +0.000 A 
ATOM      5  C   UNL     1      45.719   7.292  12.976  0.00  0.00    +0.000 A 
ATOM      6  C   UNL     1      44.655   6.939  12.121  0.00  0.00    +0.000 A 
ATOM      7  C   UNL     1      44.107   7.958  11.323  0.00  0.00    +0.000 A 
ATOM      8  C   UNL     1      44.634   9.248  11.353  0.00  0.00    +0.000 A 
ATOM      9  F   UNL     1      44.090  10.194  10.575  0.00  0.00    +0.000 F 
ATOM     10  C   UNL     1      45.706   9.556  12.176  0.00  0.00    +0.000 A 
ATOM     11  F   UNL     1      46.191  10.809  12.193  0.00  0.00    +0.000 F 
BRANCH   4  12
ATOM     12  N   UNL     1      47.315   8.912  13.881  0.00  0.00    +0.000 N 
ATOM     13  H   UNL     1      47.165   9.777  14.396  0.00  0.00    +0.000 HD
BRANCH  12  18
ATOM     14  C   UNL     1      51.038   7.296  15.912  0.00  0.00    +0.000 C 
ATOM     15  C   UNL     1      49.661   7.838  15.550  0.00  0.00    +0.000 C 
ATOM     16  C   UNL     1      48.796   8.023  16.804  0.00  0.00    +0.000 C 
ATOM     17  C   UNL     1      48.936   7.095  14.396  0.00  0.00    +0.000 C 
ATOM     18  C   UNL     1      48.594   8.427  13.840  0.00  0.00    +0.000 C 
ATOM     19  C   UNL     1      49.672   9.074  14.613  0.00  0.00    +0.000 C 
ENDBRANCH  12  18
ENDBRANCH   4  12
ENDBRANCH   1   6
BRANCH   1  20
ATOM     20  C   UNL     1      43.558   5.005  10.741  0.00  0.00    +0.000 C 
BRANCH  20  21
ATOM     21  N   UNL     1      43.688   3.556  10.532  0.00  0.00    +0.000 N 
ATOM     22  C   UNL     1      44.611   3.222   9.528  0.00  0.00    +0.000 A 
ATOM     23  C   UNL     1      44.838   1.875   9.256  0.00  0.00    +0.000 A 
ATOM     24  C   UNL     1      45.735   1.525   8.246  0.00  0.00    +0.000 A 
ATOM     25  C   UNL     1      46.389   2.535   7.552  0.00  0.00    +0.000 A 
ATOM     26  C   UNL     1      46.128   3.846   7.889  0.00  0.00    +0.000 A 
ATOM     27  N   UNL     1      45.265   4.200   8.868  0.00  0.00    +0.000 NA
ATOM     28  H   UNL     1      42.803   3.104  10.320  0.00  0.00    +0.000 HD
BRANCH  25  29
ATOM     29  S   UNL     1      47.461   2.199   6.214  0.00  0.00    +0.000 S 
ATOM     30  O   UNL     1      47.809   0.797   6.232  0.00  0.00    +0.000 OA
ATOM     31  O   UNL     1      46.963   2.855   5.028  0.00  0.00    +0.000 OA
BRANCH  29  32
ATOM     32  N   UNL     1      48.851   3.025   6.651  0.00  0.00    +0.000 NA
ATOM     33  H   UNL     1      49.255   3.479   5.831  0.00  0.00    +0.000 HD
ATOM     34  H   UNL     1      48.651   3.667   7.420  0.00  0.00    +0.000 HD
ENDBRANCH  29  32
ENDBRANCH  25  29
ENDBRANCH  20  21
ENDBRANCH   1  20
TORSDOF 7
ENDMDL
MODEL 6
REMARK VINA RESULT:    -6.792      3.235      6.229
REMARK INTER + INTRA:         -10.583
REMARK INTER:                  -9.531
REMARK INTRA:                  -1.052
REMARK UNBOUND:                -1.209
REMARK  Name = 
REMARK  11 active torsions:
REMARK  status: ('A' for Active; 'I' for Inactive)
REMARK    1  A    between atoms: C_1  and  C_2
REMARK    2  A    between atoms: C_2  and  C_3
REMARK    3  A    between atoms: C_5  and  N_6
REMARK    4  A    between atoms: N_6  and  C_7
REMARK    5  A    between atoms: C_9  and  C_10
REMARK    6  A    between atoms: C_10  and  C_11
REMARK    7  A    between atoms: C_10  and  C_12
REMARK    8  A    between atoms: C_10  and  C_13
REMARK    9  A    between atoms: C_13  and  N_14
REMARK   10  A    between atoms: C_18  and  S_19
REMARK   11  A    between atoms: S_19  and  N_20
REMARK                            x       y       z     vdW  Elec       q    Type
REMARK                         _______ _______ _______ _____ _____    ______ ____
ROOT
ATOM      1  C   UNL     1      48.027   4.234  17.400  0.00  0.00    +0.000 C 
ATOM      2  C   UNL     1      48.079   2.888  18.162  0.00  0.00    +0.000 C 
ATOM      3  C   UNL     1      47.220   5.243  18.257  0.00  0.00    +0.000 C 
ENDROOT
BRANCH   1   6
ATOM      4  C   UNL     1      50.882   6.656  16.472  0.00  0.00    +0.000 A 
ATOM      5  C   UNL     1      49.623   6.061  16.625  0.00  0.00    +0.000 A 
ATOM      6  C   UNL     1      49.450   4.790  17.209  0.00  0.00    +0.000 A 
ATOM      7  C   UNL     1      50.610   4.094  17.589  0.00  0.00    +0.000 A 
ATOM      8  C   UNL     1      51.870   4.668  17.431  0.00  0.00    +0.000 A 
ATOM      9  F   UNL     1      52.956   3.978  17.809  0.00  0.00    +0.000 F 
ATOM     10  C   UNL     1      52.006   5.937  16.889  0.00  0.00    +0.000 A 
ATOM     11  F   UNL     1      53.232   6.467  16.739  0.00  0.00    +0.000 F 
BRANCH   4  12
ATOM     12  N   UNL     1      51.030   7.917  15.870  0.00  0.00    +0.000 N 
ATOM     13  H   UNL     1      50.963   8.695  16.521  0.00  0.00    +0.000 HD
BRANCH  12  18
ATOM     14  C   UNL     1      48.538   9.235  12.314  0.00  0.00    +0.000 C 
ATOM     15  C   UNL     1      49.085   8.853  13.683  0.00  0.00    +0.000 C 
ATOM     16  C   UNL     1      47.995   8.960  14.759  0.00  0.00    +0.000 C 
ATOM     17  C   UNL     1      50.422   9.535  14.079  0.00  0.00    +0.000 C 
ATOM     18  C   UNL     1      50.889   8.205  14.539  0.00  0.00    +0.000 C 
ATOM     19  C   UNL     1      49.871   7.517  13.722  0.00  0.00    +0.000 C 
ENDBRANCH  12  18
ENDBRANCH   4  12
ENDBRANCH   1   6
BRANCH   1  20
ATOM     20  C   UNL     1      47.211   4.033  16.086  0.00  0.00    +0.000 C 
BRANCH  20  21
ATOM     21  N   UNL     1      47.181   5.231  15.236  0.00  0.00    +0.000 N 
ATOM     22  C   UNL     1      46.551   5.016  13.999  0.00  0.00    +0.000 A 
ATOM     23  C   UNL     1      46.440   6.087  13.116  0.00  0.00    +0.000 A 
ATOM     24  C   UNL     1      45.837   5.887  11.873  0.00  0.00    +0.000 A 
ATOM     25  C   UNL     1      45.350   4.625  11.561  0.00  0.00    +0.000 A 
ATOM     26  C   UNL     1      45.480   3.616  12.494  0.00  0.00    +0.000 A 
ATOM     27  N   UNL     1      46.056   3.797  13.702  0.00  0.00    +0.000 NA
ATOM     28  H   UNL     1      48.103   5.620  15.065  0.00  0.00    +0.000 HD
BRANCH  25  29
ATOM     29  S   UNL     1      44.662   4.255  10.000  0.00  0.00    +0.000 S 
ATOM     30  O   UNL     1      44.959   2.880   9.668  0.00  0.00    +0.000 OA
ATOM     31  O   UNL     1      43.323   4.793   9.929  0.00  0.00    +0.000 OA
BRANCH  29  32
ATOM     32  N   UNL     1      45.591   5.190   8.966  0.00  0.00    +0.000 NA
ATOM     33  H   UNL     1      46.334   4.620   8.559  0.00  0.00    +0.000 HD
ATOM     34  H   UNL     1      44.995   5.645   8.272  0.00  0.00    +0.000 HD
ENDBRANCH  29  32
ENDBRANCH  25  29
ENDBRANCH  20  21
ENDBRANCH   1  20
TORSDOF 7
ENDMDL
MODEL 7
REMARK VINA RESULT:    -6.710      3.888      6.591
REMARK INTER + INTRA:         -10.469
REMARK INTER:                  -9.293
REMARK INTRA:                  -1.177
REMARK UNBOUND:                -1.209
REMARK  Name = 
REMARK  11 active torsions:
REMARK  status: ('A' for Active; 'I' for Inactive)
REMARK    1  A    between atoms: C_1  and  C_2
REMARK    2  A    between atoms: C_2  and  C_3
REMARK    3  A    between atoms: C_5  and  N_6
REMARK    4  A    between atoms: N_6  and  C_7
REMARK    5  A    between atoms: C_9  and  C_10
REMARK    6  A    between atoms: C_10  and  C_11
REMARK    7  A    between atoms: C_10  and  C_12
REMARK    8  A    between atoms: C_10  and  C_13
REMARK    9  A    between atoms: C_13  and  N_14
REMARK   10  A    between atoms: C_18  and  S_19
REMARK   11  A    between atoms: S_19  and  N_20
REMARK                            x       y       z     vdW  Elec       q    Type
REMARK                         _______ _______ _______ _____ _____    ______ ____
ROOT
ATOM      1  C   UNL     1      48.129   3.692  17.230  0.00  0.00    +0.000 C 
ATOM      2  C   UNL     1      47.241   2.802  18.133  0.00  0.00    +0.000 C 
ATOM      3  C   UNL     1      47.898   5.172  17.632  0.00  0.00    +0.000 C 
ENDROOT
BRANCH   1   6
ATOM      4  C   UNL     1      51.819   4.081  18.281  0.00  0.00    +0.000 A 
ATOM      5  C   UNL     1      50.471   4.334  17.997  0.00  0.00    +0.000 A 
ATOM      6  C   UNL     1      49.615   3.355  17.451  0.00  0.00    +0.000 A 
ATOM      7  C   UNL     1      50.181   2.108  17.138  0.00  0.00    +0.000 A 
ATOM      8  C   UNL     1      51.524   1.848  17.404  0.00  0.00    +0.000 A 
ATOM      9  F   UNL     1      52.030   0.645  17.097  0.00  0.00    +0.000 F 
ATOM     10  C   UNL     1      52.333   2.817  17.978  0.00  0.00    +0.000 A 
ATOM     11  F   UNL     1      53.627   2.545  18.216  0.00  0.00    +0.000 F 
BRANCH   4  12
ATOM     12  N   UNL     1      52.657   5.078  18.808  0.00  0.00    +0.000 N 
ATOM     13  H   UNL     1      52.355   5.437  19.711  0.00  0.00    +0.000 HD
BRANCH  12  18
ATOM     14  C   UNL     1      53.684   8.369  15.857  0.00  0.00    +0.000 C 
ATOM     15  C   UNL     1      53.016   7.368  16.790  0.00  0.00    +0.000 C 
ATOM     16  C   UNL     1      51.488   7.510  16.747  0.00  0.00    +0.000 C 
ATOM     17  C   UNL     1      53.597   7.309  18.228  0.00  0.00    +0.000 C 
ATOM     18  C   UNL     1      53.564   5.831  18.112  0.00  0.00    +0.000 C 
ATOM     19  C   UNL     1      53.510   5.905  16.639  0.00  0.00    +0.000 C 
ENDBRANCH  12  18
ENDBRANCH   4  12
ENDBRANCH   1   6
BRANCH   1  20
ATOM     20  C   UNL     1      47.631   3.562  15.757  0.00  0.00    +0.000 C 
BRANCH  20  21
ATOM     21  N   UNL     1      47.342   4.859  15.129  0.00  0.00    +0.000 N 
ATOM     22  C   UNL     1      46.616   4.745  13.933  0.00  0.00    +0.000 A 
ATOM     23  C   UNL     1      46.260   5.910  13.258  0.00  0.00    +0.000 A 
ATOM     24  C   UNL     1      45.559   5.815  12.055  0.00  0.00    +0.000 A 
ATOM     25  C   UNL     1      45.220   4.556  11.575  0.00  0.00    +0.000 A 
ATOM     26  C   UNL     1      45.590   3.447  12.308  0.00  0.00    +0.000 A 
ATOM     27  N   UNL     1      46.265   3.525  13.476  0.00  0.00    +0.000 NA
ATOM     28  H   UNL     1      48.177   5.408  14.949  0.00  0.00    +0.000 HD
BRANCH  25  29
ATOM     29  S   UNL     1      44.422   4.332  10.039  0.00  0.00    +0.000 S 
ATOM     30  O   UNL     1      44.521   2.943   9.656  0.00  0.00    +0.000 OA
ATOM     31  O   UNL     1      43.165   5.043  10.046  0.00  0.00    +0.000 OA
BRANCH  29  32
ATOM     32  N   UNL     1      45.422   5.172   8.988  0.00  0.00    +0.000 NA
ATOM     33  H   UNL     1      44.907   5.945   8.566  0.00  0.00    +0.000 HD
ATOM     34  H   UNL     1      46.275   5.460   9.471  0.00  0.00    +0.000 HD
ENDBRANCH  29  32
ENDBRANCH  25  29
ENDBRANCH  20  21
ENDBRANCH   1  20
TORSDOF 7
ENDMDL
MODEL 8
REMARK VINA RESULT:    -6.659      4.636      7.428
REMARK INTER + INTRA:         -10.399
REMARK INTER:                  -9.312
REMARK INTRA:                  -1.086
REMARK UNBOUND:                -1.209
REMARK  Name = 
REMARK  11 active torsions:
REMARK  status: ('A' for Active; 'I' for Inactive)
REMARK    1  A    between atoms: C_1  and  C_2
REMARK    2  A    between atoms: C_2  and  C_3
REMARK    3  A    between atoms: C_5  and  N_6
REMARK    4  A    between atoms: N_6  and  C_7
REMARK    5  A    between atoms: C_9  and  C_10
REMARK    6  A    between atoms: C_10  and  C_11
REMARK    7  A    between atoms: C_10  and  C_12
REMARK    8  A    between atoms: C_10  and  C_13
REMARK    9  A    between atoms: C_13  and  N_14
REMARK   10  A    between atoms: C_18  and  S_19
REMARK   11  A    between atoms: S_19  and  N_20
REMARK                            x       y       z     vdW  Elec       q    Type
REMARK                         _______ _______ _______ _____ _____    ______ ____
ROOT
ATOM      1  C   UNL     1      49.389   7.904  14.631  0.00  0.00    +0.000 C 
ATOM      2  C   UNL     1      48.959   9.180  15.395  0.00  0.00    +0.000 C 
ATOM      3  C   UNL     1      50.927   7.756  14.765  0.00  0.00    +0.000 C 
ENDROOT
BRANCH   1   6
ATOM      4  C   UNL     1      47.157   4.780  14.998  0.00  0.00    +0.000 A 
ATOM      5  C   UNL     1      47.760   5.950  14.517  0.00  0.00    +0.000 A 
ATOM      6  C   UNL     1      48.725   6.664  15.257  0.00  0.00    +0.000 A 
ATOM      7  C   UNL     1      49.027   6.191  16.545  0.00  0.00    +0.000 A 
ATOM      8  C   UNL     1      48.425   5.037  17.040  0.00  0.00    +0.000 A 
ATOM      9  F   UNL     1      48.741   4.610  18.272  0.00  0.00    +0.000 F 
ATOM     10  C   UNL     1      47.509   4.332  16.274  0.00  0.00    +0.000 A 
ATOM     11  F   UNL     1      46.935   3.226  16.777  0.00  0.00    +0.000 F 
BRANCH   4  12
ATOM     12  N   UNL     1      46.184   4.096  14.249  0.00  0.00    +0.000 N 
ATOM     13  H   UNL     1      45.752   3.320  14.745  0.00  0.00    +0.000 HD
BRANCH  12  18
ATOM     14  C   UNL     1      43.638   4.574  10.523  0.00  0.00    +0.000 C 
ATOM     15  C   UNL     1      44.199   4.487  11.936  0.00  0.00    +0.000 C 
ATOM     16  C   UNL     1      43.097   4.720  12.980  0.00  0.00    +0.000 C 
ATOM     17  C   UNL     1      45.487   5.314  12.194  0.00  0.00    +0.000 C 
ATOM     18  C   UNL     1      46.035   4.125  12.889  0.00  0.00    +0.000 C 
ATOM     19  C   UNL     1      45.069   3.234  12.217  0.00  0.00    +0.000 C 
ENDBRANCH  12  18
ENDBRANCH   4  12
ENDBRANCH   1   6
BRANCH   1  20
ATOM     20  C   UNL     1      49.106   8.113  13.111  0.00  0.00    +0.000 C 
BRANCH  20  21
ATOM     21  N   UNL     1      48.847   9.517  12.760  0.00  0.00    +0.000 N 
ATOM     22  C   UNL     1      47.519   9.753  12.369  0.00  0.00    +0.000 A 
ATOM     23  C   UNL     1      47.146  11.053  12.035  0.00  0.00    +0.000 A 
ATOM     24  C   UNL     1      45.837  11.303  11.622  0.00  0.00    +0.000 A 
ATOM     25  C   UNL     1      44.937  10.246  11.573  0.00  0.00    +0.000 A 
ATOM     26  C   UNL     1      45.373   8.988  11.935  0.00  0.00    +0.000 A 
ATOM     27  N   UNL     1      46.636   8.733  12.342  0.00  0.00    +0.000 NA
ATOM     28  H   UNL     1      49.464   9.864  12.033  0.00  0.00    +0.000 HD
BRANCH  25  29
ATOM     29  S   UNL     1      43.305  10.443  10.985  0.00  0.00    +0.000 S 
ATOM     30  O   UNL     1      42.513  11.090  12.005  0.00  0.00    +0.000 OA
ATOM     31  O   UNL     1      43.343  10.916   9.621  0.00  0.00    +0.000 OA
BRANCH  29  32
ATOM     32  N   UNL     1      42.756   8.861  10.911  0.00  0.00    +0.000 NA
ATOM     33  H   UNL     1      43.467   8.232  11.284  0.00  0.00    +0.000 HD
ATOM     34  H   UNL     1      41.851   8.781  11.376  0.00  0.00    +0.000 HD
ENDBRANCH  29  32
ENDBRANCH  25  29
ENDBRANCH  20  21
ENDBRANCH   1  20
TORSDOF 7
ENDMDL
MODEL 9
REMARK VINA RESULT:    -6.568      3.417      6.401
REMARK INTER + INTRA:         -10.272
REMARK INTER:                  -9.099
REMARK INTRA:                  -1.173
REMARK UNBOUND:                -1.209
REMARK  Name = 
REMARK  11 active torsions:
REMARK  status: ('A' for Active; 'I' for Inactive)
REMARK    1  A    between atoms: C_1  and  C_2
REMARK    2  A    between atoms: C_2  and  C_3
REMARK    3  A    between atoms: C_5  and  N_6
REMARK    4  A    between atoms: N_6  and  C_7
REMARK    5  A    between atoms: C_9  and  C_10
REMARK    6  A    between atoms: C_10  and  C_11
REMARK    7  A    between atoms: C_10  and  C_12
REMARK    8  A    between atoms: C_10  and  C_13
REMARK    9  A    between atoms: C_13  and  N_14
REMARK   10  A    between atoms: C_18  and  S_19
REMARK   11  A    between atoms: S_19  and  N_20
REMARK                            x       y       z     vdW  Elec       q    Type
REMARK                         _______ _______ _______ _____ _____    ______ ____
ROOT
ATOM      1  C   UNL     1      48.361   4.147  17.277  0.00  0.00    +0.000 C 
ATOM      2  C   UNL     1      49.821   3.680  17.060  0.00  0.00    +0.000 C 
ATOM      3  C   UNL     1      47.726   3.255  18.375  0.00  0.00    +0.000 C 
ENDROOT
BRANCH   1   6
ATOM      4  C   UNL     1      48.909   7.965  17.327  0.00  0.00    +0.000 A 
ATOM      5  C   UNL     1      48.939   6.609  16.976  0.00  0.00    +0.000 A 
ATOM      6  C   UNL     1      48.340   5.607  17.767  0.00  0.00    +0.000 A 
ATOM      7  C   UNL     1      47.749   6.010  18.975  0.00  0.00    +0.000 A 
ATOM      8  C   UNL     1      47.723   7.354  19.343  0.00  0.00    +0.000 A 
ATOM      9  F   UNL     1      47.145   7.704  20.502  0.00  0.00    +0.000 F 
ATOM     10  C   UNL     1      48.285   8.322  18.526  0.00  0.00    +0.000 A 
ATOM     11  F   UNL     1      48.255   9.611  18.906  0.00  0.00    +0.000 F 
BRANCH   4  12
ATOM     12  N   UNL     1      49.529   8.943  16.531  0.00  0.00    +0.000 N 
ATOM     13  H   UNL     1      50.335   9.381  16.970  0.00  0.00    +0.000 HD
BRANCH  12  18
ATOM     14  C   UNL     1      48.472   9.171  12.124  0.00  0.00    +0.000 C 
ATOM     15  C   UNL     1      48.944   8.782  13.519  0.00  0.00    +0.000 C 
ATOM     16  C   UNL     1      49.602   7.395  13.510  0.00  0.00    +0.000 C 
ATOM     17  C   UNL     1      47.898   8.969  14.650  0.00  0.00    +0.000 C 
ATOM     18  C   UNL     1      48.977   9.588  15.457  0.00  0.00    +0.000 C 
ATOM     19  C   UNL     1      49.780   9.865  14.250  0.00  0.00    +0.000 C 
ENDBRANCH  12  18
ENDBRANCH   4  12
ENDBRANCH   1   6
BRANCH   1  20
ATOM     20  C   UNL     1      47.550   3.872  15.974  0.00  0.00    +0.000 C 
BRANCH  20  21
ATOM     21  N   UNL     1      47.286   5.087  15.190  0.00  0.00    +0.000 N 
ATOM     22  C   UNL     1      46.590   4.836  13.997  0.00  0.00    +0.000 A 
ATOM     23  C   UNL     1      46.260   5.916  13.181  0.00  0.00    +0.000 A 
ATOM     24  C   UNL     1      45.589   5.684  11.980  0.00  0.00    +0.000 A 
ATOM     25  C   UNL     1      45.253   4.379  11.643  0.00  0.00    +0.000 A 
ATOM     26  C   UNL     1      45.596   3.362  12.509  0.00  0.00    +0.000 A 
ATOM     27  N   UNL     1      46.242   3.573  13.677  0.00  0.00    +0.000 NA
ATOM     28  H   UNL     1      48.130   5.608  14.969  0.00  0.00    +0.000 HD
BRANCH  25  29
ATOM     29  S   UNL     1      44.493   3.979  10.122  0.00  0.00    +0.000 S 
ATOM     30  O   UNL     1      45.448   4.167   9.055  0.00  0.00    +0.000 OA
ATOM     31  O   UNL     1      43.736   2.758  10.274  0.00  0.00    +0.000 OA
BRANCH  29  32
ATOM     32  N   UNL     1      43.364   5.205   9.952  0.00  0.00    +0.000 NA
ATOM     33  H   UNL     1      43.206   5.657  10.852  0.00  0.00    +0.000 HD
ATOM     34  H   UNL     1      43.654   5.849   9.214  0.00  0.00    +0.000 HD
ENDBRANCH  29  32
ENDBRANCH  25  29
ENDBRANCH  20  21
ENDBRANCH   1  20
TORSDOF 7
ENDMDL
