MODEL 1
REMARK VINA RESULT:    -8.556      0.000      0.000
REMARK INTER + INTRA:         -11.667
REMARK INTER:                 -11.057
REMARK INTRA:                  -0.610
REMARK UNBOUND:                -0.610
REMARK  Name = 
REMARK  5 active torsions:
REMARK  status: ('A' for Active; 'I' for Inactive)
REMARK    1  A    between atoms: C_2  and  C_3
REMARK    2  A    between atoms: C_6  and  N_7
REMARK    3  A    between atoms: N_7  and  C_8
REMARK    4  A    between atoms: C_8  and  C_9
REMARK    5  A    between atoms: C_13  and  C_14
REMARK                            x       y       z     vdW  Elec       q    Type
REMARK                         _______ _______ _______ _____ _____    ______ ____
ROOT
ATOM      1  C   UNL     1      44.163   4.515  11.668  0.00  0.00    +0.000 C 
ATOM      2  C   UNL     1      43.445   3.473  12.509  0.00  0.00    +0.000 C 
ATOM      3  C   UNL     1      43.025   4.896  12.622  0.00  0.00    +0.000 C 
ENDROOT
BRANCH   1   4
ATOM      4  C   UNL     1      45.488   5.146  12.123  0.00  0.00    +0.000 A 
ATOM      5  C   UNL     1      45.975   6.269  11.443  0.00  0.00    +0.000 A 
ATOM      6  C   UNL     1      46.976   7.043  12.014  0.00  0.00    +0.000 A 
ATOM      7  C   UNL     1      47.501   6.658  13.239  0.00  0.00    +0.000 A 
ATOM      8  C   UNL     1      47.037   5.488  13.839  0.00  0.00    +0.000 A 
ATOM      9  N   UNL     1      46.052   4.736  13.286  0.00  0.00    +0.000 NA
BRANCH   8  10
ATOM     10  C   UNL     1      47.539   5.007  15.138  0.00  0.00    +0.000 A 
ATOM     11  C   UNL     1      47.204   3.731  15.631  0.00  0.00    +0.000 A 
ATOM     12  C   UNL     1      47.701   3.274  16.863  0.00  0.00    +0.000 A 
ATOM     13  C   UNL     1      48.538   4.093  17.614  0.00  0.00    +0.000 A 
ATOM     14  C   UNL     1      48.889   5.354  17.142  0.00  0.00    +0.000 A 
ATOM     15  C   UNL     1      48.395   5.804  15.915  0.00  0.00    +0.000 A 
ENDBRANCH   8  10
ENDBRANCH   1   4
BRANCH   1  16
ATOM     16  N   UNL     1      43.943   4.498  10.207  0.00  0.00    +0.000 N 
ATOM     17  H   UNL     1      42.989   4.569   9.870  0.00  0.00    +0.000 HD
BRANCH  16  21
ATOM     18  C   UNL     1      46.651   2.646   7.515  0.00  0.00    +0.000 A 
ATOM     19  C   UNL     1      45.923   1.863   8.409  0.00  0.00    +0.000 A 
ATOM     20  C   UNL     1      45.033   2.461   9.314  0.00  0.00    +0.000 A 
ATOM     21  C   UNL     1      44.807   3.842   9.302  0.00  0.00    +0.000 A 
ATOM     22  C   UNL     1      45.564   4.620   8.415  0.00  0.00    +0.000 A 
ATOM     23  C   UNL     1      46.479   4.033   7.526  0.00  0.00    +0.000 A 
BRANCH  18  25
ATOM     24  N   UNL     1      48.326   1.549   5.864  0.00  0.00    +0.000 NA
ATOM     25  C   UNL     1      47.577   2.037   6.604  0.00  0.00    +0.000 C 
ENDBRANCH  18  25
ENDBRANCH  16  21
ENDBRANCH   1  16
TORSDOF 5
ENDMDL
MODEL 2
REMARK VINA RESULT:    -8.330      1.747      3.817
REMARK INTER + INTRA:         -11.375
REMARK INTER:                 -10.513
REMARK INTRA:                  -0.862
REMARK UNBOUND:                -0.610
REMARK  Name = 
REMARK  5 active torsions:
REMARK  status: ('A' for Active; 'I' for Inactive)
REMARK    1  A    between atoms: C_2  and  C_3
REMARK    2  A    between atoms: C_6  and  N_7
REMARK    3  A    between atoms: N_7  and  C_8
REMARK    4  A    between atoms: C_8  and  C_9
REMARK    5  A    between atoms: C_13  and  C_14
REMARK                            x       y       z     vdW  Elec       q    Type
REMARK                         _______ _______ _______ _____ _____    ______ ____
ROOT
ATOM      1  C   UNL     1      43.959   4.793  11.482  0.00  0.00    +0.000 C 
ATOM      2  C   UNL     1      43.066   3.665  11.971  0.00  0.00    +0.000 C 
ATOM      3  C   UNL     1      42.643   5.071  12.216  0.00  0.00    +0.000 C 
ENDROOT
BRANCH   1   4
ATOM      4  C   UNL     1      45.157   5.290  12.306  0.00  0.00    +0.000 A 
ATOM      5  C   UNL     1      45.831   4.388  13.138  0.00  0.00    +0.000 A 
ATOM      6  C   UNL     1      47.085   4.712  13.637  0.00  0.00    +0.000 A 
ATOM      7  C   UNL     1      47.628   5.950  13.326  0.00  0.00    +0.000 A 
ATOM      8  C   UNL     1      46.884   6.845  12.558  0.00  0.00    +0.000 A 
ATOM      9  N   UNL     1      45.662   6.525  12.061  0.00  0.00    +0.000 NA
BRANCH   8  10
ATOM     10  C   UNL     1      47.384   8.178  12.181  0.00  0.00    +0.000 A 
ATOM     11  C   UNL     1      48.712   8.375  11.757  0.00  0.00    +0.000 A 
ATOM     12  C   UNL     1      49.176   9.647  11.383  0.00  0.00    +0.000 A 
ATOM     13  C   UNL     1      48.311  10.736  11.432  0.00  0.00    +0.000 A 
ATOM     14  C   UNL     1      46.992  10.563  11.839  0.00  0.00    +0.000 A 
ATOM     15  C   UNL     1      46.534   9.296  12.207  0.00  0.00    +0.000 A 
ENDBRANCH   8  10
ENDBRANCH   1   4
BRANCH   1  16
ATOM     16  N   UNL     1      44.065   5.010  10.024  0.00  0.00    +0.000 N 
ATOM     17  H   UNL     1      43.232   5.305   9.527  0.00  0.00    +0.000 HD
BRANCH  16  21
ATOM     18  C   UNL     1      46.725   2.853   7.518  0.00  0.00    +0.000 A 
ATOM     19  C   UNL     1      46.794   4.244   7.562  0.00  0.00    +0.000 A 
ATOM     20  C   UNL     1      45.913   4.973   8.375  0.00  0.00    +0.000 A 
ATOM     21  C   UNL     1      44.991   4.326   9.205  0.00  0.00    +0.000 A 
ATOM     22  C   UNL     1      44.915   2.927   9.133  0.00  0.00    +0.000 A 
ATOM     23  C   UNL     1      45.772   2.192   8.299  0.00  0.00    +0.000 A 
BRANCH  18  25
ATOM     24  N   UNL     1      48.324   1.503   5.983  0.00  0.00    +0.000 NA
ATOM     25  C   UNL     1      47.611   2.108   6.670  0.00  0.00    +0.000 C 
ENDBRANCH  18  25
ENDBRANCH  16  21
ENDBRANCH   1  16
TORSDOF 5
ENDMDL
MODEL 3
REMARK VINA RESULT:    -8.171      2.419      4.741
REMARK INTER + INTRA:         -11.170
REMARK INTER:                 -10.271
REMARK INTRA:                  -0.900
REMARK UNBOUND:                -0.610
REMARK  Name = 
REMARK  5 active torsions:
REMARK  status: ('A' for Active; 'I' for Inactive)
REMARK    1  A    between atoms: C_2  and  C_3
REMARK    2  A    between atoms: C_6  and  N_7
REMARK    3  A    between atoms: N_7  and  C_8
REMARK    4  A    between atoms: C_8  and  C_9
REMARK    5  A    between atoms: C_13  and  C_14
REMARK                            x       y       z     vdW  Elec       q    Type
REMARK                         _______ _______ _______ _____ _____    ______ ____
ROOT
ATOM      1  C   UNL     1      44.208   4.239  11.721  0.00  0.00    +0.000 C 
ATOM      2  C   UNL     1      44.229   3.013  12.619  0.00  0.00    +0.000 C 
ATOM      3  C   UNL     1      43.124   3.996  12.776  0.00  0.00    +0.000 C 
ENDROOT
BRANCH   1   4
ATOM      4  C   UNL     1      45.020   5.499  12.055  0.00  0.00    +0.000 A 
ATOM      5  C   UNL     1      46.359   5.362  12.440  0.00  0.00    +0.000 A 
ATOM      6  C   UNL     1      47.196   6.470  12.435  0.00  0.00    +0.000 A 
ATOM      7  C   UNL     1      46.670   7.704  12.083  0.00  0.00    +0.000 A 
ATOM      8  C   UNL     1      45.311   7.802  11.783  0.00  0.00    +0.000 A 
ATOM      9  N   UNL     1      44.494   6.718  11.778  0.00  0.00    +0.000 NA
BRANCH   8  10
ATOM     10  C   UNL     1      44.671   9.071  11.398  0.00  0.00    +0.000 A 
ATOM     11  C   UNL     1      43.463   9.099  10.677  0.00  0.00    +0.000 A 
ATOM     12  C   UNL     1      42.850  10.314  10.329  0.00  0.00    +0.000 A 
ATOM     13  C   UNL     1      43.445  11.516  10.701  0.00  0.00    +0.000 A 
ATOM     14  C   UNL     1      44.634  11.512  11.422  0.00  0.00    +0.000 A 
ATOM     15  C   UNL     1      45.239  10.301  11.769  0.00  0.00    +0.000 A 
ENDBRANCH   8  10
ENDBRANCH   1   4
BRANCH   1  16
ATOM     16  N   UNL     1      43.915   4.040  10.285  0.00  0.00    +0.000 N 
ATOM     17  H   UNL     1      42.964   3.807  10.023  0.00  0.00    +0.000 HD
BRANCH  16  21
ATOM     18  C   UNL     1      46.705   2.558   7.452  0.00  0.00    +0.000 A 
ATOM     19  C   UNL     1      46.479   3.930   7.545  0.00  0.00    +0.000 A 
ATOM     20  C   UNL     1      45.550   4.436   8.467  0.00  0.00    +0.000 A 
ATOM     21  C   UNL     1      44.877   3.588   9.355  0.00  0.00    +0.000 A 
ATOM     22  C   UNL     1      45.096   2.208   9.235  0.00  0.00    +0.000 A 
ATOM     23  C   UNL     1      46.001   1.692   8.294  0.00  0.00    +0.000 A 
BRANCH  18  25
ATOM     24  N   UNL     1      48.397   1.621   5.723  0.00  0.00    +0.000 NA
ATOM     25  C   UNL     1      47.639   2.039   6.494  0.00  0.00    +0.000 C 
ENDBRANCH  18  25
ENDBRANCH  16  21
ENDBRANCH   1  16
TORSDOF 5
ENDMDL
MODEL 4
REMARK VINA RESULT:    -7.049      3.020      7.024
REMARK INTER + INTRA:          -9.720
REMARK INTER:                  -9.126
REMARK INTRA:                  -0.593
REMARK UNBOUND:                -0.610
REMARK  Name = 
REMARK  5 active torsions:
REMARK  status: ('A' for Active; 'I' for Inactive)
REMARK    1  A    between atoms: C_2  and  C_3
REMARK    2  A    between atoms: C_6  and  N_7
REMARK    3  A    between atoms: N_7  and  C_8
REMARK    4  A    between atoms: C_8  and  C_9
REMARK    5  A    between atoms: C_13  and  C_14
REMARK                            x       y       z     vdW  Elec       q    Type
REMARK                         _______ _______ _______ _____ _____    ______ ____
ROOT
ATOM      1  C   UNL     1      43.801   5.788  11.824  0.00  0.00    +0.000 C 
ATOM      2  C   UNL     1      43.175   6.784  10.861  0.00  0.00    +0.000 C 
ATOM      3  C   UNL     1      42.294   6.069  11.823  0.00  0.00    +0.000 C 
ENDROOT
BRANCH   1   4
ATOM      4  C   UNL     1      44.083   4.335  11.412  0.00  0.00    +0.000 A 
ATOM      5  C   UNL     1      43.376   3.302  12.037  0.00  0.00    +0.000 A 
ATOM      6  C   UNL     1      43.370   2.031  11.478  0.00  0.00    +0.000 A 
ATOM      7  C   UNL     1      44.104   1.806  10.322  0.00  0.00    +0.000 A 
ATOM      8  C   UNL     1      44.856   2.849   9.782  0.00  0.00    +0.000 A 
ATOM      9  N   UNL     1      44.854   4.094  10.322  0.00  0.00    +0.000 NA
BRANCH   8  10
ATOM     10  C   UNL     1      45.662   2.698   8.559  0.00  0.00    +0.000 A 
ATOM     11  C   UNL     1      45.905   3.784   7.696  0.00  0.00    +0.000 A 
ATOM     12  C   UNL     1      46.690   3.635   6.541  0.00  0.00    +0.000 A 
ATOM     13  C   UNL     1      47.238   2.392   6.237  0.00  0.00    +0.000 A 
ATOM     14  C   UNL     1      47.018   1.308   7.079  0.00  0.00    +0.000 A 
ATOM     15  C   UNL     1      46.240   1.461   8.230  0.00  0.00    +0.000 A 
ENDBRANCH   8  10
ENDBRANCH   1   4
BRANCH   1  16
ATOM     16  N   UNL     1      44.662   6.316  12.903  0.00  0.00    +0.000 N 
ATOM     17  H   UNL     1      44.246   6.455  13.817  0.00  0.00    +0.000 HD
BRANCH  16  21
ATOM     18  C   UNL     1      48.036   8.741  12.042  0.00  0.00    +0.000 A 
ATOM     19  C   UNL     1      46.899   9.316  12.606  0.00  0.00    +0.000 A 
ATOM     20  C   UNL     1      45.770   8.531  12.885  0.00  0.00    +0.000 A 
ATOM     21  C   UNL     1      45.777   7.149  12.665  0.00  0.00    +0.000 A 
ATOM     22  C   UNL     1      46.919   6.587  12.074  0.00  0.00    +0.000 A 
ATOM     23  C   UNL     1      48.042   7.371  11.765  0.00  0.00    +0.000 A 
BRANCH  18  25
ATOM     24  N   UNL     1      50.112  10.198  11.495  0.00  0.00    +0.000 NA
ATOM     25  C   UNL     1      49.183   9.548  11.737  0.00  0.00    +0.000 C 
ENDBRANCH  18  25
ENDBRANCH  16  21
ENDBRANCH   1  16
TORSDOF 5
ENDMDL
MODEL 5
REMARK VINA RESULT:    -6.789      1.672      7.533
REMARK INTER + INTRA:          -9.384
REMARK INTER:                  -9.523
REMARK INTRA:                   0.139
REMARK UNBOUND:                -0.610
REMARK  Name = 
REMARK  5 active torsions:
REMARK  status: ('A' for Active; 'I' for Inactive)
REMARK    1  A    between atoms: C_2  and  C_3
REMARK    2  A    between atoms: C_6  and  N_7
REMARK    3  A    between atoms: N_7  and  C_8
REMARK    4  A    between atoms: C_8  and  C_9
REMARK    5  A    between atoms: C_13  and  C_14
REMARK                            x       y       z     vdW  Elec       q    Type
REMARK                         _______ _______ _______ _____ _____    ______ ____
ROOT
ATOM      1  C   UNL     1      45.507   6.091  11.893  0.00  0.00    +0.000 C 
ATOM      2  C   UNL     1      44.795   7.345  11.412  0.00  0.00    +0.000 C 
ATOM      3  C   UNL     1      44.347   6.709  12.680  0.00  0.00    +0.000 C 
ENDROOT
BRANCH   1   4
ATOM      4  C   UNL     1      45.130   4.697  11.372  0.00  0.00    +0.000 A 
ATOM      5  C   UNL     1      44.027   4.038  11.928  0.00  0.00    +0.000 A 
ATOM      6  C   UNL     1      43.473   2.945  11.276  0.00  0.00    +0.000 A 
ATOM      7  C   UNL     1      44.057   2.504  10.097  0.00  0.00    +0.000 A 
ATOM      8  C   UNL     1      45.202   3.145   9.625  0.00  0.00    +0.000 A 
ATOM      9  N   UNL     1      45.738   4.220  10.257  0.00  0.00    +0.000 NA
BRANCH   8  10
ATOM     10  C   UNL     1      45.884   2.743   8.383  0.00  0.00    +0.000 A 
ATOM     11  C   UNL     1      46.341   1.426   8.185  0.00  0.00    +0.000 A 
ATOM     12  C   UNL     1      46.975   1.047   6.991  0.00  0.00    +0.000 A 
ATOM     13  C   UNL     1      47.161   1.988   5.982  0.00  0.00    +0.000 A 
ATOM     14  C   UNL     1      46.710   3.292   6.152  0.00  0.00    +0.000 A 
ATOM     15  C   UNL     1      46.076   3.665   7.341  0.00  0.00    +0.000 A 
ENDBRANCH   8  10
ENDBRANCH   1   4
BRANCH   1  16
ATOM     16  N   UNL     1      46.898   6.228  12.376  0.00  0.00    +0.000 N 
ATOM     17  H   UNL     1      47.642   6.219  11.688  0.00  0.00    +0.000 HD
BRANCH  16  21
ATOM     18  C   UNL     1      48.146   5.110  16.275  0.00  0.00    +0.000 A 
ATOM     19  C   UNL     1      47.242   4.306  15.583  0.00  0.00    +0.000 A 
ATOM     20  C   UNL     1      46.809   4.668  14.298  0.00  0.00    +0.000 A 
ATOM     21  C   UNL     1      47.317   5.804  13.657  0.00  0.00    +0.000 A 
ATOM     22  C   UNL     1      48.207   6.617  14.374  0.00  0.00    +0.000 A 
ATOM     23  C   UNL     1      48.622   6.278  15.671  0.00  0.00    +0.000 A 
BRANCH  18  25
ATOM     24  N   UNL     1      48.918   4.457  18.665  0.00  0.00    +0.000 NA
ATOM     25  C   UNL     1      48.572   4.751  17.598  0.00  0.00    +0.000 C 
ENDBRANCH  18  25
ENDBRANCH  16  21
ENDBRANCH   1  16
TORSDOF 5
ENDMDL
MODEL 6
REMARK VINA RESULT:    -6.705      1.979      7.815
REMARK INTER + INTRA:          -9.275
REMARK INTER:                  -9.186
REMARK INTRA:                  -0.088
REMARK UNBOUND:                -0.610
REMARK  Name = 
REMARK  5 active torsions:
REMARK  status: ('A' for Active; 'I' for Inactive)
REMARK    1  A    between atoms: C_2  and  C_3
REMARK    2  A    between atoms: C_6  and  N_7
REMARK    3  A    between atoms: N_7  and  C_8
REMARK    4  A    between atoms: C_8  and  C_9
REMARK    5  A    between atoms: C_13  and  C_14
REMARK                            x       y       z     vdW  Elec       q    Type
REMARK                         _______ _______ _______ _____ _____    ______ ____
ROOT
ATOM      1  C   UNL     1      46.369   5.261  13.609  0.00  0.00    +0.000 C 
ATOM      2  C   UNL     1      47.684   5.834  13.108  0.00  0.00    +0.000 C 
ATOM      3  C   UNL     1      46.549   6.762  13.361  0.00  0.00    +0.000 C 
ENDROOT
BRANCH   1   4
ATOM      4  C   UNL     1      45.326   4.672  12.648  0.00  0.00    +0.000 A 
ATOM      5  C   UNL     1      43.967   4.900  12.896  0.00  0.00    +0.000 A 
ATOM      6  C   UNL     1      43.033   4.664  11.896  0.00  0.00    +0.000 A 
ATOM      7  C   UNL     1      43.469   4.167  10.677  0.00  0.00    +0.000 A 
ATOM      8  C   UNL     1      44.824   3.882  10.506  0.00  0.00    +0.000 A 
ATOM      9  N   UNL     1      45.739   4.121  11.479  0.00  0.00    +0.000 NA
BRANCH   8  10
ATOM     10  C   UNL     1      45.372   3.353   9.246  0.00  0.00    +0.000 A 
ATOM     11  C   UNL     1      45.765   4.206   8.196  0.00  0.00    +0.000 A 
ATOM     12  C   UNL     1      46.303   3.694   7.005  0.00  0.00    +0.000 A 
ATOM     13  C   UNL     1      46.452   2.319   6.852  0.00  0.00    +0.000 A 
ATOM     14  C   UNL     1      46.079   1.458   7.879  0.00  0.00    +0.000 A 
ATOM     15  C   UNL     1      45.547   1.971   9.064  0.00  0.00    +0.000 A 
ENDBRANCH   8  10
ENDBRANCH   1   4
BRANCH   1  16
ATOM     16  N   UNL     1      46.327   4.727  14.988  0.00  0.00    +0.000 N 
ATOM     17  H   UNL     1      45.506   4.928  15.549  0.00  0.00    +0.000 HD
BRANCH  16  21
ATOM     18  C   UNL     1      49.765   4.124  17.400  0.00  0.00    +0.000 A 
ATOM     19  C   UNL     1      49.025   3.025  16.966  0.00  0.00    +0.000 A 
ATOM     20  C   UNL     1      47.878   3.208  16.179  0.00  0.00    +0.000 A 
ATOM     21  C   UNL     1      47.485   4.484  15.758  0.00  0.00    +0.000 A 
ATOM     22  C   UNL     1      48.224   5.582  16.222  0.00  0.00    +0.000 A 
ATOM     23  C   UNL     1      49.356   5.410  17.034  0.00  0.00    +0.000 A 
BRANCH  18  25
ATOM     24  N   UNL     1      51.863   3.793  18.891  0.00  0.00    +0.000 NA
ATOM     25  C   UNL     1      50.926   3.939  18.223  0.00  0.00    +0.000 C 
ENDBRANCH  18  25
ENDBRANCH  16  21
ENDBRANCH   1  16
TORSDOF 5
ENDMDL
MODEL 7
REMARK VINA RESULT:    -6.100      3.484      7.677
REMARK INTER + INTRA:          -8.494
REMARK INTER:                  -7.444
REMARK INTRA:                  -1.050
REMARK UNBOUND:                -0.610
REMARK  Name = 
REMARK  5 active torsions:
REMARK  status: ('A' for Active; 'I' for Inactive)
REMARK    1  A    between atoms: C_2  and  C_3
REMARK    2  A    between atoms: C_6  and  N_7
REMARK    3  A    between atoms: N_7  and  C_8
REMARK    4  A    between atoms: C_8  and  C_9
REMARK    5  A    between atoms: C_13  and  C_14
REMARK                            x       y       z     vdW  Elec       q    Type
REMARK                         _______ _______ _______ _____ _____    ______ ____
ROOT
ATOM      1  C   UNL     1      48.719   8.256  16.529  0.00  0.00    +0.000 C 
ATOM      2  C   UNL     1      49.597   9.289  17.217  0.00  0.00    +0.000 C 
ATOM      3  C   UNL     1      48.217   9.676  16.815  0.00  0.00    +0.000 C 
ENDROOT
BRANCH   1   4
ATOM      4  C   UNL     1      48.802   8.004  15.016  0.00  0.00    +0.000 A 
ATOM      5  C   UNL     1      49.980   8.334  14.336  0.00  0.00    +0.000 A 
ATOM      6  C   UNL     1      50.205   7.833  13.061  0.00  0.00    +0.000 A 
ATOM      7  C   UNL     1      49.230   7.041  12.472  0.00  0.00    +0.000 A 
ATOM      8  C   UNL     1      48.040   6.805  13.160  0.00  0.00    +0.000 A 
ATOM      9  N   UNL     1      47.823   7.286  14.410  0.00  0.00    +0.000 NA
BRANCH   8  10
ATOM     10  C   UNL     1      46.954   5.976  12.610  0.00  0.00    +0.000 A 
ATOM     11  C   UNL     1      46.361   6.268  11.367  0.00  0.00    +0.000 A 
ATOM     12  C   UNL     1      45.337   5.462  10.842  0.00  0.00    +0.000 A 
ATOM     13  C   UNL     1      44.896   4.354  11.561  0.00  0.00    +0.000 A 
ATOM     14  C   UNL     1      45.475   4.042  12.787  0.00  0.00    +0.000 A 
ATOM     15  C   UNL     1      46.495   4.845  13.304  0.00  0.00    +0.000 A 
ENDBRANCH   8  10
ENDBRANCH   1   4
BRANCH   1  16
ATOM     16  N   UNL     1      48.235   7.114  17.333  0.00  0.00    +0.000 N 
ATOM     17  H   UNL     1      47.704   7.315  18.172  0.00  0.00    +0.000 HD
BRANCH  16  21
ATOM     18  C   UNL     1      50.129   3.316  17.323  0.00  0.00    +0.000 A 
ATOM     19  C   UNL     1      50.875   4.458  17.612  0.00  0.00    +0.000 A 
ATOM     20  C   UNL     1      50.266   5.723  17.606  0.00  0.00    +0.000 A 
ATOM     21  C   UNL     1      48.893   5.865  17.375  0.00  0.00    +0.000 A 
ATOM     22  C   UNL     1      48.160   4.710  17.062  0.00  0.00    +0.000 A 
ATOM     23  C   UNL     1      48.767   3.445  17.036  0.00  0.00    +0.000 A 
BRANCH  18  25
ATOM     24  N   UNL     1      51.266   0.984  17.292  0.00  0.00    +0.000 NA
ATOM     25  C   UNL     1      50.756   2.025  17.308  0.00  0.00    +0.000 C 
ENDBRANCH  18  25
ENDBRANCH  16  21
ENDBRANCH   1  16
TORSDOF 5
ENDMDL
MODEL 8
REMARK VINA RESULT:    -6.084      3.129      5.935
REMARK INTER + INTRA:          -8.472
REMARK INTER:                  -7.601
REMARK INTRA:                  -0.871
REMARK UNBOUND:                -0.610
REMARK  Name = 
REMARK  5 active torsions:
REMARK  status: ('A' for Active; 'I' for Inactive)
REMARK    1  A    between atoms: C_2  and  C_3
REMARK    2  A    between atoms: C_6  and  N_7
REMARK    3  A    between atoms: N_7  and  C_8
REMARK    4  A    between atoms: C_8  and  C_9
REMARK    5  A    between atoms: C_13  and  C_14
REMARK                            x       y       z     vdW  Elec       q    Type
REMARK                         _______ _______ _______ _____ _____    ______ ____
ROOT
ATOM      1  C   UNL     1      49.012   7.502  15.291  0.00  0.00    +0.000 C 
ATOM      2  C   UNL     1      48.319   8.853  15.213  0.00  0.00    +0.000 C 
ATOM      3  C   UNL     1      49.804   8.814  15.305  0.00  0.00    +0.000 C 
ENDROOT
BRANCH   1   4
ATOM      4  C   UNL     1      49.175   6.754  16.623  0.00  0.00    +0.000 A 
ATOM      5  C   UNL     1      48.314   7.058  17.683  0.00  0.00    +0.000 A 
ATOM      6  C   UNL     1      48.223   6.196  18.768  0.00  0.00    +0.000 A 
ATOM      7  C   UNL     1      49.025   5.064  18.792  0.00  0.00    +0.000 A 
ATOM      8  C   UNL     1      49.924   4.847  17.748  0.00  0.00    +0.000 A 
ATOM      9  N   UNL     1      50.007   5.684  16.683  0.00  0.00    +0.000 NA
BRANCH   8  10
ATOM     10  C   UNL     1      50.811   3.673  17.693  0.00  0.00    +0.000 A 
ATOM     11  C   UNL     1      52.174   3.761  18.032  0.00  0.00    +0.000 A 
ATOM     12  C   UNL     1      53.009   2.633  17.993  0.00  0.00    +0.000 A 
ATOM     13  C   UNL     1      52.484   1.401  17.612  0.00  0.00    +0.000 A 
ATOM     14  C   UNL     1      51.138   1.288  17.282  0.00  0.00    +0.000 A 
ATOM     15  C   UNL     1      50.310   2.413  17.325  0.00  0.00    +0.000 A 
ENDBRANCH   8  10
ENDBRANCH   1   4
BRANCH   1  16
ATOM     16  N   UNL     1      48.999   6.647  14.086  0.00  0.00    +0.000 N 
ATOM     17  H   UNL     1      49.805   6.680  13.472  0.00  0.00    +0.000 HD
BRANCH  16  21
ATOM     18  C   UNL     1      45.515   5.472  11.966  0.00  0.00    +0.000 A 
ATOM     19  C   UNL     1      45.801   4.890  13.200  0.00  0.00    +0.000 A 
ATOM     20  C   UNL     1      46.956   5.258  13.907  0.00  0.00    +0.000 A 
ATOM     21  C   UNL     1      47.812   6.256  13.428  0.00  0.00    +0.000 A 
ATOM     22  C   UNL     1      47.525   6.816  12.174  0.00  0.00    +0.000 A 
ATOM     23  C   UNL     1      46.388   6.432  11.446  0.00  0.00    +0.000 A 
BRANCH  18  25
ATOM     24  N   UNL     1      43.403   4.765  10.634  0.00  0.00    +0.000 NA
ATOM     25  C   UNL     1      44.346   5.081  11.232  0.00  0.00    +0.000 C 
ENDBRANCH  18  25
ENDBRANCH  16  21
ENDBRANCH   1  16
TORSDOF 5
ENDMDL
MODEL 9
REMARK VINA RESULT:    -6.062      3.152      4.718
REMARK INTER + INTRA:          -8.444
REMARK INTER:                  -8.023
REMARK INTRA:                  -0.421
REMARK UNBOUND:                -0.610
REMARK  Name = 
REMARK  5 active torsions:
REMARK  status: ('A' for Active; 'I' for Inactive)
REMARK    1  A    between atoms: C_2  and  C_3
REMARK    2  A    between atoms: C_6  and  N_7
REMARK    3  A    between atoms: N_7  and  C_8
REMARK    4  A    between atoms: C_8  and  C_9
REMARK    5  A    between atoms: C_13  and  C_14
REMARK                            x       y       z     vdW  Elec       q    Type
REMARK                         _______ _______ _______ _____ _____    ______ ____
ROOT
ATOM      1  C   UNL     1      47.844   8.174  12.844  0.00  0.00    +0.000 C 
ATOM      2  C   UNL     1      48.603   8.898  11.745  0.00  0.00    +0.000 C 
ATOM      3  C   UNL     1      48.740   7.420  11.856  0.00  0.00    +0.000 C 
ENDROOT
BRANCH   1   4
ATOM      4  C   UNL     1      48.398   8.066  14.273  0.00  0.00    +0.000 A 
ATOM      5  C   UNL     1      48.511   9.227  15.047  0.00  0.00    +0.000 A 
ATOM      6  C   UNL     1      48.698   9.127  16.420  0.00  0.00    +0.000 A 
ATOM      7  C   UNL     1      48.807   7.867  16.989  0.00  0.00    +0.000 A 
ATOM      8  C   UNL     1      48.766   6.743  16.164  0.00  0.00    +0.000 A 
ATOM      9  N   UNL     1      48.574   6.839  14.824  0.00  0.00    +0.000 NA
BRANCH   8  10
ATOM     10  C   UNL     1      48.873   5.369  16.685  0.00  0.00    +0.000 A 
ATOM     11  C   UNL     1      47.837   4.433  16.514  0.00  0.00    +0.000 A 
ATOM     12  C   UNL     1      47.954   3.120  16.998  0.00  0.00    +0.000 A 
ATOM     13  C   UNL     1      49.114   2.733  17.663  0.00  0.00    +0.000 A 
ATOM     14  C   UNL     1      50.155   3.639  17.835  0.00  0.00    +0.000 A 
ATOM     15  C   UNL     1      50.036   4.944  17.349  0.00  0.00    +0.000 A 
ENDBRANCH   8  10
ENDBRANCH   1   4
BRANCH   1  16
ATOM     16  N   UNL     1      46.372   8.095  12.733  0.00  0.00    +0.000 N 
ATOM     17  H   UNL     1      45.822   8.810  13.196  0.00  0.00    +0.000 HD
BRANCH  16  21
ATOM     18  C   UNL     1      44.300   4.458  12.040  0.00  0.00    +0.000 A 
ATOM     19  C   UNL     1      45.174   4.559  13.121  0.00  0.00    +0.000 A 
ATOM     20  C   UNL     1      45.877   5.750  13.356  0.00  0.00    +0.000 A 
ATOM     21  C   UNL     1      45.674   6.881  12.556  0.00  0.00    +0.000 A 
ATOM     22  C   UNL     1      44.810   6.758  11.458  0.00  0.00    +0.000 A 
ATOM     23  C   UNL     1      44.126   5.560  11.198  0.00  0.00    +0.000 A 
BRANCH  18  25
ATOM     24  N   UNL     1      43.028   2.244  11.577  0.00  0.00    +0.000 NA
ATOM     25  C   UNL     1      43.597   3.232  11.786  0.00  0.00    +0.000 C 
ENDBRANCH  18  25
ENDBRANCH  16  21
ENDBRANCH   1  16
TORSDOF 5
ENDMDL
