MODEL 1
REMARK VINA RESULT:    -6.912      0.000      0.000
REMARK INTER + INTRA:         -12.133
REMARK INTER:                 -10.750
REMARK INTRA:                  -1.383
REMARK UNBOUND:                -1.383
REMARK  Name = 
REMARK  10 active torsions:
REMARK  status: ('A' for Active; 'I' for Inactive)
REMARK    1  A    between atoms: N_1  and  C_2
REMARK    2  A    between atoms: C_2  and  C_3
REMARK    3  A    between atoms: C_3  and  N_4
REMARK    4  A    between atoms: N_4  and  C_5
REMARK    5  A    between atoms: C_5  and  C_6
REMARK    6  A    between atoms: C_9  and  C_10
REMARK    7  A    between atoms: C_10  and  C_11
REMARK    8  A    between atoms: C_14  and  C_15
REMARK    9  A    between atoms: C_15  and  N_16
REMARK   10  A    between atoms: C_17  and  C_19
REMARK                            x       y       z     vdW  Elec       q    Type
REMARK                         _______ _______ _______ _____ _____    ______ ____
ROOT
ATOM      1  C   UNL     1      45.752   6.620  12.903  0.00  0.00    +0.000 A 
ATOM      2  C   UNL     1      46.750   5.790  13.431  0.00  0.00    +0.000 A 
ATOM      3  C   UNL     1      47.903   6.334  14.007  0.00  0.00    +0.000 A 
ATOM      4  C   UNL     1      48.074   7.723  14.078  0.00  0.00    +0.000 A 
ATOM      5  C   UNL     1      47.096   8.552  13.516  0.00  0.00    +0.000 A 
ATOM      6  C   UNL     1      45.943   8.007  12.943  0.00  0.00    +0.000 A 
ENDROOT
BRANCH   1   7
ATOM      7  C   UNL     1      44.490   6.031  12.316  0.00  0.00    +0.000 C 
BRANCH   7  11
ATOM      8  C   UNL     1      45.068   3.450   8.967  0.00  0.00    +0.000 A 
ATOM      9  C   UNL     1      45.710   4.685   8.972  0.00  0.00    +0.000 A 
ATOM     10  C   UNL     1      45.536   5.532  10.063  0.00  0.00    +0.000 A 
ATOM     11  C   UNL     1      44.716   5.140  11.123  0.00  0.00    +0.000 A 
ATOM     12  C   UNL     1      44.121   3.886  11.033  0.00  0.00    +0.000 A 
ATOM     13  N   UNL     1      44.273   3.040   9.990  0.00  0.00    +0.000 NA
BRANCH   8  14
ATOM     14  C   UNL     1      45.335   2.467   7.842  0.00  0.00    +0.000 C 
BRANCH  14  15
ATOM     15  N   UNL     1      45.949   1.198   8.286  0.00  0.00    +0.000 NA
ATOM     16  H   UNL     1      46.274   1.354   9.244  0.00  0.00    +0.000 HD
BRANCH  15  17
ATOM     17  C   UNL     1      47.156   0.866   7.503  0.00  0.00    +0.000 C 
BRANCH  17  18
ATOM     18  C   UNL     1      47.855   2.097   6.892  0.00  0.00    +0.000 C 
BRANCH  18  19
ATOM     19  N   UNL     1      48.496   1.758   5.615  0.00  0.00    +0.000 NA
ATOM     20  H   UNL     1      49.287   2.384   5.472  0.00  0.00    +0.000 HD
ATOM     21  H   UNL     1      47.839   1.955   4.860  0.00  0.00    +0.000 HD
ENDBRANCH  18  19
ENDBRANCH  17  18
ENDBRANCH  15  17
ENDBRANCH  14  15
ENDBRANCH   8  14
ENDBRANCH   7  11
ENDBRANCH   1   7
BRANCH   4  22
ATOM     22  C   UNL     1      49.296   8.320  14.728  0.00  0.00    +0.000 C 
BRANCH  22  23
ATOM     23  N   UNL     1      49.426   7.896  16.099  0.00  0.00    +0.000 N 
ATOM     24  C   UNL     1      50.573   7.292  16.544  0.00  0.00    +0.000 C 
ATOM     25  O   UNL     1      51.552   7.134  15.817  0.00  0.00    +0.000 OA
ATOM     26  H   UNL     1      48.570   7.802  16.635  0.00  0.00    +0.000 HD
BRANCH  24  27
ATOM     27  C   UNL     1      50.601   6.890  17.957  0.00  0.00    +0.000 A 
ATOM     28  C   UNL     1      51.578   7.403  18.798  0.00  0.00    +0.000 A 
ATOM     29  S   UNL     1      51.443   6.870  20.412  0.00  0.00    +0.000 S 
ATOM     30  C   UNL     1      50.102   5.895  20.032  0.00  0.00    +0.000 A 
ATOM     31  N   UNL     1      49.502   5.130  20.985  0.00  0.00    +0.000 NA
ATOM     32  C   UNL     1      48.514   4.419  20.553  0.00  0.00    +0.000 A 
ATOM     33  N   UNL     1      48.069   4.403  19.256  0.00  0.00    +0.000 N 
ATOM     34  C   UNL     1      48.627   5.181  18.268  0.00  0.00    +0.000 A 
ATOM     35  O   UNL     1      48.176   5.173  17.125  0.00  0.00    +0.000 OA
ATOM     36  C   UNL     1      49.749   5.990  18.697  0.00  0.00    +0.000 A 
ATOM     37  H   UNL     1      47.282   3.830  18.986  0.00  0.00    +0.000 HD
ENDBRANCH  24  27
ENDBRANCH  22  23
ENDBRANCH   4  22
TORSDOF 10
ENDMDL
MODEL 2
REMARK VINA RESULT:    -6.793      5.399      7.652
REMARK INTER + INTRA:         -11.948
REMARK INTER:                 -10.829
REMARK INTRA:                  -1.119
REMARK UNBOUND:                -1.383
REMARK  Name = 
REMARK  10 active torsions:
REMARK  status: ('A' for Active; 'I' for Inactive)
REMARK    1  A    between atoms: N_1  and  C_2
REMARK    2  A    between atoms: C_2  and  C_3
REMARK    3  A    between atoms: C_3  and  N_4
REMARK    4  A    between atoms: N_4  and  C_5
REMARK    5  A    between atoms: C_5  and  C_6
REMARK    6  A    between atoms: C_9  and  C_10
REMARK    7  A    between atoms: C_10  and  C_11
REMARK    8  A    between atoms: C_14  and  C_15
REMARK    9  A    between atoms: C_15  and  N_16
REMARK   10  A    between atoms: C_17  and  C_19
REMARK                            x       y       z     vdW  Elec       q    Type
REMARK                         _______ _______ _______ _____ _____    ______ ____
ROOT
ATOM      1  C   UNL     1      47.306   7.349  12.577  0.00  0.00    +0.000 A 
ATOM      2  C   UNL     1      47.470   8.641  12.059  0.00  0.00    +0.000 A 
ATOM      3  C   UNL     1      48.743   9.129  11.744  0.00  0.00    +0.000 A 
ATOM      4  C   UNL     1      49.877   8.327  11.929  0.00  0.00    +0.000 A 
ATOM      5  C   UNL     1      49.717   7.051  12.482  0.00  0.00    +0.000 A 
ATOM      6  C   UNL     1      48.445   6.563  12.795  0.00  0.00    +0.000 A 
ENDROOT
BRANCH   1   7
ATOM      7  C   UNL     1      45.926   6.810  12.880  0.00  0.00    +0.000 C 
BRANCH   7  11
ATOM      8  C   UNL     1      44.799   3.507  10.425  0.00  0.00    +0.000 A 
ATOM      9  C   UNL     1      44.931   3.301  11.794  0.00  0.00    +0.000 A 
ATOM     10  C   UNL     1      45.290   4.373  12.608  0.00  0.00    +0.000 A 
ATOM     11  C   UNL     1      45.523   5.627  12.040  0.00  0.00    +0.000 A 
ATOM     12  C   UNL     1      45.361   5.740  10.663  0.00  0.00    +0.000 A 
ATOM     13  N   UNL     1      45.010   4.719   9.848  0.00  0.00    +0.000 NA
BRANCH   8  14
ATOM     14  C   UNL     1      44.299   2.381   9.539  0.00  0.00    +0.000 C 
BRANCH  14  15
ATOM     15  N   UNL     1      45.368   1.489   9.040  0.00  0.00    +0.000 NA
ATOM     16  H   UNL     1      45.993   1.316   9.831  0.00  0.00    +0.000 HD
BRANCH  15  17
ATOM     17  C   UNL     1      46.198   2.147   8.012  0.00  0.00    +0.000 C 
BRANCH  17  18
ATOM     18  C   UNL     1      47.147   1.183   7.272  0.00  0.00    +0.000 C 
BRANCH  18  19
ATOM     19  N   UNL     1      46.926  -0.205   7.699  0.00  0.00    +0.000 NA
ATOM     20  H   UNL     1      46.113  -0.571   7.207  0.00  0.00    +0.000 HD
ATOM     21  H   UNL     1      46.682  -0.205   8.689  0.00  0.00    +0.000 HD
ENDBRANCH  18  19
ENDBRANCH  17  18
ENDBRANCH  15  17
ENDBRANCH  14  15
ENDBRANCH   8  14
ENDBRANCH   7  11
ENDBRANCH   1   7
BRANCH   4  22
ATOM     22  C   UNL     1      51.250   8.830  11.560  0.00  0.00    +0.000 C 
BRANCH  22  23
ATOM     23  N   UNL     1      51.658   8.349  10.264  0.00  0.00    +0.000 N 
ATOM     24  C   UNL     1      52.791   8.829   9.659  0.00  0.00    +0.000 C 
ATOM     25  O   UNL     1      53.530   9.643  10.211  0.00  0.00    +0.000 OA
ATOM     26  H   UNL     1      50.956   7.873   9.708  0.00  0.00    +0.000 HD
BRANCH  24  27
ATOM     27  C   UNL     1      53.114   8.280   8.336  0.00  0.00    +0.000 A 
ATOM     28  C   UNL     1      53.124   9.116   7.228  0.00  0.00    +0.000 A 
ATOM     29  S   UNL     1      53.560   8.330   5.780  0.00  0.00    +0.000 S 
ATOM     30  C   UNL     1      53.703   6.833   6.574  0.00  0.00    +0.000 A 
ATOM     31  N   UNL     1      54.033   5.706   5.886  0.00  0.00    +0.000 NA
ATOM     32  C   UNL     1      54.080   4.636   6.607  0.00  0.00    +0.000 A 
ATOM     33  N   UNL     1      53.828   4.588   7.954  0.00  0.00    +0.000 N 
ATOM     34  C   UNL     1      53.520   5.707   8.695  0.00  0.00    +0.000 A 
ATOM     35  O   UNL     1      53.341   5.634   9.908  0.00  0.00    +0.000 OA
ATOM     36  C   UNL     1      53.442   6.934   7.930  0.00  0.00    +0.000 A 
ATOM     37  H   UNL     1      53.892   3.717   8.462  0.00  0.00    +0.000 HD
ENDBRANCH  24  27
ENDBRANCH  22  23
ENDBRANCH   4  22
TORSDOF 10
ENDMDL
MODEL 3
REMARK VINA RESULT:    -6.533      1.705      1.906
REMARK INTER + INTRA:         -11.544
REMARK INTER:                 -10.459
REMARK INTRA:                  -1.085
REMARK UNBOUND:                -1.383
REMARK  Name = 
REMARK  10 active torsions:
REMARK  status: ('A' for Active; 'I' for Inactive)
REMARK    1  A    between atoms: N_1  and  C_2
REMARK    2  A    between atoms: C_2  and  C_3
REMARK    3  A    between atoms: C_3  and  N_4
REMARK    4  A    between atoms: N_4  and  C_5
REMARK    5  A    between atoms: C_5  and  C_6
REMARK    6  A    between atoms: C_9  and  C_10
REMARK    7  A    between atoms: C_10  and  C_11
REMARK    8  A    between atoms: C_14  and  C_15
REMARK    9  A    between atoms: C_15  and  N_16
REMARK   10  A    between atoms: C_17  and  C_19
REMARK                            x       y       z     vdW  Elec       q    Type
REMARK                         _______ _______ _______ _____ _____    ______ ____
ROOT
ATOM      1  C   UNL     1      45.385   7.057  12.419  0.00  0.00    +0.000 A 
ATOM      2  C   UNL     1      46.338   6.167  12.930  0.00  0.00    +0.000 A 
ATOM      3  C   UNL     1      47.474   6.640  13.595  0.00  0.00    +0.000 A 
ATOM      4  C   UNL     1      47.673   8.015  13.774  0.00  0.00    +0.000 A 
ATOM      5  C   UNL     1      46.740   8.907  13.229  0.00  0.00    +0.000 A 
ATOM      6  C   UNL     1      45.604   8.433  12.567  0.00  0.00    +0.000 A 
ENDROOT
BRANCH   1   7
ATOM      7  C   UNL     1      44.138   6.543  11.734  0.00  0.00    +0.000 C 
BRANCH   7  11
ATOM      8  C   UNL     1      44.726   2.891   9.607  0.00  0.00    +0.000 A 
ATOM      9  C   UNL     1      43.942   2.871  10.757  0.00  0.00    +0.000 A 
ATOM     10  C   UNL     1      43.736   4.058  11.455  0.00  0.00    +0.000 A 
ATOM     11  C   UNL     1      44.324   5.241  11.003  0.00  0.00    +0.000 A 
ATOM     12  C   UNL     1      45.085   5.165   9.840  0.00  0.00    +0.000 A 
ATOM     13  N   UNL     1      45.301   4.029   9.139  0.00  0.00    +0.000 NA
BRANCH   8  14
ATOM     14  C   UNL     1      44.868   1.632   8.771  0.00  0.00    +0.000 C 
BRANCH  14  15
ATOM     15  N   UNL     1      46.265   1.301   8.418  0.00  0.00    +0.000 NA
ATOM     16  H   UNL     1      46.859   1.893   9.004  0.00  0.00    +0.000 HD
BRANCH  15  17
ATOM     17  C   UNL     1      46.584   1.669   7.025  0.00  0.00    +0.000 C 
BRANCH  17  18
ATOM     18  C   UNL     1      48.029   2.171   6.833  0.00  0.00    +0.000 C 
BRANCH  18  19
ATOM     19  N   UNL     1      48.526   1.846   5.489  0.00  0.00    +0.000 NA
ATOM     20  H   UNL     1      48.216   0.906   5.247  0.00  0.00    +0.000 HD
ATOM     21  H   UNL     1      49.544   1.809   5.520  0.00  0.00    +0.000 HD
ENDBRANCH  18  19
ENDBRANCH  17  18
ENDBRANCH  15  17
ENDBRANCH  14  15
ENDBRANCH   8  14
ENDBRANCH   7  11
ENDBRANCH   1   7
BRANCH   4  22
ATOM     22  C   UNL     1      48.876   8.534  14.519  0.00  0.00    +0.000 C 
BRANCH  22  23
ATOM     23  N   UNL     1      49.633   7.461  15.113  0.00  0.00    +0.000 N 
ATOM     24  C   UNL     1      50.526   7.704  16.124  0.00  0.00    +0.000 C 
ATOM     25  O   UNL     1      50.680   8.826  16.602  0.00  0.00    +0.000 OA
ATOM     26  H   UNL     1      49.695   6.596  14.587  0.00  0.00    +0.000 HD
BRANCH  24  27
ATOM     27  C   UNL     1      51.253   6.543  16.654  0.00  0.00    +0.000 A 
ATOM     28  C   UNL     1      52.628   6.614  16.829  0.00  0.00    +0.000 A 
ATOM     29  S   UNL     1      53.309   5.199  17.491  0.00  0.00    +0.000 S 
ATOM     30  C   UNL     1      51.797   4.423  17.523  0.00  0.00    +0.000 A 
ATOM     31  N   UNL     1      51.678   3.141  17.966  0.00  0.00    +0.000 NA
ATOM     32  C   UNL     1      50.478   2.667  17.910  0.00  0.00    +0.000 A 
ATOM     33  N   UNL     1      49.385   3.356  17.452  0.00  0.00    +0.000 N 
ATOM     34  C   UNL     1      49.453   4.662  17.023  0.00  0.00    +0.000 A 
ATOM     35  O   UNL     1      48.445   5.263  16.658  0.00  0.00    +0.000 OA
ATOM     36  C   UNL     1      50.781   5.239  17.054  0.00  0.00    +0.000 A 
ATOM     37  H   UNL     1      48.469   2.928  17.445  0.00  0.00    +0.000 HD
ENDBRANCH  24  27
ENDBRANCH  22  23
ENDBRANCH   4  22
TORSDOF 10
ENDMDL
MODEL 4
REMARK VINA RESULT:    -6.471      4.728      6.932
REMARK INTER + INTRA:         -11.448
REMARK INTER:                 -10.507
REMARK INTRA:                  -0.941
REMARK UNBOUND:                -1.383
REMARK  Name = 
REMARK  10 active torsions:
REMARK  status: ('A' for Active; 'I' for Inactive)
REMARK    1  A    between atoms: N_1  and  C_2
REMARK    2  A    between atoms: C_2  and  C_3
REMARK    3  A    between atoms: C_3  and  N_4
REMARK    4  A    between atoms: N_4  and  C_5
REMARK    5  A    between atoms: C_5  and  C_6
REMARK    6  A    between atoms: C_9  and  C_10
REMARK    7  A    between atoms: C_10  and  C_11
REMARK    8  A    between atoms: C_14  and  C_15
REMARK    9  A    between atoms: C_15  and  N_16
REMARK   10  A    between atoms: C_17  and  C_19
REMARK                            x       y       z     vdW  Elec       q    Type
REMARK                         _______ _______ _______ _____ _____    ______ ____
ROOT
ATOM      1  C   UNL     1      47.162   7.209  12.702  0.00  0.00    +0.000 A 
ATOM      2  C   UNL     1      47.348   8.360  11.926  0.00  0.00    +0.000 A 
ATOM      3  C   UNL     1      48.626   8.898  11.740  0.00  0.00    +0.000 A 
ATOM      4  C   UNL     1      49.746   8.286  12.316  0.00  0.00    +0.000 A 
ATOM      5  C   UNL     1      49.556   7.158  13.124  0.00  0.00    +0.000 A 
ATOM      6  C   UNL     1      48.280   6.619  13.307  0.00  0.00    +0.000 A 
ENDROOT
BRANCH   1   7
ATOM      7  C   UNL     1      45.786   6.606  12.870  0.00  0.00    +0.000 C 
BRANCH   7  11
ATOM      8  C   UNL     1      44.796   3.523  10.090  0.00  0.00    +0.000 A 
ATOM      9  C   UNL     1      45.261   4.738   9.597  0.00  0.00    +0.000 A 
ATOM     10  C   UNL     1      45.595   5.749  10.494  0.00  0.00    +0.000 A 
ATOM     11  C   UNL     1      45.449   5.536  11.866  0.00  0.00    +0.000 A 
ATOM     12  C   UNL     1      44.983   4.288  12.267  0.00  0.00    +0.000 A 
ATOM     13  N   UNL     1      44.654   3.285  11.421  0.00  0.00    +0.000 NA
BRANCH   8  14
ATOM     14  C   UNL     1      44.535   2.372   9.136  0.00  0.00    +0.000 C 
BRANCH  14  15
ATOM     15  N   UNL     1      45.746   1.608   8.770  0.00  0.00    +0.000 NA
ATOM     16  H   UNL     1      46.391   1.693   9.561  0.00  0.00    +0.000 HD
BRANCH  15  17
ATOM     17  C   UNL     1      46.448   2.206   7.617  0.00  0.00    +0.000 C 
BRANCH  17  18
ATOM     18  C   UNL     1      47.534   1.295   7.013  0.00  0.00    +0.000 C 
BRANCH  18  19
ATOM     19  N   UNL     1      48.561   2.085   6.322  0.00  0.00    +0.000 NA
ATOM     20  H   UNL     1      48.486   1.912   5.321  0.00  0.00    +0.000 HD
ATOM     21  H   UNL     1      49.479   1.740   6.601  0.00  0.00    +0.000 HD
ENDBRANCH  18  19
ENDBRANCH  17  18
ENDBRANCH  15  17
ENDBRANCH  14  15
ENDBRANCH   8  14
ENDBRANCH   7  11
ENDBRANCH   1   7
BRANCH   4  22
ATOM     22  C   UNL     1      51.131   8.838  12.094  0.00  0.00    +0.000 C 
BRANCH  22  23
ATOM     23  N   UNL     1      52.040   7.817  11.639  0.00  0.00    +0.000 N 
ATOM     24  C   UNL     1      52.848   8.025  10.551  0.00  0.00    +0.000 C 
ATOM     25  O   UNL     1      52.872   9.099   9.954  0.00  0.00    +0.000 OA
ATOM     26  H   UNL     1      51.867   6.870  11.961  0.00  0.00    +0.000 HD
BRANCH  24  27
ATOM     27  C   UNL     1      53.731   6.917  10.165  0.00  0.00    +0.000 A 
ATOM     28  C   UNL     1      54.738   6.507  11.028  0.00  0.00    +0.000 A 
ATOM     29  S   UNL     1      55.644   5.185  10.447  0.00  0.00    +0.000 S 
ATOM     30  C   UNL     1      54.754   5.144   8.999  0.00  0.00    +0.000 A 
ATOM     31  N   UNL     1      55.044   4.239   8.025  0.00  0.00    +0.000 NA
ATOM     32  C   UNL     1      54.308   4.338   6.969  0.00  0.00    +0.000 A 
ATOM     33  N   UNL     1      53.308   5.259   6.795  0.00  0.00    +0.000 N 
ATOM     34  C   UNL     1      52.961   6.174   7.763  0.00  0.00    +0.000 A 
ATOM     35  O   UNL     1      52.031   6.958   7.590  0.00  0.00    +0.000 OA
ATOM     36  C   UNL     1      53.765   6.113   8.966  0.00  0.00    +0.000 A 
ATOM     37  H   UNL     1      52.761   5.276   5.945  0.00  0.00    +0.000 HD
ENDBRANCH  24  27
ENDBRANCH  22  23
ENDBRANCH   4  22
TORSDOF 10
ENDMDL
MODEL 5
REMARK VINA RESULT:    -6.100      4.768      6.753
REMARK INTER + INTRA:         -10.871
REMARK INTER:                  -9.633
REMARK INTRA:                  -1.238
REMARK UNBOUND:                -1.383
REMARK  Name = 
REMARK  10 active torsions:
REMARK  status: ('A' for Active; 'I' for Inactive)
REMARK    1  A    between atoms: N_1  and  C_2
REMARK    2  A    between atoms: C_2  and  C_3
REMARK    3  A    between atoms: C_3  and  N_4
REMARK    4  A    between atoms: N_4  and  C_5
REMARK    5  A    between atoms: C_5  and  C_6
REMARK    6  A    between atoms: C_9  and  C_10
REMARK    7  A    between atoms: C_10  and  C_11
REMARK    8  A    between atoms: C_14  and  C_15
REMARK    9  A    between atoms: C_15  and  N_16
REMARK   10  A    between atoms: C_17  and  C_19
REMARK                            x       y       z     vdW  Elec       q    Type
REMARK                         _______ _______ _______ _____ _____    ______ ____
ROOT
ATOM      1  C   UNL     1      46.635   6.757  12.594  0.00  0.00    +0.000 A 
ATOM      2  C   UNL     1      46.902   8.059  12.151  0.00  0.00    +0.000 A 
ATOM      3  C   UNL     1      48.163   8.635  12.342  0.00  0.00    +0.000 A 
ATOM      4  C   UNL     1      49.187   7.913  12.968  0.00  0.00    +0.000 A 
ATOM      5  C   UNL     1      48.910   6.626  13.446  0.00  0.00    +0.000 A 
ATOM      6  C   UNL     1      47.650   6.050  13.253  0.00  0.00    +0.000 A 
ENDROOT
BRANCH   1   7
ATOM      7  C   UNL     1      45.284   6.122  12.353  0.00  0.00    +0.000 C 
BRANCH   7  11
ATOM      8  C   UNL     1      45.137   3.334   9.125  0.00  0.00    +0.000 A 
ATOM      9  C   UNL     1      45.607   4.619   8.872  0.00  0.00    +0.000 A 
ATOM     10  C   UNL     1      45.668   5.535   9.919  0.00  0.00    +0.000 A 
ATOM     11  C   UNL     1      45.248   5.159  11.196  0.00  0.00    +0.000 A 
ATOM     12  C   UNL     1      44.799   3.852  11.356  0.00  0.00    +0.000 A 
ATOM     13  N   UNL     1      44.731   2.939  10.361  0.00  0.00    +0.000 NA
BRANCH   8  14
ATOM     14  C   UNL     1      45.169   2.289   8.025  0.00  0.00    +0.000 C 
BRANCH  14  15
ATOM     15  N   UNL     1      46.018   1.119   8.333  0.00  0.00    +0.000 NA
ATOM     16  H   UNL     1      46.302   1.217   9.311  0.00  0.00    +0.000 HD
BRANCH  15  17
ATOM     17  C   UNL     1      47.270   1.125   7.551  0.00  0.00    +0.000 C 
BRANCH  17  18
ATOM     18  C   UNL     1      47.182   1.942   6.247  0.00  0.00    +0.000 C 
BRANCH  18  19
ATOM     19  N   UNL     1      48.466   1.940   5.535  0.00  0.00    +0.000 NA
ATOM     20  H   UNL     1      48.398   2.573   4.740  0.00  0.00    +0.000 HD
ATOM     21  H   UNL     1      48.619   1.010   5.145  0.00  0.00    +0.000 HD
ENDBRANCH  18  19
ENDBRANCH  17  18
ENDBRANCH  15  17
ENDBRANCH  14  15
ENDBRANCH   8  14
ENDBRANCH   7  11
ENDBRANCH   1   7
BRANCH   4  22
ATOM     22  C   UNL     1      50.559   8.511  13.147  0.00  0.00    +0.000 C 
BRANCH  22  23
ATOM     23  N   UNL     1      51.452   8.111  12.090  0.00  0.00    +0.000 N 
ATOM     24  C   UNL     1      52.795   8.376  12.163  0.00  0.00    +0.000 C 
ATOM     25  O   UNL     1      53.301   8.912  13.147  0.00  0.00    +0.000 OA
ATOM     26  H   UNL     1      51.033   7.890  11.192  0.00  0.00    +0.000 HD
BRANCH  24  27
ATOM     27  C   UNL     1      53.617   7.933  11.029  0.00  0.00    +0.000 A 
ATOM     28  C   UNL     1      54.559   6.930  11.212  0.00  0.00    +0.000 A 
ATOM     29  S   UNL     1      55.396   6.507   9.788  0.00  0.00    +0.000 S 
ATOM     30  C   UNL     1      54.563   7.684   8.887  0.00  0.00    +0.000 A 
ATOM     31  N   UNL     1      54.831   7.870   7.565  0.00  0.00    +0.000 NA
ATOM     32  C   UNL     1      54.146   8.814   7.011  0.00  0.00    +0.000 A 
ATOM     33  N   UNL     1      53.218   9.590   7.655  0.00  0.00    +0.000 N 
ATOM     34  C   UNL     1      52.895   9.418   8.982  0.00  0.00    +0.000 A 
ATOM     35  O   UNL     1      52.027  10.104   9.518  0.00  0.00    +0.000 OA
ATOM     36  C   UNL     1      53.644   8.378   9.656  0.00  0.00    +0.000 A 
ATOM     37  H   UNL     1      52.708  10.308   7.159  0.00  0.00    +0.000 HD
ENDBRANCH  24  27
ENDBRANCH  22  23
ENDBRANCH   4  22
TORSDOF 10
ENDMDL
MODEL 6
REMARK VINA RESULT:    -5.902      3.833      5.466
REMARK INTER + INTRA:         -10.563
REMARK INTER:                  -9.541
REMARK INTRA:                  -1.022
REMARK UNBOUND:                -1.383
REMARK  Name = 
REMARK  10 active torsions:
REMARK  status: ('A' for Active; 'I' for Inactive)
REMARK    1  A    between atoms: N_1  and  C_2
REMARK    2  A    between atoms: C_2  and  C_3
REMARK    3  A    between atoms: C_3  and  N_4
REMARK    4  A    between atoms: N_4  and  C_5
REMARK    5  A    between atoms: C_5  and  C_6
REMARK    6  A    between atoms: C_9  and  C_10
REMARK    7  A    between atoms: C_10  and  C_11
REMARK    8  A    between atoms: C_14  and  C_15
REMARK    9  A    between atoms: C_15  and  N_16
REMARK   10  A    between atoms: C_17  and  C_19
REMARK                            x       y       z     vdW  Elec       q    Type
REMARK                         _______ _______ _______ _____ _____    ______ ____
ROOT
ATOM      1  C   UNL     1      45.403   6.919  12.424  0.00  0.00    +0.000 A 
ATOM      2  C   UNL     1      46.400   6.054  12.894  0.00  0.00    +0.000 A 
ATOM      3  C   UNL     1      47.557   6.556  13.498  0.00  0.00    +0.000 A 
ATOM      4  C   UNL     1      47.735   7.936  13.657  0.00  0.00    +0.000 A 
ATOM      5  C   UNL     1      46.757   8.804  13.153  0.00  0.00    +0.000 A 
ATOM      6  C   UNL     1      45.600   8.301  12.551  0.00  0.00    +0.000 A 
ENDROOT
BRANCH   1   7
ATOM      7  C   UNL     1      44.136   6.374  11.806  0.00  0.00    +0.000 C 
BRANCH   7  11
ATOM      8  C   UNL     1      44.717   2.772   9.592  0.00  0.00    +0.000 A 
ATOM      9  C   UNL     1      43.964   2.719  10.761  0.00  0.00    +0.000 A 
ATOM     10  C   UNL     1      43.760   3.889  11.488  0.00  0.00    +0.000 A 
ATOM     11  C   UNL     1      44.320   5.089  11.044  0.00  0.00    +0.000 A 
ATOM     12  C   UNL     1      45.051   5.047   9.861  0.00  0.00    +0.000 A 
ATOM     13  N   UNL     1      45.264   3.928   9.132  0.00  0.00    +0.000 NA
BRANCH   8  14
ATOM     14  C   UNL     1      44.855   1.533   8.727  0.00  0.00    +0.000 C 
BRANCH  14  15
ATOM     15  N   UNL     1      46.251   1.196   8.379  0.00  0.00    +0.000 NA
ATOM     16  H   UNL     1      46.846   1.782   8.971  0.00  0.00    +0.000 HD
BRANCH  15  17
ATOM     17  C   UNL     1      46.578   1.569   6.989  0.00  0.00    +0.000 C 
BRANCH  17  18
ATOM     18  C   UNL     1      48.002   2.133   6.818  0.00  0.00    +0.000 C 
BRANCH  18  19
ATOM     19  N   UNL     1      48.506   1.891   5.460  0.00  0.00    +0.000 NA
ATOM     20  H   UNL     1      49.069   1.042   5.468  0.00  0.00    +0.000 HD
ATOM     21  H   UNL     1      49.140   2.649   5.209  0.00  0.00    +0.000 HD
ENDBRANCH  18  19
ENDBRANCH  17  18
ENDBRANCH  15  17
ENDBRANCH  14  15
ENDBRANCH   8  14
ENDBRANCH   7  11
ENDBRANCH   1   7
BRANCH   4  22
ATOM     22  C   UNL     1      48.962   8.487  14.338  0.00  0.00    +0.000 C 
BRANCH  22  23
ATOM     23  N   UNL     1      50.050   8.657  13.409  0.00  0.00    +0.000 N 
ATOM     24  C   UNL     1      51.349   8.695  13.844  0.00  0.00    +0.000 C 
ATOM     25  O   UNL     1      51.645   8.535  15.026  0.00  0.00    +0.000 OA
ATOM     26  H   UNL     1      49.818   9.021  12.490  0.00  0.00    +0.000 HD
BRANCH  24  27
ATOM     27  C   UNL     1      52.383   8.881  12.818  0.00  0.00    +0.000 A 
ATOM     28  C   UNL     1      53.486   9.680  13.089  0.00  0.00    +0.000 A 
ATOM     29  S   UNL     1      54.609   9.755  11.809  0.00  0.00    +0.000 S 
ATOM     30  C   UNL     1      53.638   8.762  10.828  0.00  0.00    +0.000 A 
ATOM     31  N   UNL     1      54.017   8.448   9.559  0.00  0.00    +0.000 NA
ATOM     32  C   UNL     1      53.173   7.710   8.918  0.00  0.00    +0.000 A 
ATOM     33  N   UNL     1      51.984   7.256   9.428  0.00  0.00    +0.000 N 
ATOM     34  C   UNL     1      51.575   7.525  10.715  0.00  0.00    +0.000 A 
ATOM     35  O   UNL     1      50.522   7.068  11.153  0.00  0.00    +0.000 OA
ATOM     36  C   UNL     1      52.481   8.361  11.475  0.00  0.00    +0.000 A 
ATOM     37  H   UNL     1      51.373   6.672   8.875  0.00  0.00    +0.000 HD
ENDBRANCH  24  27
ENDBRANCH  22  23
ENDBRANCH   4  22
TORSDOF 10
ENDMDL
MODEL 7
REMARK VINA RESULT:    -5.493      1.358      2.053
REMARK INTER + INTRA:          -9.927
REMARK INTER:                  -8.630
REMARK INTRA:                  -1.296
REMARK UNBOUND:                -1.383
REMARK  Name = 
REMARK  10 active torsions:
REMARK  status: ('A' for Active; 'I' for Inactive)
REMARK    1  A    between atoms: N_1  and  C_2
REMARK    2  A    between atoms: C_2  and  C_3
REMARK    3  A    between atoms: C_3  and  N_4
REMARK    4  A    between atoms: N_4  and  C_5
REMARK    5  A    between atoms: C_5  and  C_6
REMARK    6  A    between atoms: C_9  and  C_10
REMARK    7  A    between atoms: C_10  and  C_11
REMARK    8  A    between atoms: C_14  and  C_15
REMARK    9  A    between atoms: C_15  and  N_16
REMARK   10  A    between atoms: C_17  and  C_19
REMARK                            x       y       z     vdW  Elec       q    Type
REMARK                         _______ _______ _______ _____ _____    ______ ____
ROOT
ATOM      1  C   UNL     1      46.965   7.965  13.157  0.00  0.00    +0.000 A 
ATOM      2  C   UNL     1      47.291   9.014  14.026  0.00  0.00    +0.000 A 
ATOM      3  C   UNL     1      48.540   9.061  14.655  0.00  0.00    +0.000 A 
ATOM      4  C   UNL     1      49.494   8.063  14.416  0.00  0.00    +0.000 A 
ATOM      5  C   UNL     1      49.154   6.993  13.578  0.00  0.00    +0.000 A 
ATOM      6  C   UNL     1      47.907   6.948  12.949  0.00  0.00    +0.000 A 
ENDROOT
BRANCH   1   7
ATOM      7  C   UNL     1      45.630   7.936  12.449  0.00  0.00    +0.000 C 
BRANCH   7  11
ATOM      8  C   UNL     1      44.547   4.108  10.905  0.00  0.00    +0.000 A 
ATOM      9  C   UNL     1      44.199   4.418  12.216  0.00  0.00    +0.000 A 
ATOM     10  C   UNL     1      44.539   5.667  12.729  0.00  0.00    +0.000 A 
ATOM     11  C   UNL     1      45.230   6.580  11.931  0.00  0.00    +0.000 A 
ATOM     12  C   UNL     1      45.531   6.185  10.630  0.00  0.00    +0.000 A 
ATOM     13  N   UNL     1      45.211   4.982  10.103  0.00  0.00    +0.000 NA
BRANCH   8  14
ATOM     14  C   UNL     1      44.087   2.798  10.292  0.00  0.00    +0.000 C 
BRANCH  14  15
ATOM     15  N   UNL     1      45.137   2.089   9.532  0.00  0.00    +0.000 NA
ATOM     16  H   UNL     1      46.033   2.440   9.879  0.00  0.00    +0.000 HD
BRANCH  15  17
ATOM     17  C   UNL     1      45.104   2.431   8.096  0.00  0.00    +0.000 C 
BRANCH  17  18
ATOM     18  C   UNL     1      46.487   2.775   7.509  0.00  0.00    +0.000 C 
BRANCH  18  19
ATOM     19  N   UNL     1      46.556   4.187   7.115  0.00  0.00    +0.000 NA
ATOM     20  H   UNL     1      45.682   4.641   7.375  0.00  0.00    +0.000 HD
ATOM     21  H   UNL     1      46.609   4.238   6.098  0.00  0.00    +0.000 HD
ENDBRANCH  18  19
ENDBRANCH  17  18
ENDBRANCH  15  17
ENDBRANCH  14  15
ENDBRANCH   8  14
ENDBRANCH   7  11
ENDBRANCH   1   7
BRANCH   4  22
ATOM     22  C   UNL     1      50.855   8.122  15.061  0.00  0.00    +0.000 C 
BRANCH  22  23
ATOM     23  N   UNL     1      50.886   7.384  16.298  0.00  0.00    +0.000 N 
ATOM     24  C   UNL     1      50.930   8.033  17.505  0.00  0.00    +0.000 C 
ATOM     25  O   UNL     1      50.892   9.259  17.587  0.00  0.00    +0.000 OA
ATOM     26  H   UNL     1      51.152   6.407  16.245  0.00  0.00    +0.000 HD
BRANCH  24  27
ATOM     27  C   UNL     1      50.966   7.189  18.707  0.00  0.00    +0.000 A 
ATOM     28  C   UNL     1      52.072   7.234  19.544  0.00  0.00    +0.000 A 
ATOM     29  S   UNL     1      51.936   6.227  20.913  0.00  0.00    +0.000 S 
ATOM     30  C   UNL     1      50.415   5.659  20.409  0.00  0.00    +0.000 A 
ATOM     31  N   UNL     1      49.740   4.728  21.138  0.00  0.00    +0.000 NA
ATOM     32  C   UNL     1      48.611   4.366  20.626  0.00  0.00    +0.000 A 
ATOM     33  N   UNL     1      48.093   4.849  19.452  0.00  0.00    +0.000 N 
ATOM     34  C   UNL     1      48.727   5.811  18.698  0.00  0.00    +0.000 A 
ATOM     35  O   UNL     1      48.214   6.252  17.672  0.00  0.00    +0.000 OA
ATOM     36  C   UNL     1      50.006   6.244  19.223  0.00  0.00    +0.000 A 
ATOM     37  H   UNL     1      47.197   4.531  19.112  0.00  0.00    +0.000 HD
ENDBRANCH  24  27
ENDBRANCH  22  23
ENDBRANCH   4  22
TORSDOF 10
ENDMDL
MODEL 8
REMARK VINA RESULT:    -5.416      2.255      2.829
REMARK INTER + INTRA:          -9.807
REMARK INTER:                  -8.704
REMARK INTRA:                  -1.103
REMARK UNBOUND:                -1.383
REMARK  Name = 
REMARK  10 active torsions:
REMARK  status: ('A' for Active; 'I' for Inactive)
REMARK    1  A    between atoms: N_1  and  C_2
REMARK    2  A    between atoms: C_2  and  C_3
REMARK    3  A    between atoms: C_3  and  N_4
REMARK    4  A    between atoms: N_4  and  C_5
REMARK    5  A    between atoms: C_5  and  C_6
REMARK    6  A    between atoms: C_9  and  C_10
REMARK    7  A    between atoms: C_10  and  C_11
REMARK    8  A    between atoms: C_14  and  C_15
REMARK    9  A    between atoms: C_15  and  N_16
REMARK   10  A    between atoms: C_17  and  C_19
REMARK                            x       y       z     vdW  Elec       q    Type
REMARK                         _______ _______ _______ _____ _____    ______ ____
ROOT
ATOM      1  C   UNL     1      47.121   8.087  13.304  0.00  0.00    +0.000 A 
ATOM      2  C   UNL     1      47.226   8.924  14.423  0.00  0.00    +0.000 A 
ATOM      3  C   UNL     1      48.426   9.015  15.138  0.00  0.00    +0.000 A 
ATOM      4  C   UNL     1      49.549   8.279  14.738  0.00  0.00    +0.000 A 
ATOM      5  C   UNL     1      49.433   7.413  13.644  0.00  0.00    +0.000 A 
ATOM      6  C   UNL     1      48.235   7.324  12.929  0.00  0.00    +0.000 A 
ENDROOT
BRANCH   1   7
ATOM      7  C   UNL     1      45.836   8.019  12.510  0.00  0.00    +0.000 C 
BRANCH   7  11
ATOM      8  C   UNL     1      45.109   4.253  10.639  0.00  0.00    +0.000 A 
ATOM      9  C   UNL     1      44.920   4.359  12.013  0.00  0.00    +0.000 A 
ATOM     10  C   UNL     1      45.145   5.584  12.634  0.00  0.00    +0.000 A 
ATOM     11  C   UNL     1      45.567   6.679  11.878  0.00  0.00    +0.000 A 
ATOM     12  C   UNL     1      45.724   6.481  10.509  0.00  0.00    +0.000 A 
ATOM     13  N   UNL     1      45.509   5.305   9.877  0.00  0.00    +0.000 NA
BRANCH   8  14
ATOM     14  C   UNL     1      44.759   2.959   9.928  0.00  0.00    +0.000 C 
BRANCH  14  15
ATOM     15  N   UNL     1      45.688   2.605   8.834  0.00  0.00    +0.000 NA
ATOM     16  H   UNL     1      45.395   3.149   8.018  0.00  0.00    +0.000 HD
BRANCH  15  17
ATOM     17  C   UNL     1      45.557   1.189   8.436  0.00  0.00    +0.000 C 
BRANCH  17  18
ATOM     18  C   UNL     1      46.741   0.669   7.596  0.00  0.00    +0.000 C 
BRANCH  18  19
ATOM     19  N   UNL     1      46.800  -0.798   7.619  0.00  0.00    +0.000 NA
ATOM     20  H   UNL     1      46.000  -1.147   8.144  0.00  0.00    +0.000 HD
ATOM     21  H   UNL     1      47.628  -1.081   8.142  0.00  0.00    +0.000 HD
ENDBRANCH  18  19
ENDBRANCH  17  18
ENDBRANCH  15  17
ENDBRANCH  14  15
ENDBRANCH   8  14
ENDBRANCH   7  11
ENDBRANCH   1   7
BRANCH   4  22
ATOM     22  C   UNL     1      50.856   8.396  15.480  0.00  0.00    +0.000 C 
BRANCH  22  23
ATOM     23  N   UNL     1      51.364   7.103  15.863  0.00  0.00    +0.000 N 
ATOM     24  C   UNL     1      51.558   6.785  17.182  0.00  0.00    +0.000 C 
ATOM     25  O   UNL     1      51.261   7.558  18.090  0.00  0.00    +0.000 OA
ATOM     26  H   UNL     1      51.826   6.559  15.142  0.00  0.00    +0.000 HD
BRANCH  24  27
ATOM     27  C   UNL     1      52.088   5.444  17.465  0.00  0.00    +0.000 A 
ATOM     28  C   UNL     1      53.422   5.292  17.817  0.00  0.00    +0.000 A 
ATOM     29  S   UNL     1      53.863   3.680  18.153  0.00  0.00    +0.000 S 
ATOM     30  C   UNL     1      52.298   3.121  17.791  0.00  0.00    +0.000 A 
ATOM     31  N   UNL     1      51.997   1.795  17.856  0.00  0.00    +0.000 NA
ATOM     32  C   UNL     1      50.781   1.508  17.530  0.00  0.00    +0.000 A 
ATOM     33  N   UNL     1      49.837   2.425  17.145  0.00  0.00    +0.000 N 
ATOM     34  C   UNL     1      50.088   3.777  17.094  0.00  0.00    +0.000 A 
ATOM     35  O   UNL     1      49.206   4.574  16.784  0.00  0.00    +0.000 OA
ATOM     36  C   UNL     1      51.444   4.152  17.439  0.00  0.00    +0.000 A 
ATOM     37  H   UNL     1      48.897   2.134  16.912  0.00  0.00    +0.000 HD
ENDBRANCH  24  27
ENDBRANCH  22  23
ENDBRANCH   4  22
TORSDOF 10
ENDMDL
MODEL 9
REMARK VINA RESULT:    -4.970     10.727     11.966
REMARK INTER + INTRA:          -9.114
REMARK INTER:                  -7.495
REMARK INTRA:                  -1.618
REMARK UNBOUND:                -1.383
REMARK  Name = 
REMARK  10 active torsions:
REMARK  status: ('A' for Active; 'I' for Inactive)
REMARK    1  A    between atoms: N_1  and  C_2
REMARK    2  A    between atoms: C_2  and  C_3
REMARK    3  A    between atoms: C_3  and  N_4
REMARK    4  A    between atoms: N_4  and  C_5
REMARK    5  A    between atoms: C_5  and  C_6
REMARK    6  A    between atoms: C_9  and  C_10
REMARK    7  A    between atoms: C_10  and  C_11
REMARK    8  A    between atoms: C_14  and  C_15
REMARK    9  A    between atoms: C_15  and  N_16
REMARK   10  A    between atoms: C_17  and  C_19
REMARK                            x       y       z     vdW  Elec       q    Type
REMARK                         _______ _______ _______ _____ _____    ______ ____
ROOT
ATOM      1  C   UNL     1      41.242  -3.637  14.722  0.00  0.00    +0.000 A 
ATOM      2  C   UNL     1      40.581  -2.462  15.103  0.00  0.00    +0.000 A 
ATOM      3  C   UNL     1      40.318  -2.194  16.451  0.00  0.00    +0.000 A 
ATOM      4  C   UNL     1      40.722  -3.093  17.447  0.00  0.00    +0.000 A 
ATOM      5  C   UNL     1      41.348  -4.286  17.063  0.00  0.00    +0.000 A 
ATOM      6  C   UNL     1      41.613  -4.552  15.717  0.00  0.00    +0.000 A 
ENDROOT
BRANCH   1   7
ATOM      7  C   UNL     1      41.560  -3.907  13.269  0.00  0.00    +0.000 C 
BRANCH   7  11
ATOM      8  C   UNL     1      38.344  -3.174  10.561  0.00  0.00    +0.000 A 
ATOM      9  C   UNL     1      38.277  -4.294  11.383  0.00  0.00    +0.000 A 
ATOM     10  C   UNL     1      39.316  -4.540  12.277  0.00  0.00    +0.000 A 
ATOM     11  C   UNL     1      40.409  -3.672  12.327  0.00  0.00    +0.000 A 
ATOM     12  C   UNL     1      40.386  -2.575  11.472  0.00  0.00    +0.000 A 
ATOM     13  N   UNL     1      39.390  -2.308  10.596  0.00  0.00    +0.000 NA
BRANCH   8  14
ATOM     14  C   UNL     1      37.171  -2.828   9.662  0.00  0.00    +0.000 C 
BRANCH  14  15
ATOM     15  N   UNL     1      37.227  -1.462   9.100  0.00  0.00    +0.000 NA
ATOM     16  H   UNL     1      38.200  -1.156   9.182  0.00  0.00    +0.000 HD
BRANCH  15  17
ATOM     17  C   UNL     1      36.438  -0.505   9.898  0.00  0.00    +0.000 C 
BRANCH  17  18
ATOM     18  C   UNL     1      37.170   0.824  10.174  0.00  0.00    +0.000 C 
BRANCH  18  19
ATOM     19  N   UNL     1      38.287   0.627  11.106  0.00  0.00    +0.000 NA
ATOM     20  H   UNL     1      39.087   1.163  10.774  0.00  0.00    +0.000 HD
ATOM     21  H   UNL     1      38.569  -0.353  11.073  0.00  0.00    +0.000 HD
ENDBRANCH  18  19
ENDBRANCH  17  18
ENDBRANCH  15  17
ENDBRANCH  14  15
ENDBRANCH   8  14
ENDBRANCH   7  11
ENDBRANCH   1   7
BRANCH   4  22
ATOM     22  C   UNL     1      40.474  -2.798  18.904  0.00  0.00    +0.000 C 
BRANCH  22  23
ATOM     23  N   UNL     1      40.217  -1.397  19.123  0.00  0.00    +0.000 N 
ATOM     24  C   UNL     1      38.946  -0.944  19.369  0.00  0.00    +0.000 C 
ATOM     25  O   UNL     1      37.989  -1.709  19.465  0.00  0.00    +0.000 OA
ATOM     26  H   UNL     1      40.931  -0.745  18.819  0.00  0.00    +0.000 HD
BRANCH  24  27
ATOM     27  C   UNL     1      38.790   0.502  19.570  0.00  0.00    +0.000 A 
ATOM     28  C   UNL     1      38.991   1.047  20.831  0.00  0.00    +0.000 A 
ATOM     29  S   UNL     1      38.812   2.741  20.882  0.00  0.00    +0.000 S 
ATOM     30  C   UNL     1      38.410   2.802  19.231  0.00  0.00    +0.000 A 
ATOM     31  N   UNL     1      38.106   3.984  18.629  0.00  0.00    +0.000 NA
ATOM     32  C   UNL     1      37.793   3.881  17.380  0.00  0.00    +0.000 A 
ATOM     33  N   UNL     1      37.757   2.704  16.676  0.00  0.00    +0.000 N 
ATOM     34  C   UNL     1      38.085   1.490  17.237  0.00  0.00    +0.000 A 
ATOM     35  O   UNL     1      38.082   0.461  16.566  0.00  0.00    +0.000 OA
ATOM     36  C   UNL     1      38.432   1.549  18.642  0.00  0.00    +0.000 A 
ATOM     37  H   UNL     1      37.514   2.694  15.695  0.00  0.00    +0.000 HD
ENDBRANCH  24  27
ENDBRANCH  22  23
ENDBRANCH   4  22
TORSDOF 10
ENDMDL
