MODEL 1
REMARK VINA RESULT:    -8.470      0.000      0.000
REMARK INTER + INTRA:         -13.354
REMARK INTER:                 -12.431
REMARK INTRA:                  -0.923
REMARK UNBOUND:                -0.923
REMARK  Name = 
REMARK  8 active torsions:
REMARK  status: ('A' for Active; 'I' for Inactive)
REMARK    1  A    between atoms: C_2  and  C_3
REMARK    2  A    between atoms: C_7  and  C_8
REMARK    3  A    between atoms: C_8  and  N_9
REMARK    4  A    between atoms: N_9  and  C_10
REMARK    5  A    between atoms: C_10  and  C_11
REMARK    6  A    between atoms: C_14  and  C_15
REMARK    7  A    between atoms: C_15  and  N_16
REMARK    8  A    between atoms: C_17  and  C_19
REMARK                            x       y       z     vdW  Elec       q    Type
REMARK                         _______ _______ _______ _____ _____    ______ ____
ROOT
ATOM      1  C   UNL     1      44.649   6.112  11.987  0.00  0.00    +0.000 A 
ATOM      2  C   UNL     1      45.512   7.106  11.521  0.00  0.00    +0.000 A 
ATOM      3  C   UNL     1      46.743   7.296  12.140  0.00  0.00    +0.000 A 
ATOM      4  C   UNL     1      47.082   6.493  13.225  0.00  0.00    +0.000 A 
ATOM      5  N   UNL     1      46.271   5.503  13.679  0.00  0.00    +0.000 NA
ATOM      6  C   UNL     1      45.085   5.336  13.055  0.00  0.00    +0.000 A 
ENDROOT
BRANCH   1   7
ATOM      7  C   UNL     1      43.289   5.911  11.378  0.00  0.00    +0.000 C 
BRANCH   7   8
ATOM      8  N   UNL     1      43.303   5.080  10.172  0.00  0.00    +0.000 NA
ATOM      9  H   UNL     1      42.343   4.935   9.863  0.00  0.00    +0.000 HD
BRANCH   8  10
ATOM     10  C   UNL     1      43.914   3.769  10.399  0.00  0.00    +0.000 C 
BRANCH  10  15
ATOM     11  C   UNL     1      46.210   1.834   8.043  0.00  0.00    +0.000 A 
ATOM     12  C   UNL     1      46.786   2.871   7.302  0.00  0.00    +0.000 A 
ATOM     13  C   UNL     1      46.438   4.196   7.568  0.00  0.00    +0.000 A 
ATOM     14  C   UNL     1      45.516   4.492   8.574  0.00  0.00    +0.000 A 
ATOM     15  C   UNL     1      44.933   3.464   9.326  0.00  0.00    +0.000 A 
ATOM     16  C   UNL     1      45.283   2.132   9.045  0.00  0.00    +0.000 A 
BRANCH  11  18
ATOM     17  N   UNL     1      46.856  -0.632   7.566  0.00  0.00    +0.000 NA
ATOM     18  C   UNL     1      46.570   0.472   7.776  0.00  0.00    +0.000 C 
ENDBRANCH  11  18
ENDBRANCH  10  15
ENDBRANCH   8  10
ENDBRANCH   7   8
ENDBRANCH   1   7
BRANCH   4  19
ATOM     19  C   UNL     1      48.399   6.692  13.931  0.00  0.00    +0.000 C 
BRANCH  19  20
ATOM     20  N   UNL     1      48.236   6.796  15.363  0.00  0.00    +0.000 N 
ATOM     21  C   UNL     1      49.265   6.593  16.240  0.00  0.00    +0.000 C 
ATOM     22  O   UNL     1      50.400   6.313  15.862  0.00  0.00    +0.000 OA
ATOM     23  H   UNL     1      47.276   6.775  15.693  0.00  0.00    +0.000 HD
BRANCH  21  24
ATOM     24  C   UNL     1      48.961   6.800  17.661  0.00  0.00    +0.000 A 
ATOM     25  C   UNL     1      48.790   8.090  18.146  0.00  0.00    +0.000 A 
ATOM     26  S   UNL     1      48.395   8.154  19.802  0.00  0.00    +0.000 S 
ATOM     27  C   UNL     1      48.478   6.460  19.944  0.00  0.00    +0.000 A 
ATOM     28  N   UNL     1      48.262   5.847  21.138  0.00  0.00    +0.000 NA
ATOM     29  C   UNL     1      48.382   4.560  21.106  0.00  0.00    +0.000 A 
ATOM     30  N   UNL     1      48.695   3.833  19.988  0.00  0.00    +0.000 N 
ATOM     31  C   UNL     1      48.875   4.407  18.752  0.00  0.00    +0.000 A 
ATOM     32  O   UNL     1      49.073   3.719  17.757  0.00  0.00    +0.000 OA
ATOM     33  C   UNL     1      48.779   5.853  18.737  0.00  0.00    +0.000 A 
ATOM     34  H   UNL     1      48.755   2.827  20.022  0.00  0.00    +0.000 HD
ENDBRANCH  21  24
ENDBRANCH  19  20
ENDBRANCH   4  19
TORSDOF 8
ENDMDL
MODEL 2
REMARK VINA RESULT:    -8.343      1.247      1.863
REMARK INTER + INTRA:         -13.168
REMARK INTER:                 -11.928
REMARK INTRA:                  -1.240
REMARK UNBOUND:                -0.923
REMARK  Name = 
REMARK  8 active torsions:
REMARK  status: ('A' for Active; 'I' for Inactive)
REMARK    1  A    between atoms: C_2  and  C_3
REMARK    2  A    between atoms: C_7  and  C_8
REMARK    3  A    between atoms: C_8  and  N_9
REMARK    4  A    between atoms: N_9  and  C_10
REMARK    5  A    between atoms: C_10  and  C_11
REMARK    6  A    between atoms: C_14  and  C_15
REMARK    7  A    between atoms: C_15  and  N_16
REMARK    8  A    between atoms: C_17  and  C_19
REMARK                            x       y       z     vdW  Elec       q    Type
REMARK                         _______ _______ _______ _____ _____    ______ ____
ROOT
ATOM      1  C   UNL     1      44.637   6.097  11.965  0.00  0.00    +0.000 A 
ATOM      2  C   UNL     1      45.547   7.029  11.461  0.00  0.00    +0.000 A 
ATOM      3  C   UNL     1      46.746   7.252  12.129  0.00  0.00    +0.000 A 
ATOM      4  C   UNL     1      47.007   6.546  13.299  0.00  0.00    +0.000 A 
ATOM      5  N   UNL     1      46.150   5.617  13.795  0.00  0.00    +0.000 NA
ATOM      6  C   UNL     1      44.996   5.415  13.122  0.00  0.00    +0.000 A 
ENDROOT
BRANCH   1   7
ATOM      7  C   UNL     1      43.308   5.867  11.302  0.00  0.00    +0.000 C 
BRANCH   7   8
ATOM      8  N   UNL     1      43.407   5.173  10.016  0.00  0.00    +0.000 NA
ATOM      9  H   UNL     1      42.492   5.183   9.566  0.00  0.00    +0.000 HD
BRANCH   8  10
ATOM     10  C   UNL     1      43.832   3.779  10.159  0.00  0.00    +0.000 C 
BRANCH  10  15
ATOM     11  C   UNL     1      46.252   1.787   7.982  0.00  0.00    +0.000 A 
ATOM     12  C   UNL     1      46.897   2.809   7.277  0.00  0.00    +0.000 A 
ATOM     13  C   UNL     1      46.556   4.141   7.510  0.00  0.00    +0.000 A 
ATOM     14  C   UNL     1      45.571   4.460   8.448  0.00  0.00    +0.000 A 
ATOM     15  C   UNL     1      44.917   3.448   9.162  0.00  0.00    +0.000 A 
ATOM     16  C   UNL     1      45.262   2.108   8.914  0.00  0.00    +0.000 A 
BRANCH  11  18
ATOM     17  N   UNL     1      46.886  -0.691   7.552  0.00  0.00    +0.000 NA
ATOM     18  C   UNL     1      46.604   0.417   7.748  0.00  0.00    +0.000 C 
ENDBRANCH  11  18
ENDBRANCH  10  15
ENDBRANCH   8  10
ENDBRANCH   7   8
ENDBRANCH   1   7
BRANCH   4  19
ATOM     19  C   UNL     1      48.288   6.784  14.058  0.00  0.00    +0.000 C 
BRANCH  19  20
ATOM     20  N   UNL     1      48.161   6.443  15.456  0.00  0.00    +0.000 N 
ATOM     21  C   UNL     1      49.243   6.206  16.259  0.00  0.00    +0.000 C 
ATOM     22  O   UNL     1      50.395   6.277  15.840  0.00  0.00    +0.000 OA
ATOM     23  H   UNL     1      47.237   6.139  15.747  0.00  0.00    +0.000 HD
BRANCH  21  24
ATOM     24  C   UNL     1      48.957   5.936  17.674  0.00  0.00    +0.000 A 
ATOM     25  C   UNL     1      49.250   4.687  18.206  0.00  0.00    +0.000 A 
ATOM     26  S   UNL     1      48.902   4.552  19.869  0.00  0.00    +0.000 S 
ATOM     27  C   UNL     1      48.308   6.146  19.931  0.00  0.00    +0.000 A 
ATOM     28  N   UNL     1      47.818   6.666  21.088  0.00  0.00    +0.000 NA
ATOM     29  C   UNL     1      47.377   7.876  20.984  0.00  0.00    +0.000 A 
ATOM     30  N   UNL     1      47.386   8.614  19.829  0.00  0.00    +0.000 N 
ATOM     31  C   UNL     1      47.913   8.145  18.650  0.00  0.00    +0.000 A 
ATOM     32  O   UNL     1      47.979   8.861  17.656  0.00  0.00    +0.000 OA
ATOM     33  C   UNL     1      48.397   6.780  18.703  0.00  0.00    +0.000 A 
ATOM     34  H   UNL     1      47.044   9.563  19.815  0.00  0.00    +0.000 HD
ENDBRANCH  21  24
ENDBRANCH  19  20
ENDBRANCH   4  19
TORSDOF 8
ENDMDL
MODEL 3
REMARK VINA RESULT:    -7.984      1.649      1.928
REMARK INTER + INTRA:         -12.641
REMARK INTER:                 -11.443
REMARK INTRA:                  -1.197
REMARK UNBOUND:                -0.923
REMARK  Name = 
REMARK  8 active torsions:
REMARK  status: ('A' for Active; 'I' for Inactive)
REMARK    1  A    between atoms: C_2  and  C_3
REMARK    2  A    between atoms: C_7  and  C_8
REMARK    3  A    between atoms: C_8  and  N_9
REMARK    4  A    between atoms: N_9  and  C_10
REMARK    5  A    between atoms: C_10  and  C_11
REMARK    6  A    between atoms: C_14  and  C_15
REMARK    7  A    between atoms: C_15  and  N_16
REMARK    8  A    between atoms: C_17  and  C_19
REMARK                            x       y       z     vdW  Elec       q    Type
REMARK                         _______ _______ _______ _____ _____    ______ ____
ROOT
ATOM      1  C   UNL     1      44.510   5.515  12.867  0.00  0.00    +0.000 A 
ATOM      2  C   UNL     1      45.561   4.719  13.328  0.00  0.00    +0.000 A 
ATOM      3  C   UNL     1      46.863   5.208  13.293  0.00  0.00    +0.000 A 
ATOM      4  C   UNL     1      47.090   6.484  12.784  0.00  0.00    +0.000 A 
ATOM      5  N   UNL     1      46.081   7.286  12.354  0.00  0.00    +0.000 NA
ATOM      6  C   UNL     1      44.826   6.788  12.406  0.00  0.00    +0.000 A 
ENDROOT
BRANCH   1   7
ATOM      7  C   UNL     1      43.097   5.002  12.838  0.00  0.00    +0.000 C 
BRANCH   7   8
ATOM      8  N   UNL     1      42.712   4.417  11.552  0.00  0.00    +0.000 NA
ATOM      9  H   UNL     1      41.702   4.280  11.544  0.00  0.00    +0.000 HD
BRANCH   8  10
ATOM     10  C   UNL     1      43.351   3.122  11.309  0.00  0.00    +0.000 C 
BRANCH  10  15
ATOM     11  C   UNL     1      45.709   2.086   8.492  0.00  0.00    +0.000 A 
ATOM     12  C   UNL     1      45.940   3.311   7.859  0.00  0.00    +0.000 A 
ATOM     13  C   UNL     1      45.340   4.473   8.344  0.00  0.00    +0.000 A 
ATOM     14  C   UNL     1      44.508   4.418   9.465  0.00  0.00    +0.000 A 
ATOM     15  C   UNL     1      44.269   3.198  10.112  0.00  0.00    +0.000 A 
ATOM     16  C   UNL     1      44.872   2.032   9.610  0.00  0.00    +0.000 A 
BRANCH  11  18
ATOM     17  N   UNL     1      46.832  -0.072   7.592  0.00  0.00    +0.000 NA
ATOM     18  C   UNL     1      46.329   0.891   7.999  0.00  0.00    +0.000 C 
ENDBRANCH  11  18
ENDBRANCH  10  15
ENDBRANCH   8  10
ENDBRANCH   7   8
ENDBRANCH   1   7
BRANCH   4  19
ATOM     19  C   UNL     1      48.492   7.032  12.712  0.00  0.00    +0.000 C 
BRANCH  19  20
ATOM     20  N   UNL     1      49.155   6.995  13.995  0.00  0.00    +0.000 N 
ATOM     21  C   UNL     1      48.845   7.857  15.011  0.00  0.00    +0.000 C 
ATOM     22  O   UNL     1      47.973   8.714  14.897  0.00  0.00    +0.000 OA
ATOM     23  H   UNL     1      50.027   6.476  14.018  0.00  0.00    +0.000 HD
BRANCH  21  24
ATOM     24  C   UNL     1      49.559   7.653  16.278  0.00  0.00    +0.000 A 
ATOM     25  C   UNL     1      50.297   8.695  16.824  0.00  0.00    +0.000 A 
ATOM     26  S   UNL     1      51.024   8.310  18.317  0.00  0.00    +0.000 S 
ATOM     27  C   UNL     1      50.412   6.723  18.269  0.00  0.00    +0.000 A 
ATOM     28  N   UNL     1      50.691   5.836  19.261  0.00  0.00    +0.000 NA
ATOM     29  C   UNL     1      50.184   4.660  19.083  0.00  0.00    +0.000 A 
ATOM     30  N   UNL     1      49.421   4.294  18.005  0.00  0.00    +0.000 N 
ATOM     31  C   UNL     1      49.077   5.171  17.004  0.00  0.00    +0.000 A 
ATOM     32  O   UNL     1      48.325   4.832  16.096  0.00  0.00    +0.000 OA
ATOM     33  C   UNL     1      49.644   6.498  17.140  0.00  0.00    +0.000 A 
ATOM     34  H   UNL     1      49.037   3.365  17.932  0.00  0.00    +0.000 HD
ENDBRANCH  21  24
ENDBRANCH  19  20
ENDBRANCH   4  19
TORSDOF 8
ENDMDL
MODEL 4
REMARK VINA RESULT:    -7.825      2.813      3.510
REMARK INTER + INTRA:         -12.408
REMARK INTER:                 -11.444
REMARK INTRA:                  -0.964
REMARK UNBOUND:                -0.923
REMARK  Name = 
REMARK  8 active torsions:
REMARK  status: ('A' for Active; 'I' for Inactive)
REMARK    1  A    between atoms: C_2  and  C_3
REMARK    2  A    between atoms: C_7  and  C_8
REMARK    3  A    between atoms: C_8  and  N_9
REMARK    4  A    between atoms: N_9  and  C_10
REMARK    5  A    between atoms: C_10  and  C_11
REMARK    6  A    between atoms: C_14  and  C_15
REMARK    7  A    between atoms: C_15  and  N_16
REMARK    8  A    between atoms: C_17  and  C_19
REMARK                            x       y       z     vdW  Elec       q    Type
REMARK                         _______ _______ _______ _____ _____    ______ ____
ROOT
ATOM      1  C   UNL     1      46.581   4.415  13.470  0.00  0.00    +0.000 A 
ATOM      2  C   UNL     1      46.668   3.994  14.799  0.00  0.00    +0.000 A 
ATOM      3  C   UNL     1      47.481   4.687  15.690  0.00  0.00    +0.000 A 
ATOM      4  C   UNL     1      48.204   5.783  15.229  0.00  0.00    +0.000 A 
ATOM      5  N   UNL     1      48.115   6.227  13.948  0.00  0.00    +0.000 NA
ATOM      6  C   UNL     1      47.312   5.540  13.107  0.00  0.00    +0.000 A 
ENDROOT
BRANCH   1   7
ATOM      7  C   UNL     1      45.755   3.661  12.466  0.00  0.00    +0.000 C 
BRANCH   7   8
ATOM      8  N   UNL     1      44.534   4.365  12.064  0.00  0.00    +0.000 NA
ATOM      9  H   UNL     1      43.891   4.383  12.855  0.00  0.00    +0.000 HD
BRANCH   8  10
ATOM     10  C   UNL     1      43.856   3.719  10.938  0.00  0.00    +0.000 C 
BRANCH  10  15
ATOM     11  C   UNL     1      46.062   2.090   8.283  0.00  0.00    +0.000 A 
ATOM     12  C   UNL     1      46.522   3.208   7.581  0.00  0.00    +0.000 A 
ATOM     13  C   UNL     1      46.127   4.488   7.968  0.00  0.00    +0.000 A 
ATOM     14  C   UNL     1      45.272   4.659   9.059  0.00  0.00    +0.000 A 
ATOM     15  C   UNL     1      44.803   3.549   9.774  0.00  0.00    +0.000 A 
ATOM     16  C   UNL     1      45.201   2.262   9.370  0.00  0.00    +0.000 A 
BRANCH  11  18
ATOM     17  N   UNL     1      46.809  -0.292   7.579  0.00  0.00    +0.000 NA
ATOM     18  C   UNL     1      46.471   0.773   7.891  0.00  0.00    +0.000 C 
ENDBRANCH  11  18
ENDBRANCH  10  15
ENDBRANCH   8  10
ENDBRANCH   7   8
ENDBRANCH   1   7
BRANCH   4  19
ATOM     19  C   UNL     1      49.112   6.540  16.164  0.00  0.00    +0.000 C 
BRANCH  19  20
ATOM     20  N   UNL     1      50.194   5.716  16.653  0.00  0.00    +0.000 N 
ATOM     21  C   UNL     1      50.410   5.495  17.985  0.00  0.00    +0.000 C 
ATOM     22  O   UNL     1      49.688   5.979  18.853  0.00  0.00    +0.000 OA
ATOM     23  H   UNL     1      50.930   5.523  15.980  0.00  0.00    +0.000 HD
BRANCH  21  24
ATOM     24  C   UNL     1      51.509   4.582  18.324  0.00  0.00    +0.000 A 
ATOM     25  C   UNL     1      52.594   5.055  19.052  0.00  0.00    +0.000 A 
ATOM     26  S   UNL     1      53.757   3.859  19.401  0.00  0.00    +0.000 S 
ATOM     27  C   UNL     1      52.875   2.674  18.557  0.00  0.00    +0.000 A 
ATOM     28  N   UNL     1      53.339   1.401  18.449  0.00  0.00    +0.000 NA
ATOM     29  C   UNL     1      52.580   0.613  17.760  0.00  0.00    +0.000 A 
ATOM     30  N   UNL     1      51.399   0.984  17.173  0.00  0.00    +0.000 N 
ATOM     31  C   UNL     1      50.870   2.246  17.296  0.00  0.00    +0.000 A 
ATOM     32  O   UNL     1      49.771   2.521  16.826  0.00  0.00    +0.000 OA
ATOM     33  C   UNL     1      51.696   3.179  18.037  0.00  0.00    +0.000 A 
ATOM     34  H   UNL     1      50.841   0.317  16.663  0.00  0.00    +0.000 HD
ENDBRANCH  21  24
ENDBRANCH  19  20
ENDBRANCH   4  19
TORSDOF 8
ENDMDL
MODEL 5
REMARK VINA RESULT:    -7.696      3.454      5.061
REMARK INTER + INTRA:         -12.218
REMARK INTER:                 -10.928
REMARK INTRA:                  -1.290
REMARK UNBOUND:                -0.923
REMARK  Name = 
REMARK  8 active torsions:
REMARK  status: ('A' for Active; 'I' for Inactive)
REMARK    1  A    between atoms: C_2  and  C_3
REMARK    2  A    between atoms: C_7  and  C_8
REMARK    3  A    between atoms: C_8  and  N_9
REMARK    4  A    between atoms: N_9  and  C_10
REMARK    5  A    between atoms: C_10  and  C_11
REMARK    6  A    between atoms: C_14  and  C_15
REMARK    7  A    between atoms: C_15  and  N_16
REMARK    8  A    between atoms: C_17  and  C_19
REMARK                            x       y       z     vdW  Elec       q    Type
REMARK                         _______ _______ _______ _____ _____    ______ ____
ROOT
ATOM      1  C   UNL     1      47.518   5.829  14.112  0.00  0.00    +0.000 A 
ATOM      2  C   UNL     1      48.168   6.250  15.274  0.00  0.00    +0.000 A 
ATOM      3  C   UNL     1      48.304   5.373  16.344  0.00  0.00    +0.000 A 
ATOM      4  C   UNL     1      47.774   4.090  16.236  0.00  0.00    +0.000 A 
ATOM      5  N   UNL     1      47.161   3.649  15.107  0.00  0.00    +0.000 NA
ATOM      6  C   UNL     1      47.049   4.520  14.080  0.00  0.00    +0.000 A 
ENDROOT
BRANCH   1   7
ATOM      7  C   UNL     1      47.304   6.764  12.955  0.00  0.00    +0.000 C 
BRANCH   7   8
ATOM      8  N   UNL     1      46.041   7.503  13.024  0.00  0.00    +0.000 NA
ATOM      9  H   UNL     1      45.525   7.193  13.847  0.00  0.00    +0.000 HD
BRANCH   8  10
ATOM     10  C   UNL     1      45.198   7.289  11.846  0.00  0.00    +0.000 C 
BRANCH  10  15
ATOM     11  C   UNL     1      44.297   3.705  10.895  0.00  0.00    +0.000 A 
ATOM     12  C   UNL     1      43.461   3.338  11.954  0.00  0.00    +0.000 A 
ATOM     13  C   UNL     1      43.181   4.250  12.972  0.00  0.00    +0.000 A 
ATOM     14  C   UNL     1      43.734   5.533  12.937  0.00  0.00    +0.000 A 
ATOM     15  C   UNL     1      44.573   5.915  11.882  0.00  0.00    +0.000 A 
ATOM     16  C   UNL     1      44.855   4.986  10.865  0.00  0.00    +0.000 A 
BRANCH  11  18
ATOM     17  N   UNL     1      44.815   2.022   8.991  0.00  0.00    +0.000 NA
ATOM     18  C   UNL     1      44.581   2.771   9.845  0.00  0.00    +0.000 C 
ENDBRANCH  11  18
ENDBRANCH  10  15
ENDBRANCH   8  10
ENDBRANCH   7   8
ENDBRANCH   1   7
BRANCH   4  19
ATOM     19  C   UNL     1      47.886   3.125  17.388  0.00  0.00    +0.000 C 
BRANCH  19  20
ATOM     20  N   UNL     1      49.261   2.878  17.757  0.00  0.00    +0.000 N 
ATOM     21  C   UNL     1      50.106   2.121  16.994  0.00  0.00    +0.000 C 
ATOM     22  O   UNL     1      49.748   1.606  15.937  0.00  0.00    +0.000 OA
ATOM     23  H   UNL     1      49.493   3.077  18.726  0.00  0.00    +0.000 HD
BRANCH  21  24
ATOM     24  C   UNL     1      51.492   2.015  17.466  0.00  0.00    +0.000 A 
ATOM     25  C   UNL     1      52.050   0.761  17.680  0.00  0.00    +0.000 A 
ATOM     26  S   UNL     1      53.679   0.813  18.180  0.00  0.00    +0.000 S 
ATOM     27  C   UNL     1      53.686   2.514  18.171  0.00  0.00    +0.000 A 
ATOM     28  N   UNL     1      54.796   3.212  18.531  0.00  0.00    +0.000 NA
ATOM     29  C   UNL     1      54.653   4.496  18.503  0.00  0.00    +0.000 A 
ATOM     30  N   UNL     1      53.501   5.144  18.142  0.00  0.00    +0.000 N 
ATOM     31  C   UNL     1      52.371   4.481  17.727  0.00  0.00    +0.000 A 
ATOM     32  O   UNL     1      51.385   5.095  17.333  0.00  0.00    +0.000 OA
ATOM     33  C   UNL     1      52.469   3.036  17.767  0.00  0.00    +0.000 A 
ATOM     34  H   UNL     1      53.456   6.152  18.121  0.00  0.00    +0.000 HD
ENDBRANCH  21  24
ENDBRANCH  19  20
ENDBRANCH   4  19
TORSDOF 8
ENDMDL
MODEL 6
REMARK VINA RESULT:    -7.682      3.340      8.899
REMARK INTER + INTRA:         -12.197
REMARK INTER:                 -10.459
REMARK INTRA:                  -1.738
REMARK UNBOUND:                -0.923
REMARK  Name = 
REMARK  8 active torsions:
REMARK  status: ('A' for Active; 'I' for Inactive)
REMARK    1  A    between atoms: C_2  and  C_3
REMARK    2  A    between atoms: C_7  and  C_8
REMARK    3  A    between atoms: C_8  and  N_9
REMARK    4  A    between atoms: N_9  and  C_10
REMARK    5  A    between atoms: C_10  and  C_11
REMARK    6  A    between atoms: C_14  and  C_15
REMARK    7  A    between atoms: C_15  and  N_16
REMARK    8  A    between atoms: C_17  and  C_19
REMARK                            x       y       z     vdW  Elec       q    Type
REMARK                         _______ _______ _______ _____ _____    ______ ____
ROOT
ATOM      1  C   UNL     1      49.102   8.062  15.962  0.00  0.00    +0.000 A 
ATOM      2  C   UNL     1      49.471   6.983  15.157  0.00  0.00    +0.000 A 
ATOM      3  C   UNL     1      48.962   6.879  13.867  0.00  0.00    +0.000 A 
ATOM      4  C   UNL     1      48.081   7.855  13.410  0.00  0.00    +0.000 A 
ATOM      5  N   UNL     1      47.729   8.927  14.165  0.00  0.00    +0.000 NA
ATOM      6  C   UNL     1      48.243   9.006  15.411  0.00  0.00    +0.000 A 
ENDROOT
BRANCH   1   7
ATOM      7  C   UNL     1      49.588   8.181  17.380  0.00  0.00    +0.000 C 
BRANCH   7   8
ATOM      8  N   UNL     1      48.628   7.690  18.372  0.00  0.00    +0.000 NA
ATOM      9  H   UNL     1      48.460   8.425  19.058  0.00  0.00    +0.000 HD
BRANCH   8  10
ATOM     10  C   UNL     1      49.110   6.503  19.082  0.00  0.00    +0.000 C 
BRANCH  10  15
ATOM     11  C   UNL     1      49.418   3.076  17.430  0.00  0.00    +0.000 A 
ATOM     12  C   UNL     1      48.121   2.885  16.944  0.00  0.00    +0.000 A 
ATOM     13  C   UNL     1      47.148   3.865  17.142  0.00  0.00    +0.000 A 
ATOM     14  C   UNL     1      47.466   5.041  17.826  0.00  0.00    +0.000 A 
ATOM     15  C   UNL     1      48.762   5.247  18.318  0.00  0.00    +0.000 A 
ATOM     16  C   UNL     1      49.732   4.250  18.120  0.00  0.00    +0.000 A 
BRANCH  11  18
ATOM     17  N   UNL     1      51.232   1.259  17.063  0.00  0.00    +0.000 NA
ATOM     18  C   UNL     1      50.420   2.073  17.223  0.00  0.00    +0.000 C 
ENDBRANCH  11  18
ENDBRANCH  10  15
ENDBRANCH   8  10
ENDBRANCH   7   8
ENDBRANCH   1   7
BRANCH   4  19
ATOM     19  C   UNL     1      47.495   7.757  12.025  0.00  0.00    +0.000 C 
BRANCH  19  20
ATOM     20  N   UNL     1      46.794   6.511  11.820  0.00  0.00    +0.000 N 
ATOM     21  C   UNL     1      45.429   6.420  11.837  0.00  0.00    +0.000 C 
ATOM     22  O   UNL     1      44.712   7.400  12.023  0.00  0.00    +0.000 OA
ATOM     23  H   UNL     1      47.359   5.673  11.916  0.00  0.00    +0.000 HD
BRANCH  21  24
ATOM     24  C   UNL     1      44.860   5.098  11.547  0.00  0.00    +0.000 A 
ATOM     25  C   UNL     1      44.129   4.436  12.524  0.00  0.00    +0.000 A 
ATOM     26  S   UNL     1      43.499   2.938  12.012  0.00  0.00    +0.000 S 
ATOM     27  C   UNL     1      44.216   3.099  10.477  0.00  0.00    +0.000 A 
ATOM     28  N   UNL     1      44.083   2.125   9.537  0.00  0.00    +0.000 NA
ATOM     29  C   UNL     1      44.700   2.367   8.427  0.00  0.00    +0.000 A 
ATOM     30  N   UNL     1      45.434   3.496   8.173  0.00  0.00    +0.000 N 
ATOM     31  C   UNL     1      45.556   4.524   9.075  0.00  0.00    +0.000 A 
ATOM     32  O   UNL     1      46.153   5.555   8.784  0.00  0.00    +0.000 OA
ATOM     33  C   UNL     1      44.906   4.292  10.350  0.00  0.00    +0.000 A 
ATOM     34  H   UNL     1      45.878   3.636   7.278  0.00  0.00    +0.000 HD
ENDBRANCH  21  24
ENDBRANCH  19  20
ENDBRANCH   4  19
TORSDOF 8
ENDMDL
MODEL 7
REMARK VINA RESULT:    -7.425      2.091      2.742
REMARK INTER + INTRA:         -11.820
REMARK INTER:                 -11.018
REMARK INTRA:                  -0.802
REMARK UNBOUND:                -0.923
REMARK  Name = 
REMARK  8 active torsions:
REMARK  status: ('A' for Active; 'I' for Inactive)
REMARK    1  A    between atoms: C_2  and  C_3
REMARK    2  A    between atoms: C_7  and  C_8
REMARK    3  A    between atoms: C_8  and  N_9
REMARK    4  A    between atoms: N_9  and  C_10
REMARK    5  A    between atoms: C_10  and  C_11
REMARK    6  A    between atoms: C_14  and  C_15
REMARK    7  A    between atoms: C_15  and  N_16
REMARK    8  A    between atoms: C_17  and  C_19
REMARK                            x       y       z     vdW  Elec       q    Type
REMARK                         _______ _______ _______ _____ _____    ______ ____
ROOT
ATOM      1  C   UNL     1      44.027   4.811  12.155  0.00  0.00    +0.000 A 
ATOM      2  C   UNL     1      45.112   4.916  13.028  0.00  0.00    +0.000 A 
ATOM      3  C   UNL     1      45.712   6.153  13.235  0.00  0.00    +0.000 A 
ATOM      4  C   UNL     1      45.221   7.263  12.553  0.00  0.00    +0.000 A 
ATOM      5  N   UNL     1      44.151   7.190  11.720  0.00  0.00    +0.000 NA
ATOM      6  C   UNL     1      43.583   5.977  11.543  0.00  0.00    +0.000 A 
ENDROOT
BRANCH   1   7
ATOM      7  C   UNL     1      43.386   3.482  11.864  0.00  0.00    +0.000 C 
BRANCH   7   8
ATOM      8  N   UNL     1      44.323   2.478  11.357  0.00  0.00    +0.000 NA
ATOM      9  H   UNL     1      45.272   2.837  11.453  0.00  0.00    +0.000 HD
BRANCH   8  10
ATOM     10  C   UNL     1      44.095   2.156   9.947  0.00  0.00    +0.000 C 
BRANCH  10  15
ATOM     11  C   UNL     1      46.827   2.837   7.371  0.00  0.00    +0.000 A 
ATOM     12  C   UNL     1      46.884   4.234   7.390  0.00  0.00    +0.000 A 
ATOM     13  C   UNL     1      46.046   4.957   8.239  0.00  0.00    +0.000 A 
ATOM     14  C   UNL     1      45.148   4.288   9.074  0.00  0.00    +0.000 A 
ATOM     15  C   UNL     1      45.080   2.889   9.068  0.00  0.00    +0.000 A 
ATOM     16  C   UNL     1      45.923   2.170   8.202  0.00  0.00    +0.000 A 
BRANCH  11  18
ATOM     17  N   UNL     1      48.390   1.482   5.807  0.00  0.00    +0.000 NA
ATOM     18  C   UNL     1      47.692   2.092   6.503  0.00  0.00    +0.000 C 
ENDBRANCH  11  18
ENDBRANCH  10  15
ENDBRANCH   8  10
ENDBRANCH   7   8
ENDBRANCH   1   7
BRANCH   4  19
ATOM     19  C   UNL     1      45.866   8.613  12.739  0.00  0.00    +0.000 C 
BRANCH  19  20
ATOM     20  N   UNL     1      46.645   8.679  13.955  0.00  0.00    +0.000 N 
ATOM     21  C   UNL     1      48.011   8.610  13.961  0.00  0.00    +0.000 C 
ATOM     22  O   UNL     1      48.663   8.493  12.927  0.00  0.00    +0.000 OA
ATOM     23  H   UNL     1      46.125   8.522  14.812  0.00  0.00    +0.000 HD
BRANCH  21  24
ATOM     24  C   UNL     1      48.665   8.758  15.267  0.00  0.00    +0.000 A 
ATOM     25  C   UNL     1      48.959  10.027  15.747  0.00  0.00    +0.000 A 
ATOM     26  S   UNL     1      49.671  10.026  17.295  0.00  0.00    +0.000 S 
ATOM     27  C   UNL     1      49.652   8.326  17.364  0.00  0.00    +0.000 A 
ATOM     28  N   UNL     1      50.153   7.664  18.441  0.00  0.00    +0.000 NA
ATOM     29  C   UNL     1      50.097   6.376  18.348  0.00  0.00    +0.000 A 
ATOM     30  N   UNL     1      49.582   5.692  17.278  0.00  0.00    +0.000 N 
ATOM     31  C   UNL     1      49.024   6.320  16.191  0.00  0.00    +0.000 A 
ATOM     32  O   UNL     1      48.499   5.678  15.288  0.00  0.00    +0.000 OA
ATOM     33  C   UNL     1      49.086   7.768  16.231  0.00  0.00    +0.000 A 
ATOM     34  H   UNL     1      49.549   4.684  17.272  0.00  0.00    +0.000 HD
ENDBRANCH  21  24
ENDBRANCH  19  20
ENDBRANCH   4  19
TORSDOF 8
ENDMDL
MODEL 8
REMARK VINA RESULT:    -7.298      3.428      9.003
REMARK INTER + INTRA:         -11.633
REMARK INTER:                 -10.281
REMARK INTRA:                  -1.352
REMARK UNBOUND:                -0.923
REMARK  Name = 
REMARK  8 active torsions:
REMARK  status: ('A' for Active; 'I' for Inactive)
REMARK    1  A    between atoms: C_2  and  C_3
REMARK    2  A    between atoms: C_7  and  C_8
REMARK    3  A    between atoms: C_8  and  N_9
REMARK    4  A    between atoms: N_9  and  C_10
REMARK    5  A    between atoms: C_10  and  C_11
REMARK    6  A    between atoms: C_14  and  C_15
REMARK    7  A    between atoms: C_15  and  N_16
REMARK    8  A    between atoms: C_17  and  C_19
REMARK                            x       y       z     vdW  Elec       q    Type
REMARK                         _______ _______ _______ _____ _____    ______ ____
ROOT
ATOM      1  C   UNL     1      50.859   7.596  15.148  0.00  0.00    +0.000 A 
ATOM      2  C   UNL     1      51.209   8.136  13.908  0.00  0.00    +0.000 A 
ATOM      3  C   UNL     1      50.238   8.282  12.923  0.00  0.00    +0.000 A 
ATOM      4  C   UNL     1      48.936   7.874  13.193  0.00  0.00    +0.000 A 
ATOM      5  N   UNL     1      48.567   7.371  14.400  0.00  0.00    +0.000 NA
ATOM      6  C   UNL     1      49.528   7.246  15.341  0.00  0.00    +0.000 A 
ENDROOT
BRANCH   1   7
ATOM      7  C   UNL     1      51.889   7.373  16.220  0.00  0.00    +0.000 C 
BRANCH   7   8
ATOM      8  N   UNL     1      51.330   6.857  17.472  0.00  0.00    +0.000 NA
ATOM      9  H   UNL     1      51.343   7.601  18.168  0.00  0.00    +0.000 HD
BRANCH   8  10
ATOM     10  C   UNL     1      52.089   5.722  18.001  0.00  0.00    +0.000 C 
BRANCH  10  15
ATOM     11  C   UNL     1      49.253   3.242  17.393  0.00  0.00    +0.000 A 
ATOM     12  C   UNL     1      49.957   2.041  17.265  0.00  0.00    +0.000 A 
ATOM     13  C   UNL     1      51.347   2.029  17.382  0.00  0.00    +0.000 A 
ATOM     14  C   UNL     1      52.041   3.216  17.629  0.00  0.00    +0.000 A 
ATOM     15  C   UNL     1      51.348   4.427  17.761  0.00  0.00    +0.000 A 
ATOM     16  C   UNL     1      49.949   4.430  17.633  0.00  0.00    +0.000 A 
BRANCH  11  18
ATOM     17  N   UNL     1      46.668   3.275  17.188  0.00  0.00    +0.000 NA
ATOM     18  C   UNL     1      47.824   3.255  17.279  0.00  0.00    +0.000 C 
ENDBRANCH  11  18
ENDBRANCH  10  15
ENDBRANCH   8  10
ENDBRANCH   7   8
ENDBRANCH   1   7
BRANCH   4  19
ATOM     19  C   UNL     1      47.868   7.998  12.137  0.00  0.00    +0.000 C 
BRANCH  19  20
ATOM     20  N   UNL     1      47.107   6.779  11.989  0.00  0.00    +0.000 N 
ATOM     21  C   UNL     1      45.752   6.729  12.169  0.00  0.00    +0.000 C 
ATOM     22  O   UNL     1      45.094   7.724  12.463  0.00  0.00    +0.000 OA
ATOM     23  H   UNL     1      47.652   5.923  11.998  0.00  0.00    +0.000 HD
BRANCH  21  24
ATOM     24  C   UNL     1      45.109   5.432  11.919  0.00  0.00    +0.000 A 
ATOM     25  C   UNL     1      44.436   4.790  12.951  0.00  0.00    +0.000 A 
ATOM     26  S   UNL     1      43.708   3.322  12.483  0.00  0.00    +0.000 S 
ATOM     27  C   UNL     1      44.301   3.469  10.895  0.00  0.00    +0.000 A 
ATOM     28  N   UNL     1      44.052   2.510   9.964  0.00  0.00    +0.000 NA
ATOM     29  C   UNL     1      44.584   2.738   8.808  0.00  0.00    +0.000 A 
ATOM     30  N   UNL     1      45.338   3.839   8.500  0.00  0.00    +0.000 N 
ATOM     31  C   UNL     1      45.575   4.854   9.395  0.00  0.00    +0.000 A 
ATOM     32  O   UNL     1      46.186   5.864   9.061  0.00  0.00    +0.000 OA
ATOM     33  C   UNL     1      45.024   4.636  10.718  0.00  0.00    +0.000 A 
ATOM     34  H   UNL     1      45.712   3.971   7.572  0.00  0.00    +0.000 HD
ENDBRANCH  21  24
ENDBRANCH  19  20
ENDBRANCH   4  19
TORSDOF 8
ENDMDL
MODEL 9
REMARK VINA RESULT:    -7.234      3.495      4.863
REMARK INTER + INTRA:         -11.540
REMARK INTER:                 -10.250
REMARK INTRA:                  -1.291
REMARK UNBOUND:                -0.923
REMARK  Name = 
REMARK  8 active torsions:
REMARK  status: ('A' for Active; 'I' for Inactive)
REMARK    1  A    between atoms: C_2  and  C_3
REMARK    2  A    between atoms: C_7  and  C_8
REMARK    3  A    between atoms: C_8  and  N_9
REMARK    4  A    between atoms: N_9  and  C_10
REMARK    5  A    between atoms: C_10  and  C_11
REMARK    6  A    between atoms: C_14  and  C_15
REMARK    7  A    between atoms: C_15  and  N_16
REMARK    8  A    between atoms: C_17  and  C_19
REMARK                            x       y       z     vdW  Elec       q    Type
REMARK                         _______ _______ _______ _____ _____    ______ ____
ROOT
ATOM      1  C   UNL     1      47.345   5.903  13.675  0.00  0.00    +0.000 A 
ATOM      2  C   UNL     1      46.755   4.713  14.107  0.00  0.00    +0.000 A 
ATOM      3  C   UNL     1      47.126   4.164  15.330  0.00  0.00    +0.000 A 
ATOM      4  C   UNL     1      48.093   4.811  16.093  0.00  0.00    +0.000 A 
ATOM      5  N   UNL     1      48.662   5.982  15.706  0.00  0.00    +0.000 NA
ATOM      6  C   UNL     1      48.277   6.497  14.518  0.00  0.00    +0.000 A 
ENDROOT
BRANCH   1   7
ATOM      7  C   UNL     1      47.009   6.499  12.336  0.00  0.00    +0.000 C 
BRANCH   7   8
ATOM      8  N   UNL     1      45.891   7.445  12.380  0.00  0.00    +0.000 NA
ATOM      9  H   UNL     1      45.455   7.394  13.300  0.00  0.00    +0.000 HD
BRANCH   8  10
ATOM     10  C   UNL     1      44.869   7.154  11.372  0.00  0.00    +0.000 C 
BRANCH  10  15
ATOM     11  C   UNL     1      44.388   3.441  10.635  0.00  0.00    +0.000 A 
ATOM     12  C   UNL     1      43.581   3.047  11.707  0.00  0.00    +0.000 A 
ATOM     13  C   UNL     1      43.186   3.982  12.664  0.00  0.00    +0.000 A 
ATOM     14  C   UNL     1      43.593   5.313  12.555  0.00  0.00    +0.000 A 
ATOM     15  C   UNL     1      44.400   5.723  11.486  0.00  0.00    +0.000 A 
ATOM     16  C   UNL     1      44.800   4.772  10.531  0.00  0.00    +0.000 A 
BRANCH  11  18
ATOM     17  N   UNL     1      45.111   1.713   8.840  0.00  0.00    +0.000 NA
ATOM     18  C   UNL     1      44.790   2.483   9.646  0.00  0.00    +0.000 C 
ENDBRANCH  11  18
ENDBRANCH  10  15
ENDBRANCH   8  10
ENDBRANCH   7   8
ENDBRANCH   1   7
BRANCH   4  19
ATOM     19  C   UNL     1      48.533   4.228  17.411  0.00  0.00    +0.000 C 
BRANCH  19  20
ATOM     20  N   UNL     1      49.944   3.918  17.423  0.00  0.00    +0.000 N 
ATOM     21  C   UNL     1      50.741   4.145  18.511  0.00  0.00    +0.000 C 
ATOM     22  O   UNL     1      50.302   4.622  19.554  0.00  0.00    +0.000 OA
ATOM     23  H   UNL     1      50.363   3.765  16.510  0.00  0.00    +0.000 HD
BRANCH  21  24
ATOM     24  C   UNL     1      52.141   3.716  18.394  0.00  0.00    +0.000 A 
ATOM     25  C   UNL     1      53.159   4.600  18.727  0.00  0.00    +0.000 A 
ATOM     26  S   UNL     1      54.720   3.932  18.582  0.00  0.00    +0.000 S 
ATOM     27  C   UNL     1      54.095   2.450  18.028  0.00  0.00    +0.000 A 
ATOM     28  N   UNL     1      54.922   1.424  17.692  0.00  0.00    +0.000 NA
ATOM     29  C   UNL     1      54.314   0.367  17.263  0.00  0.00    +0.000 A 
ATOM     30  N   UNL     1      52.954   0.243  17.145  0.00  0.00    +0.000 N 
ATOM     31  C   UNL     1      52.081   1.236  17.517  0.00  0.00    +0.000 A 
ATOM     32  O   UNL     1      50.867   1.062  17.474  0.00  0.00    +0.000 OA
ATOM     33  C   UNL     1      52.712   2.456  17.979  0.00  0.00    +0.000 A 
ATOM     34  H   UNL     1      52.537  -0.616  16.821  0.00  0.00    +0.000 HD
ENDBRANCH  21  24
ENDBRANCH  19  20
ENDBRANCH   4  19
TORSDOF 8
ENDMDL
