MODEL 1
REMARK VINA RESULT:    -8.105      0.000      0.000
REMARK INTER + INTRA:         -10.649
REMARK INTER:                 -10.000
REMARK INTRA:                  -0.649
REMARK UNBOUND:                -0.649
REMARK  Name = 
REMARK  4 active torsions:
REMARK  status: ('A' for Active; 'I' for Inactive)
REMARK    1  A    between atoms: C_2  and  C_4
REMARK    2  A    between atoms: N_8  and  C_9
REMARK    3  A    between atoms: C_9  and  C_10
REMARK    4  A    between atoms: C_10  and  C_13
REMARK                            x       y       z     vdW  Elec       q    Type
REMARK                         _______ _______ _______ _____ _____    ______ ____
ROOT
ATOM      1  C   UNL     1      46.514   2.525   7.390  0.00  0.00    +0.000 A 
ATOM      2  C   UNL     1      46.030   1.482   8.176  0.00  0.00    +0.000 A 
ATOM      3  C   UNL     1      45.086   1.764   9.162  0.00  0.00    +0.000 A 
ATOM      4  C   UNL     1      44.672   3.078   9.379  0.00  0.00    +0.000 A 
ATOM      5  N   UNL     1      43.736   3.299  10.389  0.00  0.00    +0.000 N 
ATOM      6  N   UNL     1      45.152   4.099   8.645  0.00  0.00    +0.000 NA
ATOM      7  C   UNL     1      46.052   3.805   7.666  0.00  0.00    +0.000 A 
ATOM      8  H   UNL     1      42.846   2.868  10.143  0.00  0.00    +0.000 HD
ENDROOT
BRANCH   1  10
ATOM      9  N   UNL     1      47.463   3.195   5.254  0.00  0.00    +0.000 N 
ATOM     10  C   UNL     1      47.501   2.326   6.305  0.00  0.00    +0.000 C 
ATOM     11  O   UNL     1      48.334   1.432   6.362  0.00  0.00    +0.000 OA
ATOM     12  H   UNL     1      48.200   3.103   4.565  0.00  0.00    +0.000 HD
ATOM     13  H   UNL     1      46.954   4.068   5.279  0.00  0.00    +0.000 HD
ENDBRANCH   1  10
BRANCH   5  14
ATOM     14  C   UNL     1      43.581   4.691  10.860  0.00  0.00    +0.000 C 
BRANCH  14  15
ATOM     15  C   UNL     1      44.013   4.842  12.342  0.00  0.00    +0.000 C 
ATOM     16  F   UNL     1      43.075   5.623  12.967  0.00  0.00    +0.000 F 
ATOM     17  F   UNL     1      43.904   3.621  12.958  0.00  0.00    +0.000 F 
BRANCH  15  18
ATOM     18  C   UNL     1      45.411   5.408  12.492  0.00  0.00    +0.000 A 
ATOM     19  C   UNL     1      45.958   6.253  11.518  0.00  0.00    +0.000 A 
ATOM     20  C   UNL     1      47.234   6.802  11.694  0.00  0.00    +0.000 A 
ATOM     21  C   UNL     1      47.974   6.511  12.835  0.00  0.00    +0.000 A 
ATOM     22  C   UNL     1      47.446   5.663  13.808  0.00  0.00    +0.000 A 
ATOM     23  C   UNL     1      46.174   5.111  13.636  0.00  0.00    +0.000 A 
ENDBRANCH  15  18
ENDBRANCH  14  15
ENDBRANCH   5  14
TORSDOF 4
ENDMDL
MODEL 2
REMARK VINA RESULT:    -7.573      1.585      2.050
REMARK INTER + INTRA:          -9.993
REMARK INTER:                  -9.565
REMARK INTRA:                  -0.428
REMARK UNBOUND:                -0.649
REMARK  Name = 
REMARK  4 active torsions:
REMARK  status: ('A' for Active; 'I' for Inactive)
REMARK    1  A    between atoms: C_2  and  C_4
REMARK    2  A    between atoms: N_8  and  C_9
REMARK    3  A    between atoms: C_9  and  C_10
REMARK    4  A    between atoms: C_10  and  C_13
REMARK                            x       y       z     vdW  Elec       q    Type
REMARK                         _______ _______ _______ _____ _____    ______ ____
ROOT
ATOM      1  C   UNL     1      46.469   2.661   7.498  0.00  0.00    +0.000 A 
ATOM      2  C   UNL     1      45.939   1.716   8.372  0.00  0.00    +0.000 A 
ATOM      3  C   UNL     1      45.022   2.131   9.337  0.00  0.00    +0.000 A 
ATOM      4  C   UNL     1      44.682   3.478   9.446  0.00  0.00    +0.000 A 
ATOM      5  N   UNL     1      43.770   3.834  10.439  0.00  0.00    +0.000 N 
ATOM      6  N   UNL     1      45.208   4.406   8.624  0.00  0.00    +0.000 NA
ATOM      7  C   UNL     1      46.080   3.982   7.668  0.00  0.00    +0.000 A 
ATOM      8  H   UNL     1      42.856   3.433  10.237  0.00  0.00    +0.000 HD
ENDROOT
BRANCH   1  10
ATOM      9  N   UNL     1      47.420   3.089   5.301  0.00  0.00    +0.000 N 
ATOM     10  C   UNL     1      47.432   2.318   6.427  0.00  0.00    +0.000 C 
ATOM     11  O   UNL     1      48.224   1.395   6.558  0.00  0.00    +0.000 OA
ATOM     12  H   UNL     1      48.143   2.900   4.617  0.00  0.00    +0.000 HD
ATOM     13  H   UNL     1      46.952   3.983   5.250  0.00  0.00    +0.000 HD
ENDBRANCH   1  10
BRANCH   5  14
ATOM     14  C   UNL     1      43.696   5.267  10.792  0.00  0.00    +0.000 C 
BRANCH  14  15
ATOM     15  C   UNL     1      44.592   5.600  12.014  0.00  0.00    +0.000 C 
ATOM     16  F   UNL     1      43.932   5.172  13.137  0.00  0.00    +0.000 F 
ATOM     17  F   UNL     1      45.716   4.816  11.962  0.00  0.00    +0.000 F 
BRANCH  15  18
ATOM     18  C   UNL     1      44.952   7.070  12.095  0.00  0.00    +0.000 A 
ATOM     19  C   UNL     1      46.017   7.511  12.891  0.00  0.00    +0.000 A 
ATOM     20  C   UNL     1      46.363   8.867  12.920  0.00  0.00    +0.000 A 
ATOM     21  C   UNL     1      45.652   9.792  12.162  0.00  0.00    +0.000 A 
ATOM     22  C   UNL     1      44.583   9.368  11.374  0.00  0.00    +0.000 A 
ATOM     23  C   UNL     1      44.233   8.016  11.343  0.00  0.00    +0.000 A 
ENDBRANCH  15  18
ENDBRANCH  14  15
ENDBRANCH   5  14
TORSDOF 4
ENDMDL
MODEL 3
REMARK VINA RESULT:    -7.431      3.386      6.627
REMARK INTER + INTRA:          -9.818
REMARK INTER:                  -9.319
REMARK INTRA:                  -0.499
REMARK UNBOUND:                -0.649
REMARK  Name = 
REMARK  4 active torsions:
REMARK  status: ('A' for Active; 'I' for Inactive)
REMARK    1  A    between atoms: C_2  and  C_4
REMARK    2  A    between atoms: N_8  and  C_9
REMARK    3  A    between atoms: C_9  and  C_10
REMARK    4  A    between atoms: C_10  and  C_13
REMARK                            x       y       z     vdW  Elec       q    Type
REMARK                         _______ _______ _______ _____ _____    ______ ____
ROOT
ATOM      1  C   UNL     1      46.823   4.423  14.452  0.00  0.00    +0.000 A 
ATOM      2  C   UNL     1      46.173   5.603  14.100  0.00  0.00    +0.000 A 
ATOM      3  C   UNL     1      45.340   5.605  12.982  0.00  0.00    +0.000 A 
ATOM      4  C   UNL     1      45.200   4.451  12.212  0.00  0.00    +0.000 A 
ATOM      5  N   UNL     1      44.363   4.517  11.099  0.00  0.00    +0.000 N 
ATOM      6  N   UNL     1      45.843   3.311  12.527  0.00  0.00    +0.000 NA
ATOM      7  C   UNL     1      46.631   3.316  13.638  0.00  0.00    +0.000 A 
ATOM      8  H   UNL     1      43.397   4.656  11.393  0.00  0.00    +0.000 HD
ENDROOT
BRANCH   1  10
ATOM      9  N   UNL     1      47.885   5.432  16.394  0.00  0.00    +0.000 N 
ATOM     10  C   UNL     1      47.711   4.314  15.632  0.00  0.00    +0.000 C 
ATOM     11  O   UNL     1      48.247   3.254  15.925  0.00  0.00    +0.000 OA
ATOM     12  H   UNL     1      48.421   5.319  17.246  0.00  0.00    +0.000 HD
ATOM     13  H   UNL     1      47.291   6.246  16.321  0.00  0.00    +0.000 HD
ENDBRANCH   1  10
BRANCH   5  14
ATOM     14  C   UNL     1      44.501   3.440  10.096  0.00  0.00    +0.000 C 
BRANCH  14  15
ATOM     15  C   UNL     1      44.988   3.992   8.731  0.00  0.00    +0.000 C 
ATOM     16  F   UNL     1      43.877   4.342   8.008  0.00  0.00    +0.000 F 
ATOM     17  F   UNL     1      45.642   5.179   8.944  0.00  0.00    +0.000 F 
BRANCH  15  18
ATOM     18  C   UNL     1      45.865   3.011   7.979  0.00  0.00    +0.000 A 
ATOM     19  C   UNL     1      46.008   1.687   8.415  0.00  0.00    +0.000 A 
ATOM     20  C   UNL     1      46.787   0.783   7.684  0.00  0.00    +0.000 A 
ATOM     21  C   UNL     1      47.431   1.189   6.519  0.00  0.00    +0.000 A 
ATOM     22  C   UNL     1      47.305   2.506   6.080  0.00  0.00    +0.000 A 
ATOM     23  C   UNL     1      46.530   3.412   6.807  0.00  0.00    +0.000 A 
ENDBRANCH  15  18
ENDBRANCH  14  15
ENDBRANCH   5  14
TORSDOF 4
ENDMDL
MODEL 4
REMARK VINA RESULT:    -7.199      3.152      6.250
REMARK INTER + INTRA:          -9.531
REMARK INTER:                  -9.098
REMARK INTRA:                  -0.433
REMARK UNBOUND:                -0.649
REMARK  Name = 
REMARK  4 active torsions:
REMARK  status: ('A' for Active; 'I' for Inactive)
REMARK    1  A    between atoms: C_2  and  C_4
REMARK    2  A    between atoms: N_8  and  C_9
REMARK    3  A    between atoms: C_9  and  C_10
REMARK    4  A    between atoms: C_10  and  C_13
REMARK                            x       y       z     vdW  Elec       q    Type
REMARK                         _______ _______ _______ _____ _____    ______ ____
ROOT
ATOM      1  C   UNL     1      46.404   7.377  12.393  0.00  0.00    +0.000 A 
ATOM      2  C   UNL     1      45.133   7.176  12.926  0.00  0.00    +0.000 A 
ATOM      3  C   UNL     1      44.302   6.221  12.343  0.00  0.00    +0.000 A 
ATOM      4  C   UNL     1      44.730   5.514  11.220  0.00  0.00    +0.000 A 
ATOM      5  N   UNL     1      43.849   4.580  10.673  0.00  0.00    +0.000 N 
ATOM      6  N   UNL     1      45.946   5.717  10.679  0.00  0.00    +0.000 NA
ATOM      7  C   UNL     1      46.757   6.634  11.276  0.00  0.00    +0.000 A 
ATOM      8  H   UNL     1      43.703   3.812  11.325  0.00  0.00    +0.000 HD
ENDROOT
BRANCH   1  10
ATOM      9  N   UNL     1      46.861   9.388  13.683  0.00  0.00    +0.000 N 
ATOM     10  C   UNL     1      47.367   8.353  12.952  0.00  0.00    +0.000 C 
ATOM     11  O   UNL     1      48.572   8.220  12.786  0.00  0.00    +0.000 OA
ATOM     12  H   UNL     1      47.535   9.994  14.134  0.00  0.00    +0.000 HD
ATOM     13  H   UNL     1      45.913   9.404  14.031  0.00  0.00    +0.000 HD
ENDBRANCH   1  10
BRANCH   5  14
ATOM     14  C   UNL     1      44.141   4.113   9.302  0.00  0.00    +0.000 C 
BRANCH  14  15
ATOM     15  C   UNL     1      44.814   2.716   9.307  0.00  0.00    +0.000 C 
ATOM     16  F   UNL     1      45.434   2.562  10.520  0.00  0.00    +0.000 F 
ATOM     17  F   UNL     1      43.835   1.756   9.303  0.00  0.00    +0.000 F 
BRANCH  15  18
ATOM     18  C   UNL     1      45.776   2.522   8.151  0.00  0.00    +0.000 A 
ATOM     19  C   UNL     1      45.997   3.541   7.216  0.00  0.00    +0.000 A 
ATOM     20  C   UNL     1      46.922   3.361   6.180  0.00  0.00    +0.000 A 
ATOM     21  C   UNL     1      47.628   2.167   6.067  0.00  0.00    +0.000 A 
ATOM     22  C   UNL     1      47.410   1.142   6.985  0.00  0.00    +0.000 A 
ATOM     23  C   UNL     1      46.487   1.316   8.019  0.00  0.00    +0.000 A 
ENDBRANCH  15  18
ENDBRANCH  14  15
ENDBRANCH   5  14
TORSDOF 4
ENDMDL
MODEL 5
REMARK VINA RESULT:    -7.185      3.692      6.823
REMARK INTER + INTRA:          -9.514
REMARK INTER:                  -9.129
REMARK INTRA:                  -0.385
REMARK UNBOUND:                -0.649
REMARK  Name = 
REMARK  4 active torsions:
REMARK  status: ('A' for Active; 'I' for Inactive)
REMARK    1  A    between atoms: C_2  and  C_4
REMARK    2  A    between atoms: N_8  and  C_9
REMARK    3  A    between atoms: C_9  and  C_10
REMARK    4  A    between atoms: C_10  and  C_13
REMARK                            x       y       z     vdW  Elec       q    Type
REMARK                         _______ _______ _______ _____ _____    ______ ____
ROOT
ATOM      1  C   UNL     1      47.904   5.519  15.315  0.00  0.00    +0.000 A 
ATOM      2  C   UNL     1      47.922   6.414  14.249  0.00  0.00    +0.000 A 
ATOM      3  C   UNL     1      47.122   6.154  13.137  0.00  0.00    +0.000 A 
ATOM      4  C   UNL     1      46.353   4.992  13.086  0.00  0.00    +0.000 A 
ATOM      5  N   UNL     1      45.583   4.780  11.942  0.00  0.00    +0.000 N 
ATOM      6  N   UNL     1      46.347   4.105  14.098  0.00  0.00    +0.000 NA
ATOM      7  C   UNL     1      47.111   4.387  15.189  0.00  0.00    +0.000 A 
ATOM      8  H   UNL     1      44.851   5.485  11.876  0.00  0.00    +0.000 HD
ENDROOT
BRANCH   1  10
ATOM      9  N   UNL     1      48.067   6.264  17.624  0.00  0.00    +0.000 N 
ATOM     10  C   UNL     1      48.700   5.716  16.547  0.00  0.00    +0.000 C 
ATOM     11  O   UNL     1      49.874   5.377  16.604  0.00  0.00    +0.000 OA
ATOM     12  H   UNL     1      48.598   6.309  18.485  0.00  0.00    +0.000 HD
ATOM     13  H   UNL     1      47.062   6.342  17.691  0.00  0.00    +0.000 HD
ENDBRANCH   1  10
BRANCH   5  14
ATOM     14  C   UNL     1      45.074   3.409  11.727  0.00  0.00    +0.000 C 
BRANCH  14  15
ATOM     15  C   UNL     1      44.278   3.300  10.400  0.00  0.00    +0.000 C 
ATOM     16  F   UNL     1      43.364   2.290  10.550  0.00  0.00    +0.000 F 
ATOM     17  F   UNL     1      43.515   4.430  10.250  0.00  0.00    +0.000 F 
BRANCH  15  18
ATOM     18  C   UNL     1      45.172   3.079   9.195  0.00  0.00    +0.000 A 
ATOM     19  C   UNL     1      45.609   4.155   8.412  0.00  0.00    +0.000 A 
ATOM     20  C   UNL     1      46.469   3.937   7.329  0.00  0.00    +0.000 A 
ATOM     21  C   UNL     1      46.896   2.650   7.017  0.00  0.00    +0.000 A 
ATOM     22  C   UNL     1      46.460   1.569   7.782  0.00  0.00    +0.000 A 
ATOM     23  C   UNL     1      45.600   1.782   8.862  0.00  0.00    +0.000 A 
ENDBRANCH  15  18
ENDBRANCH  14  15
ENDBRANCH   5  14
TORSDOF 4
ENDMDL
MODEL 6
REMARK VINA RESULT:    -6.927      3.719      6.798
REMARK INTER + INTRA:          -9.195
REMARK INTER:                  -8.792
REMARK INTRA:                  -0.404
REMARK UNBOUND:                -0.649
REMARK  Name = 
REMARK  4 active torsions:
REMARK  status: ('A' for Active; 'I' for Inactive)
REMARK    1  A    between atoms: C_2  and  C_4
REMARK    2  A    between atoms: N_8  and  C_9
REMARK    3  A    between atoms: C_9  and  C_10
REMARK    4  A    between atoms: C_10  and  C_13
REMARK                            x       y       z     vdW  Elec       q    Type
REMARK                         _______ _______ _______ _____ _____    ______ ____
ROOT
ATOM      1  C   UNL     1      47.120   8.096  13.628  0.00  0.00    +0.000 A 
ATOM      2  C   UNL     1      46.080   8.612  12.859  0.00  0.00    +0.000 A 
ATOM      3  C   UNL     1      45.244   7.730  12.178  0.00  0.00    +0.000 A 
ATOM      4  C   UNL     1      45.479   6.357  12.237  0.00  0.00    +0.000 A 
ATOM      5  N   UNL     1      44.616   5.525  11.523  0.00  0.00    +0.000 N 
ATOM      6  N   UNL     1      46.497   5.846  12.954  0.00  0.00    +0.000 NA
ATOM      7  C   UNL     1      47.288   6.718  13.638  0.00  0.00    +0.000 A 
ATOM      8  H   UNL     1      43.680   5.565  11.923  0.00  0.00    +0.000 HD
ENDROOT
BRANCH   1  10
ATOM      9  N   UNL     1      47.691   9.267  15.682  0.00  0.00    +0.000 N 
ATOM     10  C   UNL     1      48.049   8.948  14.404  0.00  0.00    +0.000 C 
ATOM     11  O   UNL     1      49.108   9.329  13.926  0.00  0.00    +0.000 OA
ATOM     12  H   UNL     1      48.376   9.772  16.230  0.00  0.00    +0.000 HD
ATOM     13  H   UNL     1      46.952   8.791  16.181  0.00  0.00    +0.000 HD
ENDBRANCH   1  10
BRANCH   5  14
ATOM     14  C   UNL     1      45.073   4.140  11.285  0.00  0.00    +0.000 C 
BRANCH  14  15
ATOM     15  C   UNL     1      44.357   3.507  10.062  0.00  0.00    +0.000 C 
ATOM     16  F   UNL     1      43.621   2.445  10.520  0.00  0.00    +0.000 F 
ATOM     17  F   UNL     1      43.420   4.393   9.594  0.00  0.00    +0.000 F 
BRANCH  15  18
ATOM     18  C   UNL     1      45.320   3.098   8.965  0.00  0.00    +0.000 A 
ATOM     19  C   UNL     1      45.688   1.758   8.788  0.00  0.00    +0.000 A 
ATOM     20  C   UNL     1      46.544   1.393   7.742  0.00  0.00    +0.000 A 
ATOM     21  C   UNL     1      47.041   2.356   6.870  0.00  0.00    +0.000 A 
ATOM     22  C   UNL     1      46.691   3.694   7.041  0.00  0.00    +0.000 A 
ATOM     23  C   UNL     1      45.839   4.064   8.084  0.00  0.00    +0.000 A 
ENDBRANCH  15  18
ENDBRANCH  14  15
ENDBRANCH   5  14
TORSDOF 4
ENDMDL
MODEL 7
REMARK VINA RESULT:    -6.579      4.533      6.231
REMARK INTER + INTRA:          -8.766
REMARK INTER:                  -8.385
REMARK INTRA:                  -0.382
REMARK UNBOUND:                -0.649
REMARK  Name = 
REMARK  4 active torsions:
REMARK  status: ('A' for Active; 'I' for Inactive)
REMARK    1  A    between atoms: C_2  and  C_4
REMARK    2  A    between atoms: N_8  and  C_9
REMARK    3  A    between atoms: C_9  and  C_10
REMARK    4  A    between atoms: C_10  and  C_13
REMARK                            x       y       z     vdW  Elec       q    Type
REMARK                         _______ _______ _______ _____ _____    ______ ____
ROOT
ATOM      1  C   UNL     1      45.054   4.297  11.591  0.00  0.00    +0.000 A 
ATOM      2  C   UNL     1      45.246   5.620  11.980  0.00  0.00    +0.000 A 
ATOM      3  C   UNL     1      45.965   5.882  13.145  0.00  0.00    +0.000 A 
ATOM      4  C   UNL     1      46.445   4.829  13.923  0.00  0.00    +0.000 A 
ATOM      5  N   UNL     1      47.147   5.153  15.084  0.00  0.00    +0.000 N 
ATOM      6  N   UNL     1      46.244   3.545  13.571  0.00  0.00    +0.000 NA
ATOM      7  C   UNL     1      45.564   3.305  12.416  0.00  0.00    +0.000 A 
ATOM      8  H   UNL     1      48.023   5.616  14.846  0.00  0.00    +0.000 HD
ENDROOT
BRANCH   1  10
ATOM      9  N   UNL     1      44.401   4.765   9.295  0.00  0.00    +0.000 N 
ATOM     10  C   UNL     1      44.323   3.917  10.362  0.00  0.00    +0.000 C 
ATOM     11  O   UNL     1      43.694   2.870  10.297  0.00  0.00    +0.000 OA
ATOM     12  H   UNL     1      43.972   4.448   8.434  0.00  0.00    +0.000 HD
ATOM     13  H   UNL     1      45.083   5.507   9.231  0.00  0.00    +0.000 HD
ENDBRANCH   1  10
BRANCH   5  14
ATOM     14  C   UNL     1      47.326   4.074  16.077  0.00  0.00    +0.000 C 
BRANCH  14  15
ATOM     15  C   UNL     1      48.222   4.530  17.258  0.00  0.00    +0.000 C 
ATOM     16  F   UNL     1      48.466   5.869  17.096  0.00  0.00    +0.000 F 
ATOM     17  F   UNL     1      47.494   4.455  18.417  0.00  0.00    +0.000 F 
BRANCH  15  18
ATOM     18  C   UNL     1      49.506   3.730  17.364  0.00  0.00    +0.000 A 
ATOM     19  C   UNL     1      50.680   4.309  17.863  0.00  0.00    +0.000 A 
ATOM     20  C   UNL     1      51.844   3.542  17.995  0.00  0.00    +0.000 A 
ATOM     21  C   UNL     1      51.849   2.200  17.629  0.00  0.00    +0.000 A 
ATOM     22  C   UNL     1      50.690   1.615  17.121  0.00  0.00    +0.000 A 
ATOM     23  C   UNL     1      49.526   2.375  16.986  0.00  0.00    +0.000 A 
ENDBRANCH  15  18
ENDBRANCH  14  15
ENDBRANCH   5  14
TORSDOF 4
ENDMDL
MODEL 8
REMARK VINA RESULT:    -6.420      3.750      6.536
REMARK INTER + INTRA:          -8.570
REMARK INTER:                  -8.123
REMARK INTRA:                  -0.447
REMARK UNBOUND:                -0.649
REMARK  Name = 
REMARK  4 active torsions:
REMARK  status: ('A' for Active; 'I' for Inactive)
REMARK    1  A    between atoms: C_2  and  C_4
REMARK    2  A    between atoms: N_8  and  C_9
REMARK    3  A    between atoms: C_9  and  C_10
REMARK    4  A    between atoms: C_10  and  C_13
REMARK                            x       y       z     vdW  Elec       q    Type
REMARK                         _______ _______ _______ _____ _____    ______ ____
ROOT
ATOM      1  C   UNL     1      47.921   7.885  13.739  0.00  0.00    +0.000 A 
ATOM      2  C   UNL     1      46.834   8.587  13.224  0.00  0.00    +0.000 A 
ATOM      3  C   UNL     1      45.719   7.875  12.785  0.00  0.00    +0.000 A 
ATOM      4  C   UNL     1      45.719   6.481  12.825  0.00  0.00    +0.000 A 
ATOM      5  N   UNL     1      44.580   5.824  12.360  0.00  0.00    +0.000 N 
ATOM      6  N   UNL     1      46.774   5.789  13.295  0.00  0.00    +0.000 NA
ATOM      7  C   UNL     1      47.844   6.499  13.747  0.00  0.00    +0.000 A 
ATOM      8  H   UNL     1      43.788   6.022  12.968  0.00  0.00    +0.000 HD
ENDROOT
BRANCH   1  10
ATOM      9  N   UNL     1      50.246   7.773  14.441  0.00  0.00    +0.000 N 
ATOM     10  C   UNL     1      49.141   8.550  14.249  0.00  0.00    +0.000 C 
ATOM     11  O   UNL     1      49.164   9.754  14.465  0.00  0.00    +0.000 OA
ATOM     12  H   UNL     1      51.097   8.256  14.702  0.00  0.00    +0.000 HD
ATOM     13  H   UNL     1      50.336   6.841  14.063  0.00  0.00    +0.000 HD
ENDBRANCH   1  10
BRANCH   5  14
ATOM     14  C   UNL     1      44.719   4.384  12.059  0.00  0.00    +0.000 C 
BRANCH  14  15
ATOM     15  C   UNL     1      43.890   3.980  10.811  0.00  0.00    +0.000 C 
ATOM     16  F   UNL     1      43.003   3.012  11.202  0.00  0.00    +0.000 F 
ATOM     17  F   UNL     1      43.099   5.040  10.448  0.00  0.00    +0.000 F 
BRANCH  15  18
ATOM     18  C   UNL     1      44.756   3.521   9.654  0.00  0.00    +0.000 A 
ATOM     19  C   UNL     1      45.370   4.444   8.799  0.00  0.00    +0.000 A 
ATOM     20  C   UNL     1      46.201   4.003   7.763  0.00  0.00    +0.000 A 
ATOM     21  C   UNL     1      46.422   2.643   7.568  0.00  0.00    +0.000 A 
ATOM     22  C   UNL     1      45.809   1.713   8.406  0.00  0.00    +0.000 A 
ATOM     23  C   UNL     1      44.977   2.148   9.440  0.00  0.00    +0.000 A 
ENDBRANCH  15  18
ENDBRANCH  14  15
ENDBRANCH   5  14
TORSDOF 4
ENDMDL
MODEL 9
REMARK VINA RESULT:    -6.377      4.778      7.744
REMARK INTER + INTRA:          -8.517
REMARK INTER:                  -8.160
REMARK INTRA:                  -0.357
REMARK UNBOUND:                -0.649
REMARK  Name = 
REMARK  4 active torsions:
REMARK  status: ('A' for Active; 'I' for Inactive)
REMARK    1  A    between atoms: C_2  and  C_4
REMARK    2  A    between atoms: N_8  and  C_9
REMARK    3  A    between atoms: C_9  and  C_10
REMARK    4  A    between atoms: C_10  and  C_13
REMARK                            x       y       z     vdW  Elec       q    Type
REMARK                         _______ _______ _______ _____ _____    ______ ____
ROOT
ATOM      1  C   UNL     1      48.349   4.451  17.633  0.00  0.00    +0.000 A 
ATOM      2  C   UNL     1      48.854   5.572  16.980  0.00  0.00    +0.000 A 
ATOM      3  C   UNL     1      48.316   5.930  15.744  0.00  0.00    +0.000 A 
ATOM      4  C   UNL     1      47.321   5.148  15.161  0.00  0.00    +0.000 A 
ATOM      5  N   UNL     1      46.831   5.550  13.918  0.00  0.00    +0.000 N 
ATOM      6  N   UNL     1      46.842   4.047  15.770  0.00  0.00    +0.000 NA
ATOM      7  C   UNL     1      47.356   3.725  16.989  0.00  0.00    +0.000 A 
ATOM      8  H   UNL     1      46.337   6.436  14.005  0.00  0.00    +0.000 HD
ENDROOT
BRANCH   1  10
ATOM      9  N   UNL     1      48.238   2.906  19.508  0.00  0.00    +0.000 N 
ATOM     10  C   UNL     1      48.837   4.000  18.956  0.00  0.00    +0.000 C 
ATOM     11  O   UNL     1      49.760   4.573  19.519  0.00  0.00    +0.000 OA
ATOM     12  H   UNL     1      48.643   2.556  20.368  0.00  0.00    +0.000 HD
ATOM     13  H   UNL     1      47.645   2.279  18.982  0.00  0.00    +0.000 HD
ENDBRANCH   1  10
BRANCH   5  14
ATOM     14  C   UNL     1      46.067   4.547  13.148  0.00  0.00    +0.000 C 
BRANCH  14  15
ATOM     15  C   UNL     1      45.119   5.220  12.121  0.00  0.00    +0.000 C 
ATOM     16  F   UNL     1      43.881   5.311  12.702  0.00  0.00    +0.000 F 
ATOM     17  F   UNL     1      45.510   6.523  11.949  0.00  0.00    +0.000 F 
BRANCH  15  18
ATOM     18  C   UNL     1      45.069   4.484  10.796  0.00  0.00    +0.000 A 
ATOM     19  C   UNL     1      45.588   5.059   9.629  0.00  0.00    +0.000 A 
ATOM     20  C   UNL     1      45.573   4.347   8.424  0.00  0.00    +0.000 A 
ATOM     21  C   UNL     1      45.041   3.063   8.371  0.00  0.00    +0.000 A 
ATOM     22  C   UNL     1      44.512   2.483   9.524  0.00  0.00    +0.000 A 
ATOM     23  C   UNL     1      44.522   3.190  10.728  0.00  0.00    +0.000 A 
ENDBRANCH  15  18
ENDBRANCH  14  15
ENDBRANCH   5  14
TORSDOF 4
ENDMDL
