MODEL 1
REMARK VINA RESULT:    -7.708      0.000      0.000
REMARK INTER + INTRA:          -9.455
REMARK INTER:                  -9.059
REMARK INTRA:                  -0.395
REMARK UNBOUND:                -0.395
REMARK  Name = 
REMARK  3 active torsions:
REMARK  status: ('A' for Active; 'I' for Inactive)
REMARK    1  A    between atoms: C_2  and  C_4
REMARK    2  A    between atoms: N_8  and  C_9
REMARK    3  A    between atoms: C_9  and  C_10
REMARK                            x       y       z     vdW  Elec       q    Type
REMARK                         _______ _______ _______ _____ _____    ______ ____
ROOT
ATOM      1  C   UNL     1      46.311   4.846  13.038  0.00  0.00    +0.000 A 
ATOM      2  C   UNL     1      46.585   5.912  12.190  0.00  0.00    +0.000 A 
ATOM      3  C   UNL     1      46.076   5.889  10.891  0.00  0.00    +0.000 A 
ATOM      4  C   UNL     1      45.339   4.789  10.452  0.00  0.00    +0.000 A 
ATOM      5  N   UNL     1      44.926   4.789   9.121  0.00  0.00    +0.000 N 
ATOM      6  N   UNL     1      45.073   3.747  11.262  0.00  0.00    +0.000 NA
ATOM      7  C   UNL     1      45.558   3.795  12.532  0.00  0.00    +0.000 A 
ATOM      8  H   UNL     1      44.268   5.542   8.951  0.00  0.00    +0.000 HD
ENDROOT
BRANCH   1  10
ATOM      9  N   UNL     1      47.440   5.873  14.932  0.00  0.00    +0.000 N 
ATOM     10  C   UNL     1      46.817   4.769  14.425  0.00  0.00    +0.000 C 
ATOM     11  O   UNL     1      46.658   3.764  15.107  0.00  0.00    +0.000 OA
ATOM     12  H   UNL     1      47.704   5.834  15.910  0.00  0.00    +0.000 HD
ATOM     13  H   UNL     1      47.396   6.784  14.498  0.00  0.00    +0.000 HD
ENDBRANCH   1  10
BRANCH   5  14
ATOM     14  C   UNL     1      44.479   3.518   8.576  0.00  0.00    +0.000 C 
BRANCH  14  15
ATOM     15  C   UNL     1      45.683   2.829   7.971  0.00  0.00    +0.000 A 
ATOM     16  C   UNL     1      45.905   1.467   8.221  0.00  0.00    +0.000 A 
ATOM     17  C   UNL     1      47.015   0.852   7.666  0.00  0.00    +0.000 A 
ATOM     18  N   UNL     1      47.909   1.497   6.885  0.00  0.00    +0.000 NA
ATOM     19  C   UNL     1      47.673   2.808   6.646  0.00  0.00    +0.000 A 
ATOM     20  C   UNL     1      46.588   3.507   7.157  0.00  0.00    +0.000 A 
ENDBRANCH  14  15
ENDBRANCH   5  14
TORSDOF 3
ENDMDL
MODEL 2
REMARK VINA RESULT:    -7.586      2.476      6.143
REMARK INTER + INTRA:          -9.311
REMARK INTER:                  -8.950
REMARK INTRA:                  -0.361
REMARK UNBOUND:                -0.395
REMARK  Name = 
REMARK  3 active torsions:
REMARK  status: ('A' for Active; 'I' for Inactive)
REMARK    1  A    between atoms: C_2  and  C_4
REMARK    2  A    between atoms: N_8  and  C_9
REMARK    3  A    between atoms: C_9  and  C_10
REMARK                            x       y       z     vdW  Elec       q    Type
REMARK                         _______ _______ _______ _____ _____    ______ ____
ROOT
ATOM      1  C   UNL     1      46.496   2.630   7.429  0.00  0.00    +0.000 A 
ATOM      2  C   UNL     1      45.903   1.688   8.262  0.00  0.00    +0.000 A 
ATOM      3  C   UNL     1      44.997   2.119   9.230  0.00  0.00    +0.000 A 
ATOM      4  C   UNL     1      44.729   3.481   9.376  0.00  0.00    +0.000 A 
ATOM      5  N   UNL     1      43.876   3.855  10.413  0.00  0.00    +0.000 N 
ATOM      6  N   UNL     1      45.301   4.403   8.579  0.00  0.00    +0.000 NA
ATOM      7  C   UNL     1      46.166   3.964   7.625  0.00  0.00    +0.000 A 
ATOM      8  H   UNL     1      42.943   3.489  10.257  0.00  0.00    +0.000 HD
ENDROOT
BRANCH   1  10
ATOM      9  N   UNL     1      47.493   3.035   5.248  0.00  0.00    +0.000 N 
ATOM     10  C   UNL     1      47.479   2.277   6.384  0.00  0.00    +0.000 C 
ATOM     11  O   UNL     1      48.273   1.357   6.539  0.00  0.00    +0.000 OA
ATOM     12  H   UNL     1      48.229   2.835   4.580  0.00  0.00    +0.000 HD
ATOM     13  H   UNL     1      47.024   3.925   5.169  0.00  0.00    +0.000 HD
ENDBRANCH   1  10
BRANCH   5  14
ATOM     14  C   UNL     1      43.876   5.260  10.783  0.00  0.00    +0.000 C 
BRANCH  14  15
ATOM     15  C   UNL     1      45.018   5.479  11.752  0.00  0.00    +0.000 A 
ATOM     16  C   UNL     1      45.092   4.713  12.924  0.00  0.00    +0.000 A 
ATOM     17  C   UNL     1      46.140   4.929  13.805  0.00  0.00    +0.000 A 
ATOM     18  N   UNL     1      47.107   5.848  13.597  0.00  0.00    +0.000 NA
ATOM     19  C   UNL     1      47.024   6.571  12.456  0.00  0.00    +0.000 A 
ATOM     20  C   UNL     1      46.014   6.424  11.515  0.00  0.00    +0.000 A 
ENDBRANCH  14  15
ENDBRANCH   5  14
TORSDOF 3
ENDMDL
MODEL 3
REMARK VINA RESULT:    -7.097      1.836      2.294
REMARK INTER + INTRA:          -8.737
REMARK INTER:                  -8.427
REMARK INTRA:                  -0.309
REMARK UNBOUND:                -0.395
REMARK  Name = 
REMARK  3 active torsions:
REMARK  status: ('A' for Active; 'I' for Inactive)
REMARK    1  A    between atoms: C_2  and  C_4
REMARK    2  A    between atoms: N_8  and  C_9
REMARK    3  A    between atoms: C_9  and  C_10
REMARK                            x       y       z     vdW  Elec       q    Type
REMARK                         _______ _______ _______ _____ _____    ______ ____
ROOT
ATOM      1  C   UNL     1      45.610   6.587  12.354  0.00  0.00    +0.000 A 
ATOM      2  C   UNL     1      45.505   5.444  13.138  0.00  0.00    +0.000 A 
ATOM      3  C   UNL     1      45.324   4.211  12.512  0.00  0.00    +0.000 A 
ATOM      4  C   UNL     1      45.214   4.145  11.123  0.00  0.00    +0.000 A 
ATOM      5  N   UNL     1      44.954   2.895  10.563  0.00  0.00    +0.000 N 
ATOM      6  N   UNL     1      45.308   5.245  10.353  0.00  0.00    +0.000 NA
ATOM      7  C   UNL     1      45.505   6.437  10.977  0.00  0.00    +0.000 A 
ATOM      8  H   UNL     1      45.731   2.263  10.725  0.00  0.00    +0.000 HD
ENDROOT
BRANCH   1  10
ATOM      9  N   UNL     1      44.823   8.869  12.650  0.00  0.00    +0.000 N 
ATOM     10  C   UNL     1      45.787   7.940  12.921  0.00  0.00    +0.000 C 
ATOM     11  O   UNL     1      46.746   8.214  13.632  0.00  0.00    +0.000 OA
ATOM     12  H   UNL     1      44.914   9.765  13.115  0.00  0.00    +0.000 HD
ATOM     13  H   UNL     1      43.919   8.635  12.266  0.00  0.00    +0.000 HD
ENDBRANCH   1  10
BRANCH   5  14
ATOM     14  C   UNL     1      44.494   2.879   9.185  0.00  0.00    +0.000 C 
BRANCH  14  15
ATOM     15  C   UNL     1      45.645   2.405   8.324  0.00  0.00    +0.000 A 
ATOM     16  C   UNL     1      45.966   1.040   8.282  0.00  0.00    +0.000 A 
ATOM     17  C   UNL     1      47.026   0.621   7.494  0.00  0.00    +0.000 A 
ATOM     18  N   UNL     1      47.779   1.463   6.753  0.00  0.00    +0.000 NA
ATOM     19  C   UNL     1      47.448   2.774   6.798  0.00  0.00    +0.000 A 
ATOM     20  C   UNL     1      46.403   3.286   7.556  0.00  0.00    +0.000 A 
ENDBRANCH  14  15
ENDBRANCH   5  14
TORSDOF 3
ENDMDL
MODEL 4
REMARK VINA RESULT:    -6.074      3.146      7.182
REMARK INTER + INTRA:          -7.534
REMARK INTER:                  -7.252
REMARK INTRA:                  -0.283
REMARK UNBOUND:                -0.395
REMARK  Name = 
REMARK  3 active torsions:
REMARK  status: ('A' for Active; 'I' for Inactive)
REMARK    1  A    between atoms: C_2  and  C_4
REMARK    2  A    between atoms: N_8  and  C_9
REMARK    3  A    between atoms: C_9  and  C_10
REMARK                            x       y       z     vdW  Elec       q    Type
REMARK                         _______ _______ _______ _____ _____    ______ ____
ROOT
ATOM      1  C   UNL     1      45.237   4.569  11.630  0.00  0.00    +0.000 A 
ATOM      2  C   UNL     1      45.716   5.822  11.994  0.00  0.00    +0.000 A 
ATOM      3  C   UNL     1      46.412   5.957  13.195  0.00  0.00    +0.000 A 
ATOM      4  C   UNL     1      46.583   4.850  14.028  0.00  0.00    +0.000 A 
ATOM      5  N   UNL     1      47.216   5.066  15.250  0.00  0.00    +0.000 N 
ATOM      6  N   UNL     1      46.119   3.633  13.690  0.00  0.00    +0.000 NA
ATOM      7  C   UNL     1      45.461   3.514  12.505  0.00  0.00    +0.000 A 
ATOM      8  H   UNL     1      48.179   5.351  15.108  0.00  0.00    +0.000 HD
ENDROOT
BRANCH   1  10
ATOM      9  N   UNL     1      44.966   4.863   9.232  0.00  0.00    +0.000 N 
ATOM     10  C   UNL     1      44.475   4.326  10.388  0.00  0.00    +0.000 C 
ATOM     11  O   UNL     1      43.458   3.644  10.386  0.00  0.00    +0.000 OA
ATOM     12  H   UNL     1      44.480   4.616   8.377  0.00  0.00    +0.000 HD
ATOM     13  H   UNL     1      45.901   5.233   9.145  0.00  0.00    +0.000 HD
ENDBRANCH   1  10
BRANCH   5  14
ATOM     14  C   UNL     1      47.082   4.018  16.249  0.00  0.00    +0.000 C 
BRANCH  14  15
ATOM     15  C   UNL     1      48.469   3.687  16.755  0.00  0.00    +0.000 A 
ATOM     16  C   UNL     1      48.956   2.377  16.644  0.00  0.00    +0.000 A 
ATOM     17  C   UNL     1      50.226   2.088  17.119  0.00  0.00    +0.000 A 
ATOM     18  N   UNL     1      51.033   3.008  17.689  0.00  0.00    +0.000 NA
ATOM     19  C   UNL     1      50.550   4.269  17.777  0.00  0.00    +0.000 A 
ATOM     20  C   UNL     1      49.293   4.653  17.329  0.00  0.00    +0.000 A 
ENDBRANCH  14  15
ENDBRANCH   5  14
TORSDOF 3
ENDMDL
MODEL 5
REMARK VINA RESULT:    -5.751      3.934      6.156
REMARK INTER + INTRA:          -7.154
REMARK INTER:                  -6.914
REMARK INTRA:                  -0.241
REMARK UNBOUND:                -0.395
REMARK  Name = 
REMARK  3 active torsions:
REMARK  status: ('A' for Active; 'I' for Inactive)
REMARK    1  A    between atoms: C_2  and  C_4
REMARK    2  A    between atoms: N_8  and  C_9
REMARK    3  A    between atoms: C_9  and  C_10
REMARK                            x       y       z     vdW  Elec       q    Type
REMARK                         _______ _______ _______ _____ _____    ______ ____
ROOT
ATOM      1  C   UNL     1      48.940   4.572  18.137  0.00  0.00    +0.000 A 
ATOM      2  C   UNL     1      48.187   3.406  18.051  0.00  0.00    +0.000 A 
ATOM      3  C   UNL     1      47.469   3.151  16.883  0.00  0.00    +0.000 A 
ATOM      4  C   UNL     1      47.484   4.078  15.840  0.00  0.00    +0.000 A 
ATOM      5  N   UNL     1      46.684   3.804  14.733  0.00  0.00    +0.000 N 
ATOM      6  N   UNL     1      48.204   5.213  15.914  0.00  0.00    +0.000 NA
ATOM      7  C   UNL     1      48.916   5.437  17.051  0.00  0.00    +0.000 A 
ATOM      8  H   UNL     1      47.009   2.970  14.254  0.00  0.00    +0.000 HD
ENDROOT
BRANCH   1  10
ATOM      9  N   UNL     1      49.406   4.319  20.510  0.00  0.00    +0.000 N 
ATOM     10  C   UNL     1      49.721   4.940  19.335  0.00  0.00    +0.000 C 
ATOM     11  O   UNL     1      50.638   5.750  19.275  0.00  0.00    +0.000 OA
ATOM     12  H   UNL     1      50.006   4.520  21.303  0.00  0.00    +0.000 HD
ATOM     13  H   UNL     1      48.823   3.497  20.564  0.00  0.00    +0.000 HD
ENDBRANCH   1  10
BRANCH   5  14
ATOM     14  C   UNL     1      46.425   4.908  13.824  0.00  0.00    +0.000 C 
BRANCH  14  15
ATOM     15  C   UNL     1      45.199   4.555  13.011  0.00  0.00    +0.000 A 
ATOM     16  C   UNL     1      44.114   5.442  12.968  0.00  0.00    +0.000 A 
ATOM     17  C   UNL     1      42.995   5.102  12.224  0.00  0.00    +0.000 A 
ATOM     18  N   UNL     1      42.888   3.951  11.527  0.00  0.00    +0.000 NA
ATOM     19  C   UNL     1      43.949   3.112  11.572  0.00  0.00    +0.000 A 
ATOM     20  C   UNL     1      45.111   3.368  12.288  0.00  0.00    +0.000 A 
ENDBRANCH  14  15
ENDBRANCH   5  14
TORSDOF 3
ENDMDL
MODEL 6
REMARK VINA RESULT:    -5.705      3.183      7.884
REMARK INTER + INTRA:          -7.101
REMARK INTER:                  -6.832
REMARK INTRA:                  -0.269
REMARK UNBOUND:                -0.395
REMARK  Name = 
REMARK  3 active torsions:
REMARK  status: ('A' for Active; 'I' for Inactive)
REMARK    1  A    between atoms: C_2  and  C_4
REMARK    2  A    between atoms: N_8  and  C_9
REMARK    3  A    between atoms: C_9  and  C_10
REMARK                            x       y       z     vdW  Elec       q    Type
REMARK                         _______ _______ _______ _____ _____    ______ ____
ROOT
ATOM      1  C   UNL     1      45.034   4.368  11.637  0.00  0.00    +0.000 A 
ATOM      2  C   UNL     1      45.380   5.671  11.977  0.00  0.00    +0.000 A 
ATOM      3  C   UNL     1      46.149   5.888  13.121  0.00  0.00    +0.000 A 
ATOM      4  C   UNL     1      46.524   4.810  13.923  0.00  0.00    +0.000 A 
ATOM      5  N   UNL     1      47.222   5.100  15.094  0.00  0.00    +0.000 N 
ATOM      6  N   UNL     1      46.190   3.545  13.607  0.00  0.00    +0.000 NA
ATOM      7  C   UNL     1      45.459   3.348  12.477  0.00  0.00    +0.000 A 
ATOM      8  H   UNL     1      48.127   5.505  14.879  0.00  0.00    +0.000 HD
ENDROOT
BRANCH   1  10
ATOM      9  N   UNL     1      44.401   4.777   9.325  0.00  0.00    +0.000 N 
ATOM     10  C   UNL     1      44.212   4.035  10.456  0.00  0.00    +0.000 C 
ATOM     11  O   UNL     1      43.409   3.109  10.478  0.00  0.00    +0.000 OA
ATOM     12  H   UNL     1      43.892   4.481   8.500  0.00  0.00    +0.000 HD
ATOM     13  H   UNL     1      45.193   5.388   9.188  0.00  0.00    +0.000 HD
ENDBRANCH   1  10
BRANCH   5  14
ATOM     14  C   UNL     1      47.301   4.040  16.086  0.00  0.00    +0.000 C 
BRANCH  14  15
ATOM     15  C   UNL     1      48.115   4.562  17.250  0.00  0.00    +0.000 A 
ATOM     16  C   UNL     1      48.676   5.846  17.186  0.00  0.00    +0.000 A 
ATOM     17  C   UNL     1      49.424   6.308  18.257  0.00  0.00    +0.000 A 
ATOM     18  N   UNL     1      49.646   5.584  19.375  0.00  0.00    +0.000 NA
ATOM     19  C   UNL     1      49.088   4.352  19.423  0.00  0.00    +0.000 A 
ATOM     20  C   UNL     1      48.323   3.806  18.401  0.00  0.00    +0.000 A 
ENDBRANCH  14  15
ENDBRANCH   5  14
TORSDOF 3
ENDMDL
MODEL 7
REMARK VINA RESULT:    -5.047      3.123      6.807
REMARK INTER + INTRA:          -6.327
REMARK INTER:                  -5.982
REMARK INTRA:                  -0.345
REMARK UNBOUND:                -0.395
REMARK  Name = 
REMARK  3 active torsions:
REMARK  status: ('A' for Active; 'I' for Inactive)
REMARK    1  A    between atoms: C_2  and  C_4
REMARK    2  A    between atoms: N_8  and  C_9
REMARK    3  A    between atoms: C_9  and  C_10
REMARK                            x       y       z     vdW  Elec       q    Type
REMARK                         _______ _______ _______ _____ _____    ______ ____
ROOT
ATOM      1  C   UNL     1      45.082   4.062  10.412  0.00  0.00    +0.000 A 
ATOM      2  C   UNL     1      44.996   3.641  11.734  0.00  0.00    +0.000 A 
ATOM      3  C   UNL     1      45.384   4.517  12.748  0.00  0.00    +0.000 A 
ATOM      4  C   UNL     1      45.885   5.778  12.424  0.00  0.00    +0.000 A 
ATOM      5  N   UNL     1      46.331   6.576  13.476  0.00  0.00    +0.000 N 
ATOM      6  N   UNL     1      45.979   6.195  11.147  0.00  0.00    +0.000 NA
ATOM      7  C   UNL     1      45.576   5.337  10.172  0.00  0.00    +0.000 A 
ATOM      8  H   UNL     1      45.559   6.826  14.086  0.00  0.00    +0.000 HD
ENDROOT
BRANCH   1  10
ATOM      9  N   UNL     1      44.573   1.866   9.500  0.00  0.00    +0.000 N 
ATOM     10  C   UNL     1      44.710   3.205   9.267  0.00  0.00    +0.000 C 
ATOM     11  O   UNL     1      44.503   3.678   8.157  0.00  0.00    +0.000 OA
ATOM     12  H   UNL     1      44.235   1.305   8.726  0.00  0.00    +0.000 HD
ATOM     13  H   UNL     1      44.512   1.467  10.425  0.00  0.00    +0.000 HD
ENDBRANCH   1  10
BRANCH   5  14
ATOM     14  C   UNL     1      47.162   7.716  13.125  0.00  0.00    +0.000 C 
BRANCH  14  15
ATOM     15  C   UNL     1      48.460   7.589  13.892  0.00  0.00    +0.000 A 
ATOM     16  C   UNL     1      48.505   6.816  15.061  0.00  0.00    +0.000 A 
ATOM     17  C   UNL     1      49.700   6.715  15.756  0.00  0.00    +0.000 A 
ATOM     18  N   UNL     1      50.840   7.326  15.368  0.00  0.00    +0.000 NA
ATOM     19  C   UNL     1      50.779   8.060  14.232  0.00  0.00    +0.000 A 
ATOM     20  C   UNL     1      49.629   8.217  13.469  0.00  0.00    +0.000 A 
ENDBRANCH  14  15
ENDBRANCH   5  14
TORSDOF 3
ENDMDL
MODEL 8
REMARK VINA RESULT:    -5.028      3.064      4.135
REMARK INTER + INTRA:          -6.305
REMARK INTER:                  -5.990
REMARK INTRA:                  -0.315
REMARK UNBOUND:                -0.395
REMARK  Name = 
REMARK  3 active torsions:
REMARK  status: ('A' for Active; 'I' for Inactive)
REMARK    1  A    between atoms: C_2  and  C_4
REMARK    2  A    between atoms: N_8  and  C_9
REMARK    3  A    between atoms: C_9  and  C_10
REMARK                            x       y       z     vdW  Elec       q    Type
REMARK                         _______ _______ _______ _____ _____    ______ ____
ROOT
ATOM      1  C   UNL     1      49.286   7.647  13.267  0.00  0.00    +0.000 A 
ATOM      2  C   UNL     1      48.676   6.828  14.210  0.00  0.00    +0.000 A 
ATOM      3  C   UNL     1      47.549   6.094  13.839  0.00  0.00    +0.000 A 
ATOM      4  C   UNL     1      47.031   6.220  12.550  0.00  0.00    +0.000 A 
ATOM      5  N   UNL     1      45.858   5.523  12.265  0.00  0.00    +0.000 N 
ATOM      6  N   UNL     1      47.608   7.014  11.629  0.00  0.00    +0.000 NA
ATOM      7  C   UNL     1      48.719   7.707  12.001  0.00  0.00    +0.000 A 
ATOM      8  H   UNL     1      46.017   4.522  12.312  0.00  0.00    +0.000 HD
ENDROOT
BRANCH   1  10
ATOM      9  N   UNL     1      51.618   7.828  13.933  0.00  0.00    +0.000 N 
ATOM     10  C   UNL     1      50.473   8.475  13.565  0.00  0.00    +0.000 C 
ATOM     11  O   UNL     1      50.442   9.695  13.458  0.00  0.00    +0.000 OA
ATOM     12  H   UNL     1      52.444   8.404  14.050  0.00  0.00    +0.000 HD
ATOM     13  H   UNL     1      51.755   6.835  13.818  0.00  0.00    +0.000 HD
ENDBRANCH   1  10
BRANCH   5  14
ATOM     14  C   UNL     1      45.136   5.922  11.068  0.00  0.00    +0.000 C 
BRANCH  14  15
ATOM     15  C   UNL     1      45.117   4.736  10.128  0.00  0.00    +0.000 A 
ATOM     16  C   UNL     1      45.711   4.842   8.862  0.00  0.00    +0.000 A 
ATOM     17  C   UNL     1      45.681   3.749   8.010  0.00  0.00    +0.000 A 
ATOM     18  N   UNL     1      45.104   2.572   8.332  0.00  0.00    +0.000 NA
ATOM     19  C   UNL     1      44.545   2.485   9.562  0.00  0.00    +0.000 A 
ATOM     20  C   UNL     1      44.528   3.524  10.483  0.00  0.00    +0.000 A 
ENDBRANCH  14  15
ENDBRANCH   5  14
TORSDOF 3
ENDMDL
MODEL 9
REMARK VINA RESULT:    -4.878      4.616      6.441
REMARK INTER + INTRA:          -6.129
REMARK INTER:                  -5.895
REMARK INTRA:                  -0.233
REMARK UNBOUND:                -0.395
REMARK  Name = 
REMARK  3 active torsions:
REMARK  status: ('A' for Active; 'I' for Inactive)
REMARK    1  A    between atoms: C_2  and  C_4
REMARK    2  A    between atoms: N_8  and  C_9
REMARK    3  A    between atoms: C_9  and  C_10
REMARK                            x       y       z     vdW  Elec       q    Type
REMARK                         _______ _______ _______ _____ _____    ______ ____
ROOT
ATOM      1  C   UNL     1      44.535   5.775  12.653  0.00  0.00    +0.000 A 
ATOM      2  C   UNL     1      45.467   4.988  13.318  0.00  0.00    +0.000 A 
ATOM      3  C   UNL     1      46.810   5.366  13.293  0.00  0.00    +0.000 A 
ATOM      4  C   UNL     1      47.201   6.496  12.575  0.00  0.00    +0.000 A 
ATOM      5  N   UNL     1      48.566   6.776  12.522  0.00  0.00    +0.000 N 
ATOM      6  N   UNL     1      46.309   7.264  11.922  0.00  0.00    +0.000 NA
ATOM      7  C   UNL     1      45.001   6.894  11.974  0.00  0.00    +0.000 A 
ATOM      8  H   UNL     1      48.920   7.001  13.446  0.00  0.00    +0.000 HD
ENDROOT
BRANCH   1  10
ATOM      9  N   UNL     1      42.315   6.164  11.738  0.00  0.00    +0.000 N 
ATOM     10  C   UNL     1      43.094   5.453  12.606  0.00  0.00    +0.000 C 
ATOM     11  O   UNL     1      42.617   4.561  13.298  0.00  0.00    +0.000 OA
ATOM     12  H   UNL     1      41.347   5.872  11.656  0.00  0.00    +0.000 HD
ATOM     13  H   UNL     1      42.691   6.740  10.999  0.00  0.00    +0.000 HD
ENDBRANCH   1  10
BRANCH   5  14
ATOM     14  C   UNL     1      49.000   7.722  11.508  0.00  0.00    +0.000 C 
BRANCH  14  15
ATOM     15  C   UNL     1      50.481   7.961  11.708  0.00  0.00    +0.000 A 
ATOM     16  C   UNL     1      51.381   7.648  10.679  0.00  0.00    +0.000 A 
ATOM     17  C   UNL     1      52.735   7.866  10.879  0.00  0.00    +0.000 A 
ATOM     18  N   UNL     1      53.245   8.371  12.023  0.00  0.00    +0.000 NA
ATOM     19  C   UNL     1      52.360   8.677  13.000  0.00  0.00    +0.000 A 
ATOM     20  C   UNL     1      50.988   8.494  12.890  0.00  0.00    +0.000 A 
ENDBRANCH  14  15
ENDBRANCH   5  14
TORSDOF 3
ENDMDL
