MODEL 1
REMARK VINA RESULT:    -8.200      0.000      0.000
REMARK INTER + INTRA:         -11.520
REMARK INTER:                 -10.597
REMARK INTRA:                  -0.923
REMARK UNBOUND:                -0.923
REMARK  Name = 
REMARK  5 active torsions:
REMARK  status: ('A' for Active; 'I' for Inactive)
REMARK    1  A    between atoms: C_2  and  C_3
REMARK    2  A    between atoms: C_6  and  N_7
REMARK    3  A    between atoms: N_7  and  C_8
REMARK    4  A    between atoms: C_8  and  C_9
REMARK    5  A    between atoms: C_13  and  C_14
REMARK                            x       y       z     vdW  Elec       q    Type
REMARK                         _______ _______ _______ _____ _____    ______ ____
ROOT
ATOM      1  C   UNL     1      43.838   5.039  11.245  0.00  0.00    +0.000 C 
ATOM      2  C   UNL     1      42.507   5.216  11.977  0.00  0.00    +0.000 C 
ATOM      3  C   UNL     1      42.954   6.251  11.004  0.00  0.00    +0.000 C 
ENDROOT
BRANCH   1   4
ATOM      4  C   UNL     1      45.100   5.278  12.074  0.00  0.00    +0.000 A 
ATOM      5  C   UNL     1      45.519   4.355  13.040  0.00  0.00    +0.000 A 
ATOM      6  C   UNL     1      46.768   4.467  13.643  0.00  0.00    +0.000 A 
ATOM      7  C   UNL     1      47.611   5.534  13.319  0.00  0.00    +0.000 A 
ATOM      8  C   UNL     1      47.211   6.535  12.418  0.00  0.00    +0.000 A 
ATOM      9  C   UNL     1      45.944   6.383  11.822  0.00  0.00    +0.000 A 
BRANCH   8  10
ATOM     10  C   UNL     1      48.099   7.675  12.080  0.00  0.00    +0.000 A 
ATOM     11  C   UNL     1      49.444   7.467  11.710  0.00  0.00    +0.000 A 
ATOM     12  C   UNL     1      50.296   8.535  11.404  0.00  0.00    +0.000 A 
ATOM     13  C   UNL     1      49.823   9.843  11.442  0.00  0.00    +0.000 A 
ATOM     14  C   UNL     1      48.498  10.080  11.790  0.00  0.00    +0.000 A 
ATOM     15  C   UNL     1      47.656   9.010  12.106  0.00  0.00    +0.000 A 
ATOM     16  F   UNL     1      46.393   9.304  12.454  0.00  0.00    +0.000 F 
ENDBRANCH   8  10
ENDBRANCH   1   4
BRANCH   1  17
ATOM     17  N   UNL     1      43.912   3.873  10.368  0.00  0.00    +0.000 N 
ATOM     18  H   UNL     1      43.365   3.050  10.604  0.00  0.00    +0.000 HD
BRANCH  17  22
ATOM     19  C   UNL     1      46.634   2.671   7.533  0.00  0.00    +0.000 A 
ATOM     20  C   UNL     1      46.025   1.794   8.412  0.00  0.00    +0.000 A 
ATOM     21  N   UNL     1      45.149   2.200   9.369  0.00  0.00    +0.000 NA
ATOM     22  C   UNL     1      44.879   3.526   9.437  0.00  0.00    +0.000 A 
ATOM     23  C   UNL     1      45.525   4.399   8.560  0.00  0.00    +0.000 A 
ATOM     24  N   UNL     1      46.404   4.001   7.595  0.00  0.00    +0.000 NA
BRANCH  19  26
ATOM     25  N   UNL     1      48.252   1.782   5.711  0.00  0.00    +0.000 NA
ATOM     26  C   UNL     1      47.511   2.191   6.508  0.00  0.00    +0.000 C 
ENDBRANCH  19  26
ENDBRANCH  17  22
ENDBRANCH   1  17
TORSDOF 5
ENDMDL
MODEL 2
REMARK VINA RESULT:    -7.862      2.107      3.846
REMARK INTER + INTRA:         -11.083
REMARK INTER:                 -11.052
REMARK INTRA:                  -0.031
REMARK UNBOUND:                -0.923
REMARK  Name = 
REMARK  5 active torsions:
REMARK  status: ('A' for Active; 'I' for Inactive)
REMARK    1  A    between atoms: C_2  and  C_3
REMARK    2  A    between atoms: C_6  and  N_7
REMARK    3  A    between atoms: N_7  and  C_8
REMARK    4  A    between atoms: C_8  and  C_9
REMARK    5  A    between atoms: C_13  and  C_14
REMARK                            x       y       z     vdW  Elec       q    Type
REMARK                         _______ _______ _______ _____ _____    ______ ____
ROOT
ATOM      1  C   UNL     1      44.090   4.820  11.721  0.00  0.00    +0.000 C 
ATOM      2  C   UNL     1      43.398   3.711  12.515  0.00  0.00    +0.000 C 
ATOM      3  C   UNL     1      42.914   5.114  12.639  0.00  0.00    +0.000 C 
ENDROOT
BRANCH   1   4
ATOM      4  C   UNL     1      45.465   5.254  12.228  0.00  0.00    +0.000 A 
ATOM      5  C   UNL     1      46.203   6.242  11.564  0.00  0.00    +0.000 A 
ATOM      6  C   UNL     1      47.351   6.783  12.135  0.00  0.00    +0.000 A 
ATOM      7  C   UNL     1      47.808   6.315  13.370  0.00  0.00    +0.000 A 
ATOM      8  C   UNL     1      47.156   5.268  14.044  0.00  0.00    +0.000 A 
ATOM      9  C   UNL     1      45.993   4.752  13.438  0.00  0.00    +0.000 A 
BRANCH   8  10
ATOM     10  C   UNL     1      47.644   4.760  15.350  0.00  0.00    +0.000 A 
ATOM     11  C   UNL     1      47.491   3.405  15.707  0.00  0.00    +0.000 A 
ATOM     12  C   UNL     1      47.934   2.915  16.942  0.00  0.00    +0.000 A 
ATOM     13  C   UNL     1      48.558   3.765  17.850  0.00  0.00    +0.000 A 
ATOM     14  C   UNL     1      48.736   5.104  17.521  0.00  0.00    +0.000 A 
ATOM     15  C   UNL     1      48.281   5.588  16.291  0.00  0.00    +0.000 A 
ATOM     16  F   UNL     1      48.463   6.895  16.040  0.00  0.00    +0.000 F 
ENDBRANCH   8  10
ENDBRANCH   1   4
BRANCH   1  17
ATOM     17  N   UNL     1      44.002   4.689  10.269  0.00  0.00    +0.000 N 
ATOM     18  H   UNL     1      43.131   4.938   9.809  0.00  0.00    +0.000 HD
BRANCH  17  22
ATOM     19  C   UNL     1      46.481   2.618   7.729  0.00  0.00    +0.000 A 
ATOM     20  C   UNL     1      46.298   3.987   7.653  0.00  0.00    +0.000 A 
ATOM     21  N   UNL     1      45.453   4.664   8.474  0.00  0.00    +0.000 NA
ATOM     22  C   UNL     1      44.778   3.940   9.400  0.00  0.00    +0.000 A 
ATOM     23  C   UNL     1      44.955   2.555   9.442  0.00  0.00    +0.000 A 
ATOM     24  N   UNL     1      45.802   1.867   8.623  0.00  0.00    +0.000 NA
BRANCH  19  26
ATOM     25  N   UNL     1      48.156   1.431   6.144  0.00  0.00    +0.000 NA
ATOM     26  C   UNL     1      47.420   1.955   6.876  0.00  0.00    +0.000 C 
ENDBRANCH  19  26
ENDBRANCH  17  22
ENDBRANCH   1  17
TORSDOF 5
ENDMDL
MODEL 3
REMARK VINA RESULT:    -7.503      3.591      7.050
REMARK INTER + INTRA:         -10.619
REMARK INTER:                  -9.723
REMARK INTRA:                  -0.896
REMARK UNBOUND:                -0.923
REMARK  Name = 
REMARK  5 active torsions:
REMARK  status: ('A' for Active; 'I' for Inactive)
REMARK    1  A    between atoms: C_2  and  C_3
REMARK    2  A    between atoms: C_6  and  N_7
REMARK    3  A    between atoms: N_7  and  C_8
REMARK    4  A    between atoms: C_8  and  C_9
REMARK    5  A    between atoms: C_13  and  C_14
REMARK                            x       y       z     vdW  Elec       q    Type
REMARK                         _______ _______ _______ _____ _____    ______ ____
ROOT
ATOM      1  C   UNL     1      46.218   7.250  12.438  0.00  0.00    +0.000 C 
ATOM      2  C   UNL     1      46.399   8.623  11.790  0.00  0.00    +0.000 C 
ATOM      3  C   UNL     1      45.530   8.487  12.992  0.00  0.00    +0.000 C 
ENDROOT
BRANCH   1   4
ATOM      4  C   UNL     1      45.326   6.262  11.686  0.00  0.00    +0.000 A 
ATOM      5  C   UNL     1      43.935   6.274  11.848  0.00  0.00    +0.000 A 
ATOM      6  C   UNL     1      43.111   5.522  11.014  0.00  0.00    +0.000 A 
ATOM      7  C   UNL     1      43.669   4.709  10.024  0.00  0.00    +0.000 A 
ATOM      8  C   UNL     1      45.061   4.594   9.869  0.00  0.00    +0.000 A 
ATOM      9  C   UNL     1      45.862   5.375  10.725  0.00  0.00    +0.000 A 
BRANCH   8  10
ATOM     10  C   UNL     1      45.657   3.723   8.825  0.00  0.00    +0.000 A 
ATOM     11  C   UNL     1      46.367   4.271   7.738  0.00  0.00    +0.000 A 
ATOM     12  C   UNL     1      46.922   3.462   6.738  0.00  0.00    +0.000 A 
ATOM     13  C   UNL     1      46.796   2.078   6.807  0.00  0.00    +0.000 A 
ATOM     14  C   UNL     1      46.113   1.507   7.875  0.00  0.00    +0.000 A 
ATOM     15  C   UNL     1      45.552   2.321   8.862  0.00  0.00    +0.000 A 
ATOM     16  F   UNL     1      44.887   1.711   9.857  0.00  0.00    +0.000 F 
ENDBRANCH   8  10
ENDBRANCH   1   4
BRANCH   1  17
ATOM     17  N   UNL     1      47.436   6.657  12.985  0.00  0.00    +0.000 N 
ATOM     18  H   UNL     1      48.256   6.590  12.389  0.00  0.00    +0.000 HD
BRANCH  17  22
ATOM     19  C   UNL     1      47.890   4.375  16.372  0.00  0.00    +0.000 A 
ATOM     20  C   UNL     1      48.573   5.560  16.165  0.00  0.00    +0.000 A 
ATOM     21  N   UNL     1      48.444   6.295  15.030  0.00  0.00    +0.000 NA
ATOM     22  C   UNL     1      47.600   5.824  14.080  0.00  0.00    +0.000 A 
ATOM     23  C   UNL     1      46.941   4.611  14.296  0.00  0.00    +0.000 A 
ATOM     24  N   UNL     1      47.063   3.866  15.433  0.00  0.00    +0.000 NA
BRANCH  19  26
ATOM     25  N   UNL     1      48.148   3.119  18.627  0.00  0.00    +0.000 NA
ATOM     26  C   UNL     1      48.019   3.660  17.606  0.00  0.00    +0.000 C 
ENDBRANCH  19  26
ENDBRANCH  17  22
ENDBRANCH   1  17
TORSDOF 5
ENDMDL
MODEL 4
REMARK VINA RESULT:    -6.747      4.240      7.809
REMARK INTER + INTRA:          -9.642
REMARK INTER:                  -8.650
REMARK INTRA:                  -0.992
REMARK UNBOUND:                -0.923
REMARK  Name = 
REMARK  5 active torsions:
REMARK  status: ('A' for Active; 'I' for Inactive)
REMARK    1  A    between atoms: C_2  and  C_3
REMARK    2  A    between atoms: C_6  and  N_7
REMARK    3  A    between atoms: N_7  and  C_8
REMARK    4  A    between atoms: C_8  and  C_9
REMARK    5  A    between atoms: C_13  and  C_14
REMARK                            x       y       z     vdW  Elec       q    Type
REMARK                         _______ _______ _______ _____ _____    ______ ____
ROOT
ATOM      1  C   UNL     1      48.985   7.853  12.775  0.00  0.00    +0.000 C 
ATOM      2  C   UNL     1      49.914   8.020  11.572  0.00  0.00    +0.000 C 
ATOM      3  C   UNL     1      49.562   9.208  12.398  0.00  0.00    +0.000 C 
ENDROOT
BRANCH   1   4
ATOM      4  C   UNL     1      47.504   7.639  12.458  0.00  0.00    +0.000 A 
ATOM      5  C   UNL     1      46.551   8.622  12.752  0.00  0.00    +0.000 A 
ATOM      6  C   UNL     1      45.246   8.517  12.279  0.00  0.00    +0.000 A 
ATOM      7  C   UNL     1      44.858   7.401  11.532  0.00  0.00    +0.000 A 
ATOM      8  C   UNL     1      45.748   6.345  11.276  0.00  0.00    +0.000 A 
ATOM      9  C   UNL     1      47.062   6.490  11.764  0.00  0.00    +0.000 A 
BRANCH   8  10
ATOM     10  C   UNL     1      45.336   5.153  10.494  0.00  0.00    +0.000 A 
ATOM     11  C   UNL     1      45.641   5.042   9.121  0.00  0.00    +0.000 A 
ATOM     12  C   UNL     1      45.244   3.930   8.367  0.00  0.00    +0.000 A 
ATOM     13  C   UNL     1      44.546   2.888   8.969  0.00  0.00    +0.000 A 
ATOM     14  C   UNL     1      44.244   2.962  10.325  0.00  0.00    +0.000 A 
ATOM     15  C   UNL     1      44.632   4.080  11.068  0.00  0.00    +0.000 A 
ATOM     16  F   UNL     1      44.292   4.102  12.367  0.00  0.00    +0.000 F 
ENDBRANCH   8  10
ENDBRANCH   1   4
BRANCH   1  17
ATOM     17  N   UNL     1      49.497   6.995  13.840  0.00  0.00    +0.000 N 
ATOM     18  H   UNL     1      50.069   6.194  13.588  0.00  0.00    +0.000 HD
BRANCH  17  22
ATOM     19  C   UNL     1      48.341   6.373  17.734  0.00  0.00    +0.000 A 
ATOM     20  C   UNL     1      48.346   5.371  16.781  0.00  0.00    +0.000 A 
ATOM     21  N   UNL     1      48.699   5.588  15.486  0.00  0.00    +0.000 NA
ATOM     22  C   UNL     1      49.060   6.849  15.147  0.00  0.00    +0.000 A 
ATOM     23  C   UNL     1      49.021   7.853  16.117  0.00  0.00    +0.000 A 
ATOM     24  N   UNL     1      48.670   7.645  17.419  0.00  0.00    +0.000 NA
BRANCH  19  26
ATOM     25  N   UNL     1      47.784   5.825  20.207  0.00  0.00    +0.000 NA
ATOM     26  C   UNL     1      48.011   6.087  19.097  0.00  0.00    +0.000 C 
ENDBRANCH  19  26
ENDBRANCH  17  22
ENDBRANCH   1  17
TORSDOF 5
ENDMDL
MODEL 5
REMARK VINA RESULT:    -6.365      3.358      5.991
REMARK INTER + INTRA:          -9.148
REMARK INTER:                  -8.268
REMARK INTRA:                  -0.880
REMARK UNBOUND:                -0.923
REMARK  Name = 
REMARK  5 active torsions:
REMARK  status: ('A' for Active; 'I' for Inactive)
REMARK    1  A    between atoms: C_2  and  C_3
REMARK    2  A    between atoms: C_6  and  N_7
REMARK    3  A    between atoms: N_7  and  C_8
REMARK    4  A    between atoms: C_8  and  C_9
REMARK    5  A    between atoms: C_13  and  C_14
REMARK                            x       y       z     vdW  Elec       q    Type
REMARK                         _______ _______ _______ _____ _____    ______ ____
ROOT
ATOM      1  C   UNL     1      48.023   8.075  12.541  0.00  0.00    +0.000 C 
ATOM      2  C   UNL     1      48.664   9.232  11.772  0.00  0.00    +0.000 C 
ATOM      3  C   UNL     1      49.180   7.848  11.581  0.00  0.00    +0.000 C 
ENDROOT
BRANCH   1   4
ATOM      4  C   UNL     1      48.356   7.990  14.031  0.00  0.00    +0.000 A 
ATOM      5  C   UNL     1      48.261   9.115  14.859  0.00  0.00    +0.000 A 
ATOM      6  C   UNL     1      48.360   8.995  16.243  0.00  0.00    +0.000 A 
ATOM      7  C   UNL     1      48.596   7.746  16.824  0.00  0.00    +0.000 A 
ATOM      8  C   UNL     1      48.782   6.596  16.038  0.00  0.00    +0.000 A 
ATOM      9  C   UNL     1      48.667   6.755  14.643  0.00  0.00    +0.000 A 
BRANCH   8  10
ATOM     10  C   UNL     1      49.045   5.270  16.651  0.00  0.00    +0.000 A 
ATOM     11  C   UNL     1      50.283   4.984  17.263  0.00  0.00    +0.000 A 
ATOM     12  C   UNL     1      50.550   3.732  17.831  0.00  0.00    +0.000 A 
ATOM     13  C   UNL     1      49.580   2.734  17.817  0.00  0.00    +0.000 A 
ATOM     14  C   UNL     1      48.344   2.991  17.234  0.00  0.00    +0.000 A 
ATOM     15  C   UNL     1      48.089   4.239  16.658  0.00  0.00    +0.000 A 
ATOM     16  F   UNL     1      46.885   4.419  16.092  0.00  0.00    +0.000 F 
ENDBRANCH   8  10
ENDBRANCH   1   4
BRANCH   1  17
ATOM     17  N   UNL     1      46.619   7.826  12.227  0.00  0.00    +0.000 N 
ATOM     18  H   UNL     1      45.939   8.555  12.422  0.00  0.00    +0.000 HD
BRANCH  17  22
ATOM     19  C   UNL     1      44.479   4.343  11.799  0.00  0.00    +0.000 A 
ATOM     20  C   UNL     1      44.765   4.905  13.030  0.00  0.00    +0.000 A 
ATOM     21  N   UNL     1      45.499   6.040  13.168  0.00  0.00    +0.000 NA
ATOM     22  C   UNL     1      45.955   6.625  12.034  0.00  0.00    +0.000 A 
ATOM     23  C   UNL     1      45.681   6.026  10.802  0.00  0.00    +0.000 A 
ATOM     24  N   UNL     1      44.942   4.888  10.652  0.00  0.00    +0.000 NA
BRANCH  19  26
ATOM     25  N   UNL     1      43.025   2.201  11.645  0.00  0.00    +0.000 NA
ATOM     26  C   UNL     1      43.658   3.175  11.698  0.00  0.00    +0.000 C 
ENDBRANCH  19  26
ENDBRANCH  17  22
ENDBRANCH   1  17
TORSDOF 5
ENDMDL
MODEL 6
REMARK VINA RESULT:    -6.309      5.728      8.252
REMARK INTER + INTRA:          -9.076
REMARK INTER:                  -8.489
REMARK INTRA:                  -0.587
REMARK UNBOUND:                -0.923
REMARK  Name = 
REMARK  5 active torsions:
REMARK  status: ('A' for Active; 'I' for Inactive)
REMARK    1  A    between atoms: C_2  and  C_3
REMARK    2  A    between atoms: C_6  and  N_7
REMARK    3  A    between atoms: N_7  and  C_8
REMARK    4  A    between atoms: C_8  and  C_9
REMARK    5  A    between atoms: C_13  and  C_14
REMARK                            x       y       z     vdW  Elec       q    Type
REMARK                         _______ _______ _______ _____ _____    ______ ____
ROOT
ATOM      1  C   UNL     1      48.182   4.545  16.958  0.00  0.00    +0.000 C 
ATOM      2  C   UNL     1      47.197   4.783  18.104  0.00  0.00    +0.000 C 
ATOM      3  C   UNL     1      47.168   3.489  17.367  0.00  0.00    +0.000 C 
ENDROOT
BRANCH   1   4
ATOM      4  C   UNL     1      47.893   5.290  15.655  0.00  0.00    +0.000 A 
ATOM      5  C   UNL     1      48.744   6.303  15.195  0.00  0.00    +0.000 A 
ATOM      6  C   UNL     1      48.598   6.834  13.917  0.00  0.00    +0.000 A 
ATOM      7  C   UNL     1      47.568   6.388  13.084  0.00  0.00    +0.000 A 
ATOM      8  C   UNL     1      46.635   5.434  13.522  0.00  0.00    +0.000 A 
ATOM      9  C   UNL     1      46.818   4.914  14.818  0.00  0.00    +0.000 A 
BRANCH   8  10
ATOM     10  C   UNL     1      45.532   4.966  12.645  0.00  0.00    +0.000 A 
ATOM     11  C   UNL     1      44.637   5.880  12.052  0.00  0.00    +0.000 A 
ATOM     12  C   UNL     1      43.582   5.451  11.235  0.00  0.00    +0.000 A 
ATOM     13  C   UNL     1      43.404   4.096  10.974  0.00  0.00    +0.000 A 
ATOM     14  C   UNL     1      44.279   3.172  11.534  0.00  0.00    +0.000 A 
ATOM     15  C   UNL     1      45.322   3.606  12.358  0.00  0.00    +0.000 A 
ATOM     16  F   UNL     1      46.121   2.664  12.885  0.00  0.00    +0.000 F 
ENDBRANCH   8  10
ENDBRANCH   1   4
BRANCH   1  17
ATOM     17  N   UNL     1      49.591   4.541  17.344  0.00  0.00    +0.000 N 
ATOM     18  H   UNL     1      50.102   5.420  17.332  0.00  0.00    +0.000 HD
BRANCH  17  22
ATOM     19  C   UNL     1      52.313   1.483  17.701  0.00  0.00    +0.000 A 
ATOM     20  C   UNL     1      52.591   2.786  18.072  0.00  0.00    +0.000 A 
ATOM     21  N   UNL     1      51.699   3.801  17.922  0.00  0.00    +0.000 NA
ATOM     22  C   UNL     1      50.493   3.490  17.388  0.00  0.00    +0.000 A 
ATOM     23  C   UNL     1      50.241   2.174  16.994  0.00  0.00    +0.000 A 
ATOM     24  N   UNL     1      51.129   1.149  17.141  0.00  0.00    +0.000 NA
BRANCH  19  26
ATOM     25  N   UNL     1      54.000  -0.443  18.113  0.00  0.00    +0.000 NA
ATOM     26  C   UNL     1      53.265   0.438  17.924  0.00  0.00    +0.000 C 
ENDBRANCH  19  26
ENDBRANCH  17  22
ENDBRANCH   1  17
TORSDOF 5
ENDMDL
MODEL 7
REMARK VINA RESULT:    -5.739      4.071      6.104
REMARK INTER + INTRA:          -8.339
REMARK INTER:                  -7.502
REMARK INTRA:                  -0.837
REMARK UNBOUND:                -0.923
REMARK  Name = 
REMARK  5 active torsions:
REMARK  status: ('A' for Active; 'I' for Inactive)
REMARK    1  A    between atoms: C_2  and  C_3
REMARK    2  A    between atoms: C_6  and  N_7
REMARK    3  A    between atoms: N_7  and  C_8
REMARK    4  A    between atoms: C_8  and  C_9
REMARK    5  A    between atoms: C_13  and  C_14
REMARK                            x       y       z     vdW  Elec       q    Type
REMARK                         _______ _______ _______ _____ _____    ______ ____
ROOT
ATOM      1  C   UNL     1      46.143   4.774  13.681  0.00  0.00    +0.000 C 
ATOM      2  C   UNL     1      44.808   4.224  13.179  0.00  0.00    +0.000 C 
ATOM      3  C   UNL     1      46.077   3.585  12.736  0.00  0.00    +0.000 C 
ENDROOT
BRANCH   1   4
ATOM      4  C   UNL     1      46.600   6.098  13.069  0.00  0.00    +0.000 A 
ATOM      5  C   UNL     1      45.687   7.126  12.803  0.00  0.00    +0.000 A 
ATOM      6  C   UNL     1      46.125   8.397  12.444  0.00  0.00    +0.000 A 
ATOM      7  C   UNL     1      47.492   8.655  12.305  0.00  0.00    +0.000 A 
ATOM      8  C   UNL     1      48.450   7.642  12.479  0.00  0.00    +0.000 A 
ATOM      9  C   UNL     1      47.969   6.371  12.849  0.00  0.00    +0.000 A 
BRANCH   8  10
ATOM     10  C   UNL     1      49.901   7.909  12.321  0.00  0.00    +0.000 A 
ATOM     11  C   UNL     1      50.545   7.719  11.081  0.00  0.00    +0.000 A 
ATOM     12  C   UNL     1      51.917   7.952  10.921  0.00  0.00    +0.000 A 
ATOM     13  C   UNL     1      52.682   8.398  11.995  0.00  0.00    +0.000 A 
ATOM     14  C   UNL     1      52.072   8.609  13.227  0.00  0.00    +0.000 A 
ATOM     15  C   UNL     1      50.705   8.363  13.381  0.00  0.00    +0.000 A 
ATOM     16  F   UNL     1      50.179   8.564  14.600  0.00  0.00    +0.000 F 
ENDBRANCH   8  10
ENDBRANCH   1   4
BRANCH   1  17
ATOM     17  N   UNL     1      46.348   4.681  15.124  0.00  0.00    +0.000 N 
ATOM     18  H   UNL     1      45.705   5.171  15.740  0.00  0.00    +0.000 HD
BRANCH  17  22
ATOM     19  C   UNL     1      49.779   3.505  17.057  0.00  0.00    +0.000 A 
ATOM     20  C   UNL     1      48.876   2.609  16.513  0.00  0.00    +0.000 A 
ATOM     21  N   UNL     1      47.727   3.001  15.903  0.00  0.00    +0.000 NA
ATOM     22  C   UNL     1      47.485   4.333  15.836  0.00  0.00    +0.000 A 
ATOM     23  C   UNL     1      48.395   5.220  16.416  0.00  0.00    +0.000 A 
ATOM     24  N   UNL     1      49.552   4.837  17.029  0.00  0.00    +0.000 NA
BRANCH  19  26
ATOM     25  N   UNL     1      52.011   2.664  18.076  0.00  0.00    +0.000 NA
ATOM     26  C   UNL     1      51.002   3.048  17.645  0.00  0.00    +0.000 C 
ENDBRANCH  19  26
ENDBRANCH  17  22
ENDBRANCH   1  17
TORSDOF 5
ENDMDL
MODEL 8
REMARK VINA RESULT:    -5.716      4.118      7.354
REMARK INTER + INTRA:          -8.309
REMARK INTER:                  -7.872
REMARK INTRA:                  -0.437
REMARK UNBOUND:                -0.923
REMARK  Name = 
REMARK  5 active torsions:
REMARK  status: ('A' for Active; 'I' for Inactive)
REMARK    1  A    between atoms: C_2  and  C_3
REMARK    2  A    between atoms: C_6  and  N_7
REMARK    3  A    between atoms: N_7  and  C_8
REMARK    4  A    between atoms: C_8  and  C_9
REMARK    5  A    between atoms: C_13  and  C_14
REMARK                            x       y       z     vdW  Elec       q    Type
REMARK                         _______ _______ _______ _____ _____    ______ ____
ROOT
ATOM      1  C   UNL     1      48.209   7.878  13.770  0.00  0.00    +0.000 C 
ATOM      2  C   UNL     1      49.443   7.392  13.009  0.00  0.00    +0.000 C 
ATOM      3  C   UNL     1      49.215   8.853  13.182  0.00  0.00    +0.000 C 
ENDROOT
BRANCH   1   4
ATOM      4  C   UNL     1      46.874   7.760  13.035  0.00  0.00    +0.000 A 
ATOM      5  C   UNL     1      46.074   8.886  12.801  0.00  0.00    +0.000 A 
ATOM      6  C   UNL     1      44.969   8.815  11.957  0.00  0.00    +0.000 A 
ATOM      7  C   UNL     1      44.618   7.602  11.361  0.00  0.00    +0.000 A 
ATOM      8  C   UNL     1      45.334   6.422  11.624  0.00  0.00    +0.000 A 
ATOM      9  C   UNL     1      46.450   6.534  12.476  0.00  0.00    +0.000 A 
BRANCH   8  10
ATOM     10  C   UNL     1      44.956   5.128  11.002  0.00  0.00    +0.000 A 
ATOM     11  C   UNL     1      44.163   4.191  11.694  0.00  0.00    +0.000 A 
ATOM     12  C   UNL     1      43.812   2.960  11.125  0.00  0.00    +0.000 A 
ATOM     13  C   UNL     1      44.233   2.638   9.838  0.00  0.00    +0.000 A 
ATOM     14  C   UNL     1      45.005   3.548   9.125  0.00  0.00    +0.000 A 
ATOM     15  C   UNL     1      45.361   4.769   9.704  0.00  0.00    +0.000 A 
ATOM     16  F   UNL     1      46.125   5.596   8.972  0.00  0.00    +0.000 F 
ENDBRANCH   8  10
ENDBRANCH   1   4
BRANCH   1  17
ATOM     17  N   UNL     1      48.154   7.484  15.176  0.00  0.00    +0.000 N 
ATOM     18  H   UNL     1      47.977   8.199  15.876  0.00  0.00    +0.000 HD
BRANCH  17  22
ATOM     19  C   UNL     1      49.598   4.006  16.822  0.00  0.00    +0.000 A 
ATOM     20  C   UNL     1      48.375   4.084  16.180  0.00  0.00    +0.000 A 
ATOM     21  N   UNL     1      47.888   5.244  15.664  0.00  0.00    +0.000 NA
ATOM     22  C   UNL     1      48.656   6.352  15.798  0.00  0.00    +0.000 A 
ATOM     23  C   UNL     1      49.874   6.258  16.474  0.00  0.00    +0.000 A 
ATOM     24  N   UNL     1      50.374   5.099  16.993  0.00  0.00    +0.000 NA
BRANCH  19  26
ATOM     25  N   UNL     1      50.545   1.754  17.693  0.00  0.00    +0.000 NA
ATOM     26  C   UNL     1      50.095   2.753  17.303  0.00  0.00    +0.000 C 
ENDBRANCH  19  26
ENDBRANCH  17  22
ENDBRANCH   1  17
TORSDOF 5
ENDMDL
MODEL 9
REMARK VINA RESULT:    -5.652      5.237      7.718
REMARK INTER + INTRA:          -8.227
REMARK INTER:                  -7.674
REMARK INTRA:                  -0.553
REMARK UNBOUND:                -0.923
REMARK  Name = 
REMARK  5 active torsions:
REMARK  status: ('A' for Active; 'I' for Inactive)
REMARK    1  A    between atoms: C_2  and  C_3
REMARK    2  A    between atoms: C_6  and  N_7
REMARK    3  A    between atoms: N_7  and  C_8
REMARK    4  A    between atoms: C_8  and  C_9
REMARK    5  A    between atoms: C_13  and  C_14
REMARK                            x       y       z     vdW  Elec       q    Type
REMARK                         _______ _______ _______ _____ _____    ______ ____
ROOT
ATOM      1  C   UNL     1      49.448   7.504  15.371  0.00  0.00    +0.000 C 
ATOM      2  C   UNL     1      49.002   8.942  15.638  0.00  0.00    +0.000 C 
ATOM      3  C   UNL     1      50.453   8.638  15.497  0.00  0.00    +0.000 C 
ENDROOT
BRANCH   1   4
ATOM      4  C   UNL     1      49.366   6.541  16.555  0.00  0.00    +0.000 A 
ATOM      5  C   UNL     1      48.289   6.584  17.450  0.00  0.00    +0.000 A 
ATOM      6  C   UNL     1      48.107   5.582  18.399  0.00  0.00    +0.000 A 
ATOM      7  C   UNL     1      49.025   4.532  18.496  0.00  0.00    +0.000 A 
ATOM      8  C   UNL     1      50.167   4.480  17.680  0.00  0.00    +0.000 A 
ATOM      9  C   UNL     1      50.314   5.507  16.727  0.00  0.00    +0.000 A 
BRANCH   8  10
ATOM     10  C   UNL     1      51.150   3.373  17.789  0.00  0.00    +0.000 A 
ATOM     11  C   UNL     1      52.407   3.573  18.396  0.00  0.00    +0.000 A 
ATOM     12  C   UNL     1      53.350   2.541  18.491  0.00  0.00    +0.000 A 
ATOM     13  C   UNL     1      53.055   1.275  17.996  0.00  0.00    +0.000 A 
ATOM     14  C   UNL     1      51.819   1.043  17.404  0.00  0.00    +0.000 A 
ATOM     15  C   UNL     1      50.887   2.080  17.302  0.00  0.00    +0.000 A 
ATOM     16  F   UNL     1      49.719   1.800  16.702  0.00  0.00    +0.000 F 
ENDBRANCH   8  10
ENDBRANCH   1   4
BRANCH   1  17
ATOM     17  N   UNL     1      48.986   6.937  14.107  0.00  0.00    +0.000 N 
ATOM     18  H   UNL     1      49.560   7.061  13.278  0.00  0.00    +0.000 HD
BRANCH  17  22
ATOM     19  C   UNL     1      45.181   5.686  13.184  0.00  0.00    +0.000 A 
ATOM     20  C   UNL     1      46.147   4.842  13.700  0.00  0.00    +0.000 A 
ATOM     21  N   UNL     1      47.413   5.252  13.974  0.00  0.00    +0.000 NA
ATOM     22  C   UNL     1      47.711   6.550  13.724  0.00  0.00    +0.000 A 
ATOM     23  C   UNL     1      46.731   7.380  13.176  0.00  0.00    +0.000 A 
ATOM     24  N   UNL     1      45.456   6.978  12.899  0.00  0.00    +0.000 NA
BRANCH  19  26
ATOM     25  N   UNL     1      42.755   4.841  12.826  0.00  0.00    +0.000 NA
ATOM     26  C   UNL     1      43.846   5.223  12.959  0.00  0.00    +0.000 C 
ENDBRANCH  19  26
ENDBRANCH  17  22
ENDBRANCH   1  17
TORSDOF 5
ENDMDL
