MODEL 1
REMARK VINA RESULT:    -7.877      0.000      0.000
REMARK INTER + INTRA:         -11.670
REMARK INTER:                 -10.640
REMARK INTRA:                  -1.030
REMARK UNBOUND:                -1.030
REMARK  Name = 
REMARK  6 active torsions:
REMARK  status: ('A' for Active; 'I' for Inactive)
REMARK    1  A    between atoms: C_2  and  C_20
REMARK    2  A    between atoms: N_3  and  C_4
REMARK    3  A    between atoms: C_4  and  C_5
REMARK    4  A    between atoms: C_8  and  C_9
REMARK    5  A    between atoms: C_9  and  N_10
REMARK    6  A    between atoms: C_11  and  C_13
REMARK                            x       y       z     vdW  Elec       q    Type
REMARK                         _______ _______ _______ _____ _____    ______ ____
ROOT
ATOM      1  C   UNL     1      47.561   8.344  13.790  0.00  0.00    +0.000 C 
ENDROOT
BRANCH   1   2
ATOM      2  C   UNL     1      46.559   7.593  12.949  0.00  0.00    +0.000 A 
ATOM      3  C   UNL     1      45.511   8.270  12.310  0.00  0.00    +0.000 A 
ATOM      4  C   UNL     1      44.578   7.575  11.532  0.00  0.00    +0.000 A 
ATOM      5  C   UNL     1      44.658   6.183  11.392  0.00  0.00    +0.000 A 
ATOM      6  C   UNL     1      45.704   5.506  12.033  0.00  0.00    +0.000 A 
ATOM      7  C   UNL     1      46.638   6.201  12.812  0.00  0.00    +0.000 A 
BRANCH   5   8
ATOM      8  C   UNL     1      43.632   5.427  10.587  0.00  0.00    +0.000 C 
BRANCH   8   9
ATOM      9  N   UNL     1      44.201   4.738   9.457  0.00  0.00    +0.000 N 
ATOM     10  C   UNL     1      44.335   3.367   9.452  0.00  0.00    +0.000 C 
ATOM     11  O   UNL     1      44.028   2.655  10.406  0.00  0.00    +0.000 OA
ATOM     12  H   UNL     1      44.387   5.229   8.587  0.00  0.00    +0.000 HD
BRANCH  10  13
ATOM     13  C   UNL     1      44.910   2.794   8.145  0.00  0.00    +0.000 C 
ATOM     14  C   UNL     1      45.981   1.747   8.426  0.00  0.00    +0.000 C 
ATOM     15  C   UNL     1      46.960   1.949   7.297  0.00  0.00    +0.000 C 
ATOM     16  C   UNL     1      46.875   3.440   7.074  0.00  0.00    +0.000 C 
ATOM     17  O   UNL     1      45.511   3.805   7.316  0.00  0.00    +0.000 OA
ENDBRANCH  10  13
ENDBRANCH   8   9
ENDBRANCH   5   8
ENDBRANCH   1   2
BRANCH   1  20
ATOM     18  O   UNL     1      50.016   7.127  14.277  0.00  0.00    +0.000 OA
ATOM     19  C   UNL     1      49.175   7.114  15.172  0.00  0.00    +0.000 C 
ATOM     20  N   UNL     1      47.908   7.615  14.986  0.00  0.00    +0.000 N 
ATOM     21  H   UNL     1      47.314   7.767  15.796  0.00  0.00    +0.000 HD
BRANCH  19  22
ATOM     22  C   UNL     1      49.463   6.525  16.485  0.00  0.00    +0.000 A 
ATOM     23  C   UNL     1      50.298   7.184  17.375  0.00  0.00    +0.000 A 
ATOM     24  S   UNL     1      50.532   6.347  18.846  0.00  0.00    +0.000 S 
ATOM     25  C   UNL     1      49.483   5.096  18.363  0.00  0.00    +0.000 A 
ATOM     26  N   UNL     1      49.210   4.051  19.189  0.00  0.00    +0.000 NA
ATOM     27  C   UNL     1      48.368   3.197  18.710  0.00  0.00    +0.000 A 
ATOM     28  N   UNL     1      47.780   3.290  17.475  0.00  0.00    +0.000 N 
ATOM     29  C   UNL     1      48.055   4.305  16.593  0.00  0.00    +0.000 A 
ATOM     30  O   UNL     1      47.554   4.326  15.473  0.00  0.00    +0.000 OA
ATOM     31  C   UNL     1      48.981   5.305  17.090  0.00  0.00    +0.000 A 
ATOM     32  H   UNL     1      47.139   2.580  17.153  0.00  0.00    +0.000 HD
ENDBRANCH  19  22
ENDBRANCH   1  20
TORSDOF 6
ENDMDL
MODEL 2
REMARK VINA RESULT:    -7.873      2.071      3.689
REMARK INTER + INTRA:         -11.665
REMARK INTER:                 -10.581
REMARK INTRA:                  -1.084
REMARK UNBOUND:                -1.030
REMARK  Name = 
REMARK  6 active torsions:
REMARK  status: ('A' for Active; 'I' for Inactive)
REMARK    1  A    between atoms: C_2  and  C_20
REMARK    2  A    between atoms: N_3  and  C_4
REMARK    3  A    between atoms: C_4  and  C_5
REMARK    4  A    between atoms: C_8  and  C_9
REMARK    5  A    between atoms: C_9  and  N_10
REMARK    6  A    between atoms: C_11  and  C_13
REMARK                            x       y       z     vdW  Elec       q    Type
REMARK                         _______ _______ _______ _____ _____    ______ ____
ROOT
ATOM      1  C   UNL     1      46.907   4.326  14.980  0.00  0.00    +0.000 C 
ENDROOT
BRANCH   1   2
ATOM      2  C   UNL     1      46.089   4.408  13.716  0.00  0.00    +0.000 A 
ATOM      3  C   UNL     1      45.836   3.260  12.951  0.00  0.00    +0.000 A 
ATOM      4  C   UNL     1      45.081   3.334  11.775  0.00  0.00    +0.000 A 
ATOM      5  C   UNL     1      44.578   4.562  11.323  0.00  0.00    +0.000 A 
ATOM      6  C   UNL     1      44.833   5.710  12.086  0.00  0.00    +0.000 A 
ATOM      7  C   UNL     1      45.589   5.636  13.263  0.00  0.00    +0.000 A 
BRANCH   5   8
ATOM      8  C   UNL     1      43.798   4.651  10.037  0.00  0.00    +0.000 C 
BRANCH   8   9
ATOM      9  N   UNL     1      44.294   3.764   9.016  0.00  0.00    +0.000 N 
ATOM     10  C   UNL     1      45.420   4.075   8.287  0.00  0.00    +0.000 C 
ATOM     11  O   UNL     1      46.040   5.128   8.420  0.00  0.00    +0.000 OA
ATOM     12  H   UNL     1      43.909   2.830   8.906  0.00  0.00    +0.000 HD
BRANCH  10  13
ATOM     13  C   UNL     1      45.839   2.991   7.279  0.00  0.00    +0.000 C 
ATOM     14  C   UNL     1      46.251   1.708   7.988  0.00  0.00    +0.000 C 
ATOM     15  C   UNL     1      47.358   1.175   7.113  0.00  0.00    +0.000 C 
ATOM     16  C   UNL     1      48.006   2.446   6.622  0.00  0.00    +0.000 C 
ATOM     17  O   UNL     1      46.949   3.399   6.458  0.00  0.00    +0.000 OA
ENDBRANCH  10  13
ENDBRANCH   8   9
ENDBRANCH   5   8
ENDBRANCH   1   2
BRANCH   1  20
ATOM     18  O   UNL     1      49.063   4.671  16.705  0.00  0.00    +0.000 OA
ATOM     19  C   UNL     1      48.638   5.654  16.104  0.00  0.00    +0.000 C 
ATOM     20  N   UNL     1      47.525   5.589  15.300  0.00  0.00    +0.000 N 
ATOM     21  H   UNL     1      47.325   6.362  14.672  0.00  0.00    +0.000 HD
BRANCH  19  22
ATOM     22  C   UNL     1      49.276   6.969  16.241  0.00  0.00    +0.000 A 
ATOM     23  C   UNL     1      49.495   7.508  17.500  0.00  0.00    +0.000 A 
ATOM     24  S   UNL     1      50.232   9.049  17.468  0.00  0.00    +0.000 S 
ATOM     25  C   UNL     1      50.330   9.027  15.769  0.00  0.00    +0.000 A 
ATOM     26  N   UNL     1      50.897  10.056  15.086  0.00  0.00    +0.000 NA
ATOM     27  C   UNL     1      50.939   9.889  13.805  0.00  0.00    +0.000 A 
ATOM     28  N   UNL     1      50.458   8.787  13.147  0.00  0.00    +0.000 N 
ATOM     29  C   UNL     1      49.843   7.743  13.791  0.00  0.00    +0.000 A 
ATOM     30  O   UNL     1      49.372   6.799  13.164  0.00  0.00    +0.000 OA
ATOM     31  C   UNL     1      49.787   7.871  15.235  0.00  0.00    +0.000 A 
ATOM     32  H   UNL     1      50.509   8.723  12.141  0.00  0.00    +0.000 HD
ENDBRANCH  19  22
ENDBRANCH   1  20
TORSDOF 6
ENDMDL
MODEL 3
REMARK VINA RESULT:    -7.691      2.394      3.352
REMARK INTER + INTRA:         -11.418
REMARK INTER:                 -10.560
REMARK INTRA:                  -0.859
REMARK UNBOUND:                -1.030
REMARK  Name = 
REMARK  6 active torsions:
REMARK  status: ('A' for Active; 'I' for Inactive)
REMARK    1  A    between atoms: C_2  and  C_20
REMARK    2  A    between atoms: N_3  and  C_4
REMARK    3  A    between atoms: C_4  and  C_5
REMARK    4  A    between atoms: C_8  and  C_9
REMARK    5  A    between atoms: C_9  and  N_10
REMARK    6  A    between atoms: C_11  and  C_13
REMARK                            x       y       z     vdW  Elec       q    Type
REMARK                         _______ _______ _______ _____ _____    ______ ____
ROOT
ATOM      1  C   UNL     1      47.200   4.325  15.022  0.00  0.00    +0.000 C 
ENDROOT
BRANCH   1   2
ATOM      2  C   UNL     1      46.335   4.417  13.791  0.00  0.00    +0.000 A 
ATOM      3  C   UNL     1      45.960   3.261  13.092  0.00  0.00    +0.000 A 
ATOM      4  C   UNL     1      45.159   3.342  11.947  0.00  0.00    +0.000 A 
ATOM      5  C   UNL     1      44.732   4.585  11.459  0.00  0.00    +0.000 A 
ATOM      6  C   UNL     1      45.109   5.742  12.156  0.00  0.00    +0.000 A 
ATOM      7  C   UNL     1      45.911   5.659  13.302  0.00  0.00    +0.000 A 
BRANCH   5   8
ATOM      8  C   UNL     1      43.903   4.680  10.204  0.00  0.00    +0.000 C 
BRANCH   8   9
ATOM      9  N   UNL     1      44.346   3.781   9.170  0.00  0.00    +0.000 N 
ATOM     10  C   UNL     1      45.429   4.086   8.375  0.00  0.00    +0.000 C 
ATOM     11  O   UNL     1      46.052   5.143   8.461  0.00  0.00    +0.000 OA
ATOM     12  H   UNL     1      43.960   2.844   9.093  0.00  0.00    +0.000 HD
BRANCH  10  13
ATOM     13  C   UNL     1      45.796   2.990   7.360  0.00  0.00    +0.000 C 
ATOM     14  C   UNL     1      46.188   1.696   8.062  0.00  0.00    +0.000 C 
ATOM     15  C   UNL     1      47.260   1.132   7.164  0.00  0.00    +0.000 C 
ATOM     16  C   UNL     1      47.933   2.385   6.658  0.00  0.00    +0.000 C 
ATOM     17  O   UNL     1      46.900   3.367   6.515  0.00  0.00    +0.000 OA
ENDBRANCH  10  13
ENDBRANCH   8   9
ENDBRANCH   5   8
ENDBRANCH   1   2
BRANCH   1  20
ATOM     18  O   UNL     1      49.361   4.895  16.681  0.00  0.00    +0.000 OA
ATOM     19  C   UNL     1      48.668   5.830  16.289  0.00  0.00    +0.000 C 
ATOM     20  N   UNL     1      47.534   5.631  15.539  0.00  0.00    +0.000 N 
ATOM     21  H   UNL     1      47.105   6.424  15.072  0.00  0.00    +0.000 HD
BRANCH  19  22
ATOM     22  C   UNL     1      48.992   7.220  16.635  0.00  0.00    +0.000 A 
ATOM     23  C   UNL     1      49.786   7.980  15.788  0.00  0.00    +0.000 A 
ATOM     24  S   UNL     1      50.071   9.566  16.355  0.00  0.00    +0.000 S 
ATOM     25  C   UNL     1      49.101   9.307  17.730  0.00  0.00    +0.000 A 
ATOM     26  N   UNL     1      48.893  10.297  18.639  0.00  0.00    +0.000 NA
ATOM     27  C   UNL     1      48.105   9.974  19.610  0.00  0.00    +0.000 A 
ATOM     28  N   UNL     1      47.512   8.746  19.758  0.00  0.00    +0.000 N 
ATOM     29  C   UNL     1      47.724   7.706  18.888  0.00  0.00    +0.000 A 
ATOM     30  O   UNL     1      47.223   6.603  19.083  0.00  0.00    +0.000 OA
ATOM     31  C   UNL     1      48.587   8.022  17.765  0.00  0.00    +0.000 A 
ATOM     32  H   UNL     1      46.916   8.553  20.549  0.00  0.00    +0.000 HD
ENDBRANCH  19  22
ENDBRANCH   1  20
TORSDOF 6
ENDMDL
MODEL 4
REMARK VINA RESULT:    -7.473      2.472      3.632
REMARK INTER + INTRA:         -11.124
REMARK INTER:                 -10.190
REMARK INTRA:                  -0.934
REMARK UNBOUND:                -1.030
REMARK  Name = 
REMARK  6 active torsions:
REMARK  status: ('A' for Active; 'I' for Inactive)
REMARK    1  A    between atoms: C_2  and  C_20
REMARK    2  A    between atoms: N_3  and  C_4
REMARK    3  A    between atoms: C_4  and  C_5
REMARK    4  A    between atoms: C_8  and  C_9
REMARK    5  A    between atoms: C_9  and  N_10
REMARK    6  A    between atoms: C_11  and  C_13
REMARK                            x       y       z     vdW  Elec       q    Type
REMARK                         _______ _______ _______ _____ _____    ______ ____
ROOT
ATOM      1  C   UNL     1      47.688   4.441  15.802  0.00  0.00    +0.000 C 
ENDROOT
BRANCH   1   2
ATOM      2  C   UNL     1      47.105   4.913  14.495  0.00  0.00    +0.000 A 
ATOM      3  C   UNL     1      45.935   4.336  13.983  0.00  0.00    +0.000 A 
ATOM      4  C   UNL     1      45.393   4.770  12.767  0.00  0.00    +0.000 A 
ATOM      5  C   UNL     1      46.021   5.778  12.023  0.00  0.00    +0.000 A 
ATOM      6  C   UNL     1      47.193   6.354  12.534  0.00  0.00    +0.000 A 
ATOM      7  C   UNL     1      47.735   5.919  13.750  0.00  0.00    +0.000 A 
BRANCH   5   8
ATOM      8  C   UNL     1      45.462   6.221  10.695  0.00  0.00    +0.000 C 
BRANCH   8   9
ATOM      9  N   UNL     1      45.679   5.258   9.646  0.00  0.00    +0.000 N 
ATOM     10  C   UNL     1      44.699   4.356   9.293  0.00  0.00    +0.000 C 
ATOM     11  O   UNL     1      43.614   4.280   9.866  0.00  0.00    +0.000 OA
ATOM     12  H   UNL     1      46.501   5.312   9.050  0.00  0.00    +0.000 HD
BRANCH  10  13
ATOM     13  C   UNL     1      45.079   3.439   8.118  0.00  0.00    +0.000 C 
ATOM     14  C   UNL     1      45.662   2.121   8.612  0.00  0.00    +0.000 C 
ATOM     15  C   UNL     1      46.698   1.793   7.567  0.00  0.00    +0.000 C 
ATOM     16  C   UNL     1      47.193   3.165   7.177  0.00  0.00    +0.000 C 
ATOM     17  O   UNL     1      46.057   4.036   7.245  0.00  0.00    +0.000 OA
ENDBRANCH  10  13
ENDBRANCH   8   9
ENDBRANCH   5   8
ENDBRANCH   1   2
BRANCH   1  20
ATOM     18  O   UNL     1      49.693   5.838  17.133  0.00  0.00    +0.000 OA
ATOM     19  C   UNL     1      48.525   6.100  17.406  0.00  0.00    +0.000 C 
ATOM     20  N   UNL     1      47.476   5.399  16.860  0.00  0.00    +0.000 N 
ATOM     21  H   UNL     1      46.534   5.768  16.953  0.00  0.00    +0.000 HD
BRANCH  19  22
ATOM     22  C   UNL     1      48.181   7.156  18.366  0.00  0.00    +0.000 A 
ATOM     23  C   UNL     1      48.058   6.857  19.715  0.00  0.00    +0.000 A 
ATOM     24  S   UNL     1      47.641   8.203  20.681  0.00  0.00    +0.000 S 
ATOM     25  C   UNL     1      47.659   9.244  19.334  0.00  0.00    +0.000 A 
ATOM     26  N   UNL     1      47.410  10.573  19.472  0.00  0.00    +0.000 NA
ATOM     27  C   UNL     1      47.496  11.250  18.374  0.00  0.00    +0.000 A 
ATOM     28  N   UNL     1      47.802  10.713  17.150  0.00  0.00    +0.000 N 
ATOM     29  C   UNL     1      48.022   9.373  16.957  0.00  0.00    +0.000 A 
ATOM     30  O   UNL     1      48.236   8.919  15.837  0.00  0.00    +0.000 OA
ATOM     31  C   UNL     1      47.957   8.569  18.163  0.00  0.00    +0.000 A 
ATOM     32  H   UNL     1      47.840  11.295  16.326  0.00  0.00    +0.000 HD
ENDBRANCH  19  22
ENDBRANCH   1  20
TORSDOF 6
ENDMDL
MODEL 5
REMARK VINA RESULT:    -7.405      4.420      9.574
REMARK INTER + INTRA:         -11.033
REMARK INTER:                 -10.124
REMARK INTRA:                  -0.909
REMARK UNBOUND:                -1.030
REMARK  Name = 
REMARK  6 active torsions:
REMARK  status: ('A' for Active; 'I' for Inactive)
REMARK    1  A    between atoms: C_2  and  C_20
REMARK    2  A    between atoms: N_3  and  C_4
REMARK    3  A    between atoms: C_4  and  C_5
REMARK    4  A    between atoms: C_8  and  C_9
REMARK    5  A    between atoms: C_9  and  N_10
REMARK    6  A    between atoms: C_11  and  C_13
REMARK                            x       y       z     vdW  Elec       q    Type
REMARK                         _______ _______ _______ _____ _____    ______ ____
ROOT
ATOM      1  C   UNL     1      47.229   3.459  16.633  0.00  0.00    +0.000 C 
ENDROOT
BRANCH   1   2
ATOM      2  C   UNL     1      48.679   3.630  17.007  0.00  0.00    +0.000 A 
ATOM      3  C   UNL     1      49.528   2.519  17.106  0.00  0.00    +0.000 A 
ATOM      4  C   UNL     1      50.875   2.674  17.456  0.00  0.00    +0.000 A 
ATOM      5  C   UNL     1      51.399   3.943  17.738  0.00  0.00    +0.000 A 
ATOM      6  C   UNL     1      50.550   5.054  17.642  0.00  0.00    +0.000 A 
ATOM      7  C   UNL     1      49.202   4.898  17.292  0.00  0.00    +0.000 A 
BRANCH   5   8
ATOM      8  C   UNL     1      52.838   4.110  18.154  0.00  0.00    +0.000 C 
BRANCH   8   9
ATOM      9  N   UNL     1      53.624   2.921  17.945  0.00  0.00    +0.000 N 
ATOM     10  C   UNL     1      54.129   2.204  19.008  0.00  0.00    +0.000 C 
ATOM     11  O   UNL     1      53.987   2.546  20.181  0.00  0.00    +0.000 OA
ATOM     12  H   UNL     1      53.708   2.506  17.021  0.00  0.00    +0.000 HD
BRANCH  10  13
ATOM     13  C   UNL     1      54.898   0.934  18.605  0.00  0.00    +0.000 C 
ATOM     14  C   UNL     1      54.578   0.527  17.172  0.00  0.00    +0.000 C 
ATOM     15  C   UNL     1      54.619  -0.979  17.228  0.00  0.00    +0.000 C 
ATOM     16  C   UNL     1      54.098  -1.254  18.618  0.00  0.00    +0.000 C 
ATOM     17  O   UNL     1      54.585  -0.192  19.447  0.00  0.00    +0.000 OA
ENDBRANCH  10  13
ENDBRANCH   8   9
ENDBRANCH   5   8
ENDBRANCH   1   2
BRANCH   1  20
ATOM     18  O   UNL     1      47.216   3.164  13.866  0.00  0.00    +0.000 OA
ATOM     19  C   UNL     1      46.753   4.197  14.341  0.00  0.00    +0.000 C 
ATOM     20  N   UNL     1      46.798   4.462  15.689  0.00  0.00    +0.000 N 
ATOM     21  H   UNL     1      46.236   5.221  16.062  0.00  0.00    +0.000 HD
BRANCH  19  22
ATOM     22  C   UNL     1      46.157   5.232  13.487  0.00  0.00    +0.000 A 
ATOM     23  C   UNL     1      46.885   6.366  13.156  0.00  0.00    +0.000 A 
ATOM     24  S   UNL     1      46.030   7.466  12.169  0.00  0.00    +0.000 S 
ATOM     25  C   UNL     1      44.672   6.441  12.108  0.00  0.00    +0.000 A 
ATOM     26  N   UNL     1      43.570   6.778  11.387  0.00  0.00    +0.000 NA
ATOM     27  C   UNL     1      42.632   5.891  11.398  0.00  0.00    +0.000 A 
ATOM     28  N   UNL     1      42.695   4.698  12.071  0.00  0.00    +0.000 N 
ATOM     29  C   UNL     1      43.769   4.333  12.843  0.00  0.00    +0.000 A 
ATOM     30  O   UNL     1      43.768   3.284  13.479  0.00  0.00    +0.000 OA
ATOM     31  C   UNL     1      44.862   5.288  12.849  0.00  0.00    +0.000 A 
ATOM     32  H   UNL     1      41.920   4.052  12.050  0.00  0.00    +0.000 HD
ENDBRANCH  19  22
ENDBRANCH   1  20
TORSDOF 6
ENDMDL
MODEL 6
REMARK VINA RESULT:    -7.037      1.793      2.342
REMARK INTER + INTRA:         -10.535
REMARK INTER:                  -9.515
REMARK INTRA:                  -1.020
REMARK UNBOUND:                -1.030
REMARK  Name = 
REMARK  6 active torsions:
REMARK  status: ('A' for Active; 'I' for Inactive)
REMARK    1  A    between atoms: C_2  and  C_20
REMARK    2  A    between atoms: N_3  and  C_4
REMARK    3  A    between atoms: C_4  and  C_5
REMARK    4  A    between atoms: C_8  and  C_9
REMARK    5  A    between atoms: C_9  and  N_10
REMARK    6  A    between atoms: C_11  and  C_13
REMARK                            x       y       z     vdW  Elec       q    Type
REMARK                         _______ _______ _______ _____ _____    ______ ____
ROOT
ATOM      1  C   UNL     1      48.694   7.919  14.008  0.00  0.00    +0.000 C 
ENDROOT
BRANCH   1   2
ATOM      2  C   UNL     1      47.536   7.372  13.212  0.00  0.00    +0.000 A 
ATOM      3  C   UNL     1      46.647   8.234  12.557  0.00  0.00    +0.000 A 
ATOM      4  C   UNL     1      45.569   7.729  11.821  0.00  0.00    +0.000 A 
ATOM      5  C   UNL     1      45.342   6.348  11.740  0.00  0.00    +0.000 A 
ATOM      6  C   UNL     1      46.230   5.485  12.398  0.00  0.00    +0.000 A 
ATOM      7  C   UNL     1      47.308   5.992  13.135  0.00  0.00    +0.000 A 
BRANCH   5   8
ATOM      8  C   UNL     1      44.160   5.802  10.981  0.00  0.00    +0.000 C 
BRANCH   8   9
ATOM      9  N   UNL     1      44.540   5.069   9.800  0.00  0.00    +0.000 N 
ATOM     10  C   UNL     1      44.432   3.697   9.748  0.00  0.00    +0.000 C 
ATOM     11  O   UNL     1      44.056   3.013  10.698  0.00  0.00    +0.000 OA
ATOM     12  H   UNL     1      44.764   5.553   8.936  0.00  0.00    +0.000 HD
BRANCH  10  13
ATOM     13  C   UNL     1      44.830   3.084   8.394  0.00  0.00    +0.000 C 
ATOM     14  C   UNL     1      45.745   1.880   8.581  0.00  0.00    +0.000 C 
ATOM     15  C   UNL     1      46.670   1.966   7.394  0.00  0.00    +0.000 C 
ATOM     16  C   UNL     1      46.800   3.459   7.208  0.00  0.00    +0.000 C 
ATOM     17  O   UNL     1      45.525   4.018   7.547  0.00  0.00    +0.000 OA
ENDBRANCH  10  13
ENDBRANCH   8   9
ENDBRANCH   5   8
ENDBRANCH   1   2
BRANCH   1  20
ATOM     18  O   UNL     1      48.407   7.869  16.776  0.00  0.00    +0.000 OA
ATOM     19  C   UNL     1      48.996   6.936  16.237  0.00  0.00    +0.000 C 
ATOM     20  N   UNL     1      49.257   6.924  14.888  0.00  0.00    +0.000 N 
ATOM     21  H   UNL     1      49.564   6.059  14.452  0.00  0.00    +0.000 HD
BRANCH  19  22
ATOM     22  C   UNL     1      49.493   5.793  17.014  0.00  0.00    +0.000 A 
ATOM     23  C   UNL     1      48.598   4.920  17.616  0.00  0.00    +0.000 A 
ATOM     24  S   UNL     1      49.351   3.660  18.489  0.00  0.00    +0.000 S 
ATOM     25  C   UNL     1      50.902   4.210  18.050  0.00  0.00    +0.000 A 
ATOM     26  N   UNL     1      52.020   3.547  18.450  0.00  0.00    +0.000 NA
ATOM     27  C   UNL     1      53.125   4.052  18.012  0.00  0.00    +0.000 A 
ATOM     28  N   UNL     1      53.212   5.164  17.215  0.00  0.00    +0.000 N 
ATOM     29  C   UNL     1      52.115   5.887  16.820  0.00  0.00    +0.000 A 
ATOM     30  O   UNL     1      52.234   6.911  16.154  0.00  0.00    +0.000 OA
ATOM     31  C   UNL     1      50.843   5.350  17.268  0.00  0.00    +0.000 A 
ATOM     32  H   UNL     1      54.110   5.517  16.917  0.00  0.00    +0.000 HD
ENDBRANCH  19  22
ENDBRANCH   1  20
TORSDOF 6
ENDMDL
MODEL 7
REMARK VINA RESULT:    -6.745      3.692      9.095
REMARK INTER + INTRA:         -10.141
REMARK INTER:                  -9.251
REMARK INTRA:                  -0.890
REMARK UNBOUND:                -1.030
REMARK  Name = 
REMARK  6 active torsions:
REMARK  status: ('A' for Active; 'I' for Inactive)
REMARK    1  A    between atoms: C_2  and  C_20
REMARK    2  A    between atoms: N_3  and  C_4
REMARK    3  A    between atoms: C_4  and  C_5
REMARK    4  A    between atoms: C_8  and  C_9
REMARK    5  A    between atoms: C_9  and  N_10
REMARK    6  A    between atoms: C_11  and  C_13
REMARK                            x       y       z     vdW  Elec       q    Type
REMARK                         _______ _______ _______ _____ _____    ______ ____
ROOT
ATOM      1  C   UNL     1      47.155   3.434  16.765  0.00  0.00    +0.000 C 
ENDROOT
BRANCH   1   2
ATOM      2  C   UNL     1      48.622   3.448  17.112  0.00  0.00    +0.000 A 
ATOM      3  C   UNL     1      49.255   4.639  17.496  0.00  0.00    +0.000 A 
ATOM      4  C   UNL     1      50.618   4.656  17.816  0.00  0.00    +0.000 A 
ATOM      5  C   UNL     1      51.386   3.486  17.737  0.00  0.00    +0.000 A 
ATOM      6  C   UNL     1      50.754   2.296  17.351  0.00  0.00    +0.000 A 
ATOM      7  C   UNL     1      49.390   2.279  17.031  0.00  0.00    +0.000 A 
BRANCH   5   8
ATOM      8  C   UNL     1      52.862   3.509  18.042  0.00  0.00    +0.000 C 
BRANCH   8   9
ATOM      9  N   UNL     1      53.541   4.630  17.446  0.00  0.00    +0.000 N 
ATOM     10  C   UNL     1      54.857   4.536  17.048  0.00  0.00    +0.000 C 
ATOM     11  O   UNL     1      55.542   3.529  17.213  0.00  0.00    +0.000 OA
ATOM     12  H   UNL     1      53.031   5.467  17.178  0.00  0.00    +0.000 HD
BRANCH  10  13
ATOM     13  C   UNL     1      55.407   5.810  16.382  0.00  0.00    +0.000 C 
ATOM     14  C   UNL     1      54.384   6.938  16.421  0.00  0.00    +0.000 C 
ATOM     15  C   UNL     1      54.628   7.663  15.121  0.00  0.00    +0.000 C 
ATOM     16  C   UNL     1      55.020   6.532  14.202  0.00  0.00    +0.000 C 
ATOM     17  O   UNL     1      55.760   5.603  15.002  0.00  0.00    +0.000 OA
ENDBRANCH  10  13
ENDBRANCH   8   9
ENDBRANCH   5   8
ENDBRANCH   1   2
BRANCH   1  20
ATOM     18  O   UNL     1      47.218   3.138  13.999  0.00  0.00    +0.000 OA
ATOM     19  C   UNL     1      46.806   4.199  14.459  0.00  0.00    +0.000 C 
ATOM     20  N   UNL     1      46.821   4.461  15.808  0.00  0.00    +0.000 N 
ATOM     21  H   UNL     1      46.296   5.255  16.163  0.00  0.00    +0.000 HD
BRANCH  19  22
ATOM     22  C   UNL     1      46.306   5.269  13.587  0.00  0.00    +0.000 A 
ATOM     23  C   UNL     1      47.112   6.359  13.291  0.00  0.00    +0.000 A 
ATOM     24  S   UNL     1      46.364   7.510  12.275  0.00  0.00    +0.000 S 
ATOM     25  C   UNL     1      44.952   6.567  12.155  0.00  0.00    +0.000 A 
ATOM     26  N   UNL     1      43.901   6.970  11.392  0.00  0.00    +0.000 NA
ATOM     27  C   UNL     1      42.913   6.139  11.361  0.00  0.00    +0.000 A 
ATOM     28  N   UNL     1      42.879   4.943  12.031  0.00  0.00    +0.000 N 
ATOM     29  C   UNL     1      43.898   4.514  12.843  0.00  0.00    +0.000 A 
ATOM     30  O   UNL     1      43.809   3.465  13.473  0.00  0.00    +0.000 OA
ATOM     31  C   UNL     1      45.044   5.402  12.898  0.00  0.00    +0.000 A 
ATOM     32  H   UNL     1      42.069   4.343  11.976  0.00  0.00    +0.000 HD
ENDBRANCH  19  22
ENDBRANCH   1  20
TORSDOF 6
ENDMDL
MODEL 8
REMARK VINA RESULT:    -6.639      3.160      4.843
REMARK INTER + INTRA:          -9.998
REMARK INTER:                  -8.884
REMARK INTRA:                  -1.114
REMARK UNBOUND:                -1.030
REMARK  Name = 
REMARK  6 active torsions:
REMARK  status: ('A' for Active; 'I' for Inactive)
REMARK    1  A    between atoms: C_2  and  C_20
REMARK    2  A    between atoms: N_3  and  C_4
REMARK    3  A    between atoms: C_4  and  C_5
REMARK    4  A    between atoms: C_8  and  C_9
REMARK    5  A    between atoms: C_9  and  N_10
REMARK    6  A    between atoms: C_11  and  C_13
REMARK                            x       y       z     vdW  Elec       q    Type
REMARK                         _______ _______ _______ _____ _____    ______ ____
ROOT
ATOM      1  C   UNL     1      48.639   6.477  14.780  0.00  0.00    +0.000 C 
ENDROOT
BRANCH   1   2
ATOM      2  C   UNL     1      47.489   6.254  13.831  0.00  0.00    +0.000 A 
ATOM      3  C   UNL     1      46.668   5.124  13.954  0.00  0.00    +0.000 A 
ATOM      4  C   UNL     1      45.602   4.913  13.072  0.00  0.00    +0.000 A 
ATOM      5  C   UNL     1      45.344   5.816  12.032  0.00  0.00    +0.000 A 
ATOM      6  C   UNL     1      46.166   6.945  11.907  0.00  0.00    +0.000 A 
ATOM      7  C   UNL     1      47.233   7.155  12.789  0.00  0.00    +0.000 A 
BRANCH   5   8
ATOM      8  C   UNL     1      44.221   5.572  11.056  0.00  0.00    +0.000 C 
BRANCH   8   9
ATOM      9  N   UNL     1      44.651   4.886   9.865  0.00  0.00    +0.000 N 
ATOM     10  C   UNL     1      44.334   3.563   9.650  0.00  0.00    +0.000 C 
ATOM     11  O   UNL     1      43.717   2.877  10.462  0.00  0.00    +0.000 OA
ATOM     12  H   UNL     1      45.076   5.396   9.095  0.00  0.00    +0.000 HD
BRANCH  10  13
ATOM     13  C   UNL     1      44.827   3.007   8.303  0.00  0.00    +0.000 C 
ATOM     14  C   UNL     1      45.830   1.878   8.505  0.00  0.00    +0.000 C 
ATOM     15  C   UNL     1      46.784   2.060   7.352  0.00  0.00    +0.000 C 
ATOM     16  C   UNL     1      46.797   3.561   7.191  0.00  0.00    +0.000 C 
ATOM     17  O   UNL     1      45.470   4.008   7.493  0.00  0.00    +0.000 OA
ENDBRANCH  10  13
ENDBRANCH   8   9
ENDBRANCH   5   8
ENDBRANCH   1   2
BRANCH   1  20
ATOM     18  O   UNL     1      51.235   6.985  15.645  0.00  0.00    +0.000 OA
ATOM     19  C   UNL     1      50.745   7.739  14.809  0.00  0.00    +0.000 C 
ATOM     20  N   UNL     1      49.441   7.612  14.391  0.00  0.00    +0.000 N 
ATOM     21  H   UNL     1      49.136   8.119  13.566  0.00  0.00    +0.000 HD
BRANCH  19  22
ATOM     22  C   UNL     1      51.515   8.848  14.234  0.00  0.00    +0.000 A 
ATOM     23  C   UNL     1      52.187   9.733  15.064  0.00  0.00    +0.000 A 
ATOM     24  S   UNL     1      53.017  10.968  14.224  0.00  0.00    +0.000 S 
ATOM     25  C   UNL     1      52.547  10.332  12.716  0.00  0.00    +0.000 A 
ATOM     26  N   UNL     1      52.954  10.909  11.555  0.00  0.00    +0.000 NA
ATOM     27  C   UNL     1      52.556  10.300  10.488  0.00  0.00    +0.000 A 
ATOM     28  N   UNL     1      51.782   9.168  10.479  0.00  0.00    +0.000 N 
ATOM     29  C   UNL     1      51.315   8.575  11.624  0.00  0.00    +0.000 A 
ATOM     30  O   UNL     1      50.576   7.596  11.578  0.00  0.00    +0.000 OA
ATOM     31  C   UNL     1      51.750   9.209  12.855  0.00  0.00    +0.000 A 
ATOM     32  H   UNL     1      51.492   8.747   9.608  0.00  0.00    +0.000 HD
ENDBRANCH  19  22
ENDBRANCH   1  20
TORSDOF 6
ENDMDL
MODEL 9
REMARK VINA RESULT:    -6.511      4.783      7.784
REMARK INTER + INTRA:          -9.825
REMARK INTER:                  -8.893
REMARK INTRA:                  -0.932
REMARK UNBOUND:                -1.030
REMARK  Name = 
REMARK  6 active torsions:
REMARK  status: ('A' for Active; 'I' for Inactive)
REMARK    1  A    between atoms: C_2  and  C_20
REMARK    2  A    between atoms: N_3  and  C_4
REMARK    3  A    between atoms: C_4  and  C_5
REMARK    4  A    between atoms: C_8  and  C_9
REMARK    5  A    between atoms: C_9  and  N_10
REMARK    6  A    between atoms: C_11  and  C_13
REMARK                            x       y       z     vdW  Elec       q    Type
REMARK                         _______ _______ _______ _____ _____    ______ ____
ROOT
ATOM      1  C   UNL     1      46.345   8.115  12.941  0.00  0.00    +0.000 C 
ENDROOT
BRANCH   1   2
ATOM      2  C   UNL     1      47.741   8.306  12.404  0.00  0.00    +0.000 A 
ATOM      3  C   UNL     1      48.181   9.570  11.989  0.00  0.00    +0.000 A 
ATOM      4  C   UNL     1      49.475   9.750  11.487  0.00  0.00    +0.000 A 
ATOM      5  C   UNL     1      50.354   8.664  11.368  0.00  0.00    +0.000 A 
ATOM      6  C   UNL     1      49.913   7.399  11.781  0.00  0.00    +0.000 A 
ATOM      7  C   UNL     1      48.618   7.220  12.283  0.00  0.00    +0.000 A 
BRANCH   5   8
ATOM      8  C   UNL     1      51.735   8.847  10.791  0.00  0.00    +0.000 C 
BRANCH   8   9
ATOM      9  N   UNL     1      52.127   7.768   9.921  0.00  0.00    +0.000 N 
ATOM     10  C   UNL     1      53.249   7.013  10.182  0.00  0.00    +0.000 C 
ATOM     11  O   UNL     1      54.003   7.231  11.129  0.00  0.00    +0.000 OA
ATOM     12  H   UNL     1      51.513   7.450   9.175  0.00  0.00    +0.000 HD
BRANCH  10  13
ATOM     13  C   UNL     1      53.488   5.870   9.181  0.00  0.00    +0.000 C 
ATOM     14  C   UNL     1      54.971   5.708   8.872  0.00  0.00    +0.000 C 
ATOM     15  C   UNL     1      54.974   5.297   7.421  0.00  0.00    +0.000 C 
ATOM     16  C   UNL     1      53.789   6.059   6.879  0.00  0.00    +0.000 C 
ATOM     17  O   UNL     1      52.813   6.082   7.928  0.00  0.00    +0.000 OA
ENDBRANCH  10  13
ENDBRANCH   8   9
ENDBRANCH   5   8
ENDBRANCH   1   2
BRANCH   1  20
ATOM     18  O   UNL     1      44.193   7.504  11.285  0.00  0.00    +0.000 OA
ATOM     19  C   UNL     1      44.826   6.575  11.780  0.00  0.00    +0.000 C 
ATOM     20  N   UNL     1      45.847   6.787  12.676  0.00  0.00    +0.000 N 
ATOM     21  H   UNL     1      46.468   6.017  12.906  0.00  0.00    +0.000 HD
BRANCH  19  22
ATOM     22  C   UNL     1      44.500   5.177  11.471  0.00  0.00    +0.000 A 
ATOM     23  C   UNL     1      43.706   4.440  12.338  0.00  0.00    +0.000 A 
ATOM     24  S   UNL     1      43.444   2.831  11.828  0.00  0.00    +0.000 S 
ATOM     25  C   UNL     1      44.342   3.079  10.403  0.00  0.00    +0.000 A 
ATOM     26  N   UNL     1      44.489   2.087   9.485  0.00  0.00    +0.000 NA
ATOM     27  C   UNL     1      45.161   2.426   8.435  0.00  0.00    +0.000 A 
ATOM     28  N   UNL     1      45.705   3.667   8.225  0.00  0.00    +0.000 N 
ATOM     29  C   UNL     1      45.616   4.685   9.140  0.00  0.00    +0.000 A 
ATOM     30  O   UNL     1      46.165   5.765   8.944  0.00  0.00    +0.000 OA
ATOM     31  C   UNL     1      44.853   4.364  10.331  0.00  0.00    +0.000 A 
ATOM     32  H   UNL     1      46.232   3.864   7.387  0.00  0.00    +0.000 HD
ENDBRANCH  19  22
ENDBRANCH   1  20
TORSDOF 6
ENDMDL
