MODEL 1
REMARK VINA RESULT:    -8.426      0.000      0.000
REMARK INTER + INTRA:         -13.934
REMARK INTER:                 -12.367
REMARK INTRA:                  -1.567
REMARK UNBOUND:                -1.567
REMARK  Name = 
REMARK  9 active torsions:
REMARK  status: ('A' for Active; 'I' for Inactive)
REMARK    1  A    between atoms: C_1  and  O_2
REMARK    2  A    between atoms: O_2  and  C_3
REMARK    3  A    between atoms: C_10  and  C_11
REMARK    4  A    between atoms: N_13  and  C_14
REMARK    5  A    between atoms: C_14  and  C_15
REMARK    6  A    between atoms: C_18  and  C_19
REMARK    7  A    between atoms: C_19  and  O_20
REMARK    8  A    between atoms: O_20  and  C_21
REMARK    9  A    between atoms: C_21  and  C_22
REMARK                            x       y       z     vdW  Elec       q    Type
REMARK                         _______ _______ _______ _____ _____    ______ ____
ROOT
ATOM      1  C   UNL     1      47.092   8.124  13.351  0.00  0.00    +0.000 C 
ENDROOT
BRANCH   1   2
ATOM      2  C   UNL     1      46.239   7.226  12.488  0.00  0.00    +0.000 A 
ATOM      3  C   UNL     1      46.760   6.646  11.324  0.00  0.00    +0.000 A 
ATOM      4  C   UNL     1      46.000   5.742  10.573  0.00  0.00    +0.000 A 
ATOM      5  C   UNL     1      44.696   5.405  10.960  0.00  0.00    +0.000 A 
ATOM      6  C   UNL     1      44.150   6.035  12.087  0.00  0.00    +0.000 A 
ATOM      7  C   UNL     1      44.913   6.939  12.840  0.00  0.00    +0.000 A 
BRANCH   5   8
ATOM      8  C   UNL     1      43.906   4.382  10.178  0.00  0.00    +0.000 C 
BRANCH   8   9
ATOM      9  O   UNL     1      44.572   3.122  10.252  0.00  0.00    +0.000 OA
BRANCH   9  10
ATOM     10  C   UNL     1      44.361   2.330   9.083  0.00  0.00    +0.000 C 
BRANCH  10  11
ATOM     11  C   UNL     1      45.585   2.355   8.195  0.00  0.00    +0.000 A 
ATOM     12  C   UNL     1      46.378   1.212   8.019  0.00  0.00    +0.000 A 
ATOM     13  C   UNL     1      47.485   1.235   7.167  0.00  0.00    +0.000 A 
ATOM     14  C   UNL     1      47.806   2.397   6.469  0.00  0.00    +0.000 A 
ATOM     15  C   UNL     1      47.018   3.537   6.620  0.00  0.00    +0.000 A 
ATOM     16  C   UNL     1      45.910   3.515   7.472  0.00  0.00    +0.000 A 
ENDBRANCH  10  11
ENDBRANCH   9  10
ENDBRANCH   8   9
ENDBRANCH   5   8
ENDBRANCH   1   2
BRANCH   1  19
ATOM     17  C   UNL     1      48.767   6.917  14.690  0.00  0.00    +0.000 C 
ATOM     18  O   UNL     1      49.581   6.958  13.769  0.00  0.00    +0.000 OA
ATOM     19  N   UNL     1      47.520   7.471  14.561  0.00  0.00    +0.000 N 
ATOM     20  H   UNL     1      46.865   7.440  15.328  0.00  0.00    +0.000 HD
BRANCH  17  28
ATOM     21  C   UNL     1      47.432   4.219  16.353  0.00  0.00    +0.000 A 
ATOM     22  N   UNL     1      47.157   3.172  17.155  0.00  0.00    +0.000 NA
ATOM     23  C   UNL     1      47.916   3.003  18.243  0.00  0.00    +0.000 A 
ATOM     24  N   UNL     1      48.929   3.767  18.642  0.00  0.00    +0.000 NA
ATOM     25  C   UNL     1      49.176   4.789  17.804  0.00  0.00    +0.000 A 
ATOM     26  S   UNL     1      50.424   5.883  18.162  0.00  0.00    +0.000 S 
ATOM     27  C   UNL     1      50.125   6.765  16.740  0.00  0.00    +0.000 A 
ATOM     28  C   UNL     1      49.088   6.255  15.966  0.00  0.00    +0.000 A 
ATOM     29  C   UNL     1      48.503   5.089  16.625  0.00  0.00    +0.000 A 
BRANCH  21  31
ATOM     30  C   UNL     1      47.093   3.638  14.112  0.00  0.00    +0.000 C 
ATOM     31  O   UNL     1      46.653   4.401  15.231  0.00  0.00    +0.000 OA
ENDBRANCH  21  31
ENDBRANCH  17  28
ENDBRANCH   1  19
TORSDOF 8
ENDMDL
MODEL 2
REMARK VINA RESULT:    -8.156      1.481      1.808
REMARK INTER + INTRA:         -13.537
REMARK INTER:                 -12.203
REMARK INTRA:                  -1.334
REMARK UNBOUND:                -1.567
REMARK  Name = 
REMARK  9 active torsions:
REMARK  status: ('A' for Active; 'I' for Inactive)
REMARK    1  A    between atoms: C_1  and  O_2
REMARK    2  A    between atoms: O_2  and  C_3
REMARK    3  A    between atoms: C_10  and  C_11
REMARK    4  A    between atoms: N_13  and  C_14
REMARK    5  A    between atoms: C_14  and  C_15
REMARK    6  A    between atoms: C_18  and  C_19
REMARK    7  A    between atoms: C_19  and  O_20
REMARK    8  A    between atoms: O_20  and  C_21
REMARK    9  A    between atoms: C_21  and  C_22
REMARK                            x       y       z     vdW  Elec       q    Type
REMARK                         _______ _______ _______ _____ _____    ______ ____
ROOT
ATOM      1  C   UNL     1      47.948   7.106  13.251  0.00  0.00    +0.000 C 
ENDROOT
BRANCH   1   2
ATOM      2  C   UNL     1      46.921   6.164  12.670  0.00  0.00    +0.000 A 
ATOM      3  C   UNL     1      46.446   5.076  13.414  0.00  0.00    +0.000 A 
ATOM      4  C   UNL     1      45.428   4.256  12.913  0.00  0.00    +0.000 A 
ATOM      5  C   UNL     1      44.869   4.496  11.650  0.00  0.00    +0.000 A 
ATOM      6  C   UNL     1      45.390   5.543  10.878  0.00  0.00    +0.000 A 
ATOM      7  C   UNL     1      46.408   6.366  11.382  0.00  0.00    +0.000 A 
BRANCH   5   8
ATOM      8  C   UNL     1      43.731   3.643  11.142  0.00  0.00    +0.000 C 
BRANCH   8   9
ATOM      9  O   UNL     1      43.895   3.432   9.740  0.00  0.00    +0.000 OA
BRANCH   9  10
ATOM     10  C   UNL     1      44.460   2.153   9.449  0.00  0.00    +0.000 C 
BRANCH  10  11
ATOM     11  C   UNL     1      45.562   2.279   8.422  0.00  0.00    +0.000 A 
ATOM     12  C   UNL     1      46.361   1.181   8.075  0.00  0.00    +0.000 A 
ATOM     13  C   UNL     1      47.351   1.297   7.097  0.00  0.00    +0.000 A 
ATOM     14  C   UNL     1      47.548   2.511   6.442  0.00  0.00    +0.000 A 
ATOM     15  C   UNL     1      46.749   3.608   6.762  0.00  0.00    +0.000 A 
ATOM     16  C   UNL     1      45.758   3.492   7.741  0.00  0.00    +0.000 A 
ENDBRANCH  10  11
ENDBRANCH   9  10
ENDBRANCH   8   9
ENDBRANCH   5   8
ENDBRANCH   1   2
BRANCH   1  19
ATOM     17  C   UNL     1      48.997   7.001  15.475  0.00  0.00    +0.000 C 
ATOM     18  O   UNL     1      50.106   6.805  14.978  0.00  0.00    +0.000 OA
ATOM     19  N   UNL     1      47.886   7.160  14.689  0.00  0.00    +0.000 N 
ATOM     20  H   UNL     1      46.984   7.330  15.108  0.00  0.00    +0.000 HD
BRANCH  17  28
ATOM     21  C   UNL     1      48.854   4.592  17.925  0.00  0.00    +0.000 A 
ATOM     22  N   UNL     1      48.840   3.873  19.065  0.00  0.00    +0.000 NA
ATOM     23  C   UNL     1      48.721   4.535  20.219  0.00  0.00    +0.000 A 
ATOM     24  N   UNL     1      48.602   5.850  20.382  0.00  0.00    +0.000 NA
ATOM     25  C   UNL     1      48.636   6.527  19.221  0.00  0.00    +0.000 A 
ATOM     26  S   UNL     1      48.479   8.218  19.232  0.00  0.00    +0.000 S 
ATOM     27  C   UNL     1      48.635   8.292  17.541  0.00  0.00    +0.000 A 
ATOM     28  C   UNL     1      48.812   7.053  16.935  0.00  0.00    +0.000 A 
ATOM     29  C   UNL     1      48.780   5.996  17.944  0.00  0.00    +0.000 A 
BRANCH  21  31
ATOM     30  C   UNL     1      47.810   3.170  16.387  0.00  0.00    +0.000 C 
ATOM     31  O   UNL     1      48.974   3.916  16.730  0.00  0.00    +0.000 OA
ENDBRANCH  21  31
ENDBRANCH  17  28
ENDBRANCH   1  19
TORSDOF 8
ENDMDL
MODEL 3
REMARK VINA RESULT:    -7.463      2.508      3.500
REMARK INTER + INTRA:         -12.521
REMARK INTER:                 -11.228
REMARK INTRA:                  -1.293
REMARK UNBOUND:                -1.567
REMARK  Name = 
REMARK  9 active torsions:
REMARK  status: ('A' for Active; 'I' for Inactive)
REMARK    1  A    between atoms: C_1  and  O_2
REMARK    2  A    between atoms: O_2  and  C_3
REMARK    3  A    between atoms: C_10  and  C_11
REMARK    4  A    between atoms: N_13  and  C_14
REMARK    5  A    between atoms: C_14  and  C_15
REMARK    6  A    between atoms: C_18  and  C_19
REMARK    7  A    between atoms: C_19  and  O_20
REMARK    8  A    between atoms: O_20  and  C_21
REMARK    9  A    between atoms: C_21  and  C_22
REMARK                            x       y       z     vdW  Elec       q    Type
REMARK                         _______ _______ _______ _____ _____    ______ ____
ROOT
ATOM      1  C   UNL     1      48.247   6.582  13.528  0.00  0.00    +0.000 C 
ENDROOT
BRANCH   1   2
ATOM      2  C   UNL     1      46.990   6.050  12.882  0.00  0.00    +0.000 A 
ATOM      3  C   UNL     1      46.494   6.623  11.704  0.00  0.00    +0.000 A 
ATOM      4  C   UNL     1      45.382   6.073  11.055  0.00  0.00    +0.000 A 
ATOM      5  C   UNL     1      44.731   4.946  11.575  0.00  0.00    +0.000 A 
ATOM      6  C   UNL     1      45.186   4.413  12.789  0.00  0.00    +0.000 A 
ATOM      7  C   UNL     1      46.301   4.962  13.437  0.00  0.00    +0.000 A 
BRANCH   5   8
ATOM      8  C   UNL     1      43.569   4.324  10.836  0.00  0.00    +0.000 C 
BRANCH   8   9
ATOM      9  O   UNL     1      44.015   3.886   9.552  0.00  0.00    +0.000 OA
BRANCH   9  10
ATOM     10  C   UNL     1      44.674   2.620   9.614  0.00  0.00    +0.000 C 
BRANCH  10  11
ATOM     11  C   UNL     1      45.634   2.464   8.455  0.00  0.00    +0.000 A 
ATOM     12  C   UNL     1      46.249   1.234   8.183  0.00  0.00    +0.000 A 
ATOM     13  C   UNL     1      47.104   1.089   7.088  0.00  0.00    +0.000 A 
ATOM     14  C   UNL     1      47.345   2.169   6.242  0.00  0.00    +0.000 A 
ATOM     15  C   UNL     1      46.727   3.394   6.488  0.00  0.00    +0.000 A 
ATOM     16  C   UNL     1      45.871   3.539   7.584  0.00  0.00    +0.000 A 
ENDBRANCH  10  11
ENDBRANCH   9  10
ENDBRANCH   8   9
ENDBRANCH   5   8
ENDBRANCH   1   2
BRANCH   1  19
ATOM     17  C   UNL     1      48.716   6.588  15.944  0.00  0.00    +0.000 C 
ATOM     18  O   UNL     1      49.589   5.732  15.810  0.00  0.00    +0.000 OA
ATOM     19  N   UNL     1      48.011   7.058  14.866  0.00  0.00    +0.000 N 
ATOM     20  H   UNL     1      47.305   7.768  14.989  0.00  0.00    +0.000 HD
BRANCH  17  28
ATOM     21  C   UNL     1      48.190   9.773  17.128  0.00  0.00    +0.000 A 
ATOM     22  N   UNL     1      47.863  10.884  17.818  0.00  0.00    +0.000 NA
ATOM     23  C   UNL     1      47.517  10.742  19.101  0.00  0.00    +0.000 A 
ATOM     24  N   UNL     1      47.464   9.611  19.798  0.00  0.00    +0.000 NA
ATOM     25  C   UNL     1      47.783   8.528  19.067  0.00  0.00    +0.000 A 
ATOM     26  S   UNL     1      47.788   6.995  19.796  0.00  0.00    +0.000 S 
ATOM     27  C   UNL     1      48.227   6.248  18.335  0.00  0.00    +0.000 A 
ATOM     28  C   UNL     1      48.375   7.131  17.270  0.00  0.00    +0.000 A 
ATOM     29  C   UNL     1      48.137   8.500  17.723  0.00  0.00    +0.000 A 
BRANCH  21  31
ATOM     30  C   UNL     1      49.171  11.161  15.520  0.00  0.00    +0.000 C 
ATOM     31  O   UNL     1      48.549   9.911  15.805  0.00  0.00    +0.000 OA
ENDBRANCH  21  31
ENDBRANCH  17  28
ENDBRANCH   1  19
TORSDOF 8
ENDMDL
MODEL 4
REMARK VINA RESULT:    -7.448      1.984      3.673
REMARK INTER + INTRA:         -12.499
REMARK INTER:                 -11.060
REMARK INTRA:                  -1.439
REMARK UNBOUND:                -1.567
REMARK  Name = 
REMARK  9 active torsions:
REMARK  status: ('A' for Active; 'I' for Inactive)
REMARK    1  A    between atoms: C_1  and  O_2
REMARK    2  A    between atoms: O_2  and  C_3
REMARK    3  A    between atoms: C_10  and  C_11
REMARK    4  A    between atoms: N_13  and  C_14
REMARK    5  A    between atoms: C_14  and  C_15
REMARK    6  A    between atoms: C_18  and  C_19
REMARK    7  A    between atoms: C_19  and  O_20
REMARK    8  A    between atoms: O_20  and  C_21
REMARK    9  A    between atoms: C_21  and  C_22
REMARK                            x       y       z     vdW  Elec       q    Type
REMARK                         _______ _______ _______ _____ _____    ______ ____
ROOT
ATOM      1  C   UNL     1      47.219   4.437  15.025  0.00  0.00    +0.000 C 
ENDROOT
BRANCH   1   2
ATOM      2  C   UNL     1      46.362   4.482  13.783  0.00  0.00    +0.000 A 
ATOM      3  C   UNL     1      46.037   3.305  13.095  0.00  0.00    +0.000 A 
ATOM      4  C   UNL     1      45.169   3.335  11.997  0.00  0.00    +0.000 A 
ATOM      5  C   UNL     1      44.616   4.544  11.552  0.00  0.00    +0.000 A 
ATOM      6  C   UNL     1      44.993   5.729  12.198  0.00  0.00    +0.000 A 
ATOM      7  C   UNL     1      45.860   5.698  13.299  0.00  0.00    +0.000 A 
BRANCH   5   8
ATOM      8  C   UNL     1      43.633   4.558  10.404  0.00  0.00    +0.000 C 
BRANCH   8   9
ATOM      9  O   UNL     1      44.068   3.633   9.407  0.00  0.00    +0.000 OA
BRANCH   9  10
ATOM     10  C   UNL     1      44.949   4.237   8.459  0.00  0.00    +0.000 C 
BRANCH  10  11
ATOM     11  C   UNL     1      45.854   3.197   7.837  0.00  0.00    +0.000 A 
ATOM     12  C   UNL     1      45.955   1.907   8.375  0.00  0.00    +0.000 A 
ATOM     13  C   UNL     1      46.764   0.941   7.771  0.00  0.00    +0.000 A 
ATOM     14  C   UNL     1      47.474   1.249   6.613  0.00  0.00    +0.000 A 
ATOM     15  C   UNL     1      47.371   2.523   6.055  0.00  0.00    +0.000 A 
ATOM     16  C   UNL     1      46.561   3.489   6.659  0.00  0.00    +0.000 A 
ENDBRANCH  10  11
ENDBRANCH   9  10
ENDBRANCH   8   9
ENDBRANCH   5   8
ENDBRANCH   1   2
BRANCH   1  19
ATOM     17  C   UNL     1      48.752   5.938  16.231  0.00  0.00    +0.000 C 
ATOM     18  O   UNL     1      49.421   4.986  16.631  0.00  0.00    +0.000 OA
ATOM     19  N   UNL     1      47.653   5.748  15.435  0.00  0.00    +0.000 N 
ATOM     20  H   UNL     1      47.119   6.538  15.104  0.00  0.00    +0.000 HD
BRANCH  17  28
ATOM     21  C   UNL     1      48.799   8.909  14.502  0.00  0.00    +0.000 A 
ATOM     22  N   UNL     1      48.825  10.192  14.089  0.00  0.00    +0.000 NA
ATOM     23  C   UNL     1      49.154  11.128  14.984  0.00  0.00    +0.000 A 
ATOM     24  N   UNL     1      49.475  10.941  16.261  0.00  0.00    +0.000 NA
ATOM     25  C   UNL     1      49.420   9.650  16.632  0.00  0.00    +0.000 A 
ATOM     26  S   UNL     1      49.817   9.217  18.225  0.00  0.00    +0.000 S 
ATOM     27  C   UNL     1      49.503   7.577  17.910  0.00  0.00    +0.000 A 
ATOM     28  C   UNL     1      49.090   7.321  16.606  0.00  0.00    +0.000 A 
ATOM     29  C   UNL     1      49.073   8.564  15.837  0.00  0.00    +0.000 A 
BRANCH  21  31
ATOM     30  C   UNL     1      49.555   7.541  12.761  0.00  0.00    +0.000 C 
ATOM     31  O   UNL     1      48.463   7.938  13.584  0.00  0.00    +0.000 OA
ENDBRANCH  21  31
ENDBRANCH  17  28
ENDBRANCH   1  19
TORSDOF 8
ENDMDL
MODEL 5
REMARK VINA RESULT:    -7.184      2.120      3.578
REMARK INTER + INTRA:         -12.110
REMARK INTER:                 -10.727
REMARK INTRA:                  -1.383
REMARK UNBOUND:                -1.567
REMARK  Name = 
REMARK  9 active torsions:
REMARK  status: ('A' for Active; 'I' for Inactive)
REMARK    1  A    between atoms: C_1  and  O_2
REMARK    2  A    between atoms: O_2  and  C_3
REMARK    3  A    between atoms: C_10  and  C_11
REMARK    4  A    between atoms: N_13  and  C_14
REMARK    5  A    between atoms: C_14  and  C_15
REMARK    6  A    between atoms: C_18  and  C_19
REMARK    7  A    between atoms: C_19  and  O_20
REMARK    8  A    between atoms: O_20  and  C_21
REMARK    9  A    between atoms: C_21  and  C_22
REMARK                            x       y       z     vdW  Elec       q    Type
REMARK                         _______ _______ _______ _____ _____    ______ ____
ROOT
ATOM      1  C   UNL     1      47.483   4.064  14.800  0.00  0.00    +0.000 C 
ENDROOT
BRANCH   1   2
ATOM      2  C   UNL     1      46.438   4.256  13.728  0.00  0.00    +0.000 A 
ATOM      3  C   UNL     1      45.961   5.535  13.414  0.00  0.00    +0.000 A 
ATOM      4  C   UNL     1      45.060   5.724  12.360  0.00  0.00    +0.000 A 
ATOM      5  C   UNL     1      44.605   4.637  11.601  0.00  0.00    +0.000 A 
ATOM      6  C   UNL     1      45.030   3.350  11.957  0.00  0.00    +0.000 A 
ATOM      7  C   UNL     1      45.934   3.161  13.012  0.00  0.00    +0.000 A 
BRANCH   5   8
ATOM      8  C   UNL     1      43.680   4.857  10.427  0.00  0.00    +0.000 C 
BRANCH   8   9
ATOM      9  O   UNL     1      44.000   3.918   9.399  0.00  0.00    +0.000 OA
BRANCH   9  10
ATOM     10  C   UNL     1      44.985   4.422   8.497  0.00  0.00    +0.000 C 
BRANCH  10  11
ATOM     11  C   UNL     1      45.757   3.285   7.865  0.00  0.00    +0.000 A 
ATOM     12  C   UNL     1      46.513   3.480   6.700  0.00  0.00    +0.000 A 
ATOM     13  C   UNL     1      47.254   2.433   6.146  0.00  0.00    +0.000 A 
ATOM     14  C   UNL     1      47.259   1.181   6.755  0.00  0.00    +0.000 A 
ATOM     15  C   UNL     1      46.527   0.976   7.924  0.00  0.00    +0.000 A 
ATOM     16  C   UNL     1      45.786   2.023   8.480  0.00  0.00    +0.000 A 
ENDBRANCH  10  11
ENDBRANCH   9  10
ENDBRANCH   8   9
ENDBRANCH   5   8
ENDBRANCH   1   2
BRANCH   1  19
ATOM     17  C   UNL     1      48.265   5.125  16.878  0.00  0.00    +0.000 C 
ATOM     18  O   UNL     1      48.950   4.142  17.161  0.00  0.00    +0.000 OA
ATOM     19  N   UNL     1      47.516   5.162  15.731  0.00  0.00    +0.000 N 
ATOM     20  H   UNL     1      46.967   5.978  15.506  0.00  0.00    +0.000 HD
BRANCH  17  28
ATOM     21  C   UNL     1      48.630   8.505  16.363  0.00  0.00    +0.000 A 
ATOM     22  N   UNL     1      48.648   9.851  16.423  0.00  0.00    +0.000 NA
ATOM     23  C   UNL     1      48.418  10.426  17.607  0.00  0.00    +0.000 A 
ATOM     24  N   UNL     1      48.176   9.815  18.763  0.00  0.00    +0.000 NA
ATOM     25  C   UNL     1      48.153   8.475  18.653  0.00  0.00    +0.000 A 
ATOM     26  S   UNL     1      47.877   7.525  20.033  0.00  0.00    +0.000 S 
ATOM     27  C   UNL     1      47.970   6.092  19.125  0.00  0.00    +0.000 A 
ATOM     28  C   UNL     1      48.205   6.297  17.769  0.00  0.00    +0.000 A 
ATOM     29  C   UNL     1      48.345   7.726  17.499  0.00  0.00    +0.000 A 
BRANCH  21  31
ATOM     30  C   UNL     1      50.245   7.614  14.923  0.00  0.00    +0.000 C 
ATOM     31  O   UNL     1      48.868   7.905  15.146  0.00  0.00    +0.000 OA
ENDBRANCH  21  31
ENDBRANCH  17  28
ENDBRANCH   1  19
TORSDOF 8
ENDMDL
MODEL 6
REMARK VINA RESULT:    -6.961      2.474      4.077
REMARK INTER + INTRA:         -11.784
REMARK INTER:                 -10.548
REMARK INTRA:                  -1.236
REMARK UNBOUND:                -1.567
REMARK  Name = 
REMARK  9 active torsions:
REMARK  status: ('A' for Active; 'I' for Inactive)
REMARK    1  A    between atoms: C_1  and  O_2
REMARK    2  A    between atoms: O_2  and  C_3
REMARK    3  A    between atoms: C_10  and  C_11
REMARK    4  A    between atoms: N_13  and  C_14
REMARK    5  A    between atoms: C_14  and  C_15
REMARK    6  A    between atoms: C_18  and  C_19
REMARK    7  A    between atoms: C_19  and  O_20
REMARK    8  A    between atoms: O_20  and  C_21
REMARK    9  A    between atoms: C_21  and  C_22
REMARK                            x       y       z     vdW  Elec       q    Type
REMARK                         _______ _______ _______ _____ _____    ______ ____
ROOT
ATOM      1  C   UNL     1      47.411   5.029  14.753  0.00  0.00    +0.000 C 
ENDROOT
BRANCH   1   2
ATOM      2  C   UNL     1      46.317   4.759  13.749  0.00  0.00    +0.000 A 
ATOM      3  C   UNL     1      45.429   5.773  13.368  0.00  0.00    +0.000 A 
ATOM      4  C   UNL     1      44.472   5.549  12.370  0.00  0.00    +0.000 A 
ATOM      5  C   UNL     1      44.372   4.301  11.739  0.00  0.00    +0.000 A 
ATOM      6  C   UNL     1      45.215   3.267  12.167  0.00  0.00    +0.000 A 
ATOM      7  C   UNL     1      46.175   3.493  13.164  0.00  0.00    +0.000 A 
BRANCH   5   8
ATOM      8  C   UNL     1      43.377   4.087  10.622  0.00  0.00    +0.000 C 
BRANCH   8   9
ATOM      9  O   UNL     1      43.952   3.216   9.648  0.00  0.00    +0.000 OA
BRANCH   9  10
ATOM     10  C   UNL     1      44.640   3.932   8.623  0.00  0.00    +0.000 C 
BRANCH  10  11
ATOM     11  C   UNL     1      45.680   3.052   7.965  0.00  0.00    +0.000 A 
ATOM     12  C   UNL     1      45.876   1.727   8.379  0.00  0.00    +0.000 A 
ATOM     13  C   UNL     1      46.812   0.910   7.740  0.00  0.00    +0.000 A 
ATOM     14  C   UNL     1      47.556   1.403   6.671  0.00  0.00    +0.000 A 
ATOM     15  C   UNL     1      47.360   2.713   6.236  0.00  0.00    +0.000 A 
ATOM     16  C   UNL     1      46.423   3.532   6.874  0.00  0.00    +0.000 A 
ENDBRANCH  10  11
ENDBRANCH   9  10
ENDBRANCH   8   9
ENDBRANCH   5   8
ENDBRANCH   1   2
BRANCH   1  19
ATOM     17  C   UNL     1      48.608   6.964  13.814  0.00  0.00    +0.000 C 
ATOM     18  O   UNL     1      49.039   6.287  12.881  0.00  0.00    +0.000 OA
ATOM     19  N   UNL     1      47.799   6.416  14.775  0.00  0.00    +0.000 N 
ATOM     20  H   UNL     1      47.444   6.985  15.529  0.00  0.00    +0.000 HD
BRANCH  17  28
ATOM     21  C   UNL     1      50.123   8.797  16.298  0.00  0.00    +0.000 A 
ATOM     22  N   UNL     1      50.750   9.713  17.062  0.00  0.00    +0.000 NA
ATOM     23  C   UNL     1      50.857  10.956  16.583  0.00  0.00    +0.000 A 
ATOM     24  N   UNL     1      50.401  11.410  15.419  0.00  0.00    +0.000 NA
ATOM     25  C   UNL     1      49.798  10.459  14.685  0.00  0.00    +0.000 A 
ATOM     26  S   UNL     1      49.136  10.860  13.174  0.00  0.00    +0.000 S 
ATOM     27  C   UNL     1      48.636   9.256  12.913  0.00  0.00    +0.000 A 
ATOM     28  C   UNL     1      48.959   8.388  13.950  0.00  0.00    +0.000 A 
ATOM     29  C   UNL     1      49.627   9.122  15.023  0.00  0.00    +0.000 A 
BRANCH  21  31
ATOM     30  C   UNL     1      51.163   6.716  16.549  0.00  0.00    +0.000 C 
ATOM     31  O   UNL     1      50.007   7.513  16.786  0.00  0.00    +0.000 OA
ENDBRANCH  21  31
ENDBRANCH  17  28
ENDBRANCH   1  19
TORSDOF 8
ENDMDL
MODEL 7
REMARK VINA RESULT:    -6.709      4.493      6.138
REMARK INTER + INTRA:         -11.414
REMARK INTER:                 -10.209
REMARK INTRA:                  -1.205
REMARK UNBOUND:                -1.567
REMARK  Name = 
REMARK  9 active torsions:
REMARK  status: ('A' for Active; 'I' for Inactive)
REMARK    1  A    between atoms: C_1  and  O_2
REMARK    2  A    between atoms: O_2  and  C_3
REMARK    3  A    between atoms: C_10  and  C_11
REMARK    4  A    between atoms: N_13  and  C_14
REMARK    5  A    between atoms: C_14  and  C_15
REMARK    6  A    between atoms: C_18  and  C_19
REMARK    7  A    between atoms: C_19  and  O_20
REMARK    8  A    between atoms: O_20  and  C_21
REMARK    9  A    between atoms: C_21  and  C_22
REMARK                            x       y       z     vdW  Elec       q    Type
REMARK                         _______ _______ _______ _____ _____    ______ ____
ROOT
ATOM      1  C   UNL     1      48.763   6.884  12.963  0.00  0.00    +0.000 C 
ENDROOT
BRANCH   1   2
ATOM      2  C   UNL     1      47.421   6.351  12.522  0.00  0.00    +0.000 A 
ATOM      3  C   UNL     1      46.923   6.637  11.244  0.00  0.00    +0.000 A 
ATOM      4  C   UNL     1      45.722   6.070  10.801  0.00  0.00    +0.000 A 
ATOM      5  C   UNL     1      44.984   5.213  11.630  0.00  0.00    +0.000 A 
ATOM      6  C   UNL     1      45.448   4.979  12.931  0.00  0.00    +0.000 A 
ATOM      7  C   UNL     1      46.652   5.546  13.373  0.00  0.00    +0.000 A 
BRANCH   5   8
ATOM      8  C   UNL     1      43.721   4.557  11.121  0.00  0.00    +0.000 C 
BRANCH   8   9
ATOM      9  O   UNL     1      43.932   4.118   9.779  0.00  0.00    +0.000 OA
BRANCH   9  10
ATOM     10  C   UNL     1      44.443   2.786   9.722  0.00  0.00    +0.000 C 
BRANCH  10  11
ATOM     11  C   UNL     1      45.491   2.664   8.638  0.00  0.00    +0.000 A 
ATOM     12  C   UNL     1      46.082   1.429   8.335  0.00  0.00    +0.000 A 
ATOM     13  C   UNL     1      47.021   1.320   7.306  0.00  0.00    +0.000 A 
ATOM     14  C   UNL     1      47.373   2.441   6.559  0.00  0.00    +0.000 A 
ATOM     15  C   UNL     1      46.781   3.673   6.836  0.00  0.00    +0.000 A 
ATOM     16  C   UNL     1      45.841   3.783   7.866  0.00  0.00    +0.000 A 
ENDBRANCH  10  11
ENDBRANCH   9  10
ENDBRANCH   8   9
ENDBRANCH   5   8
ENDBRANCH   1   2
BRANCH   1  19
ATOM     17  C   UNL     1      50.526   8.428  12.212  0.00  0.00    +0.000 C 
ATOM     18  O   UNL     1      51.159   8.264  13.254  0.00  0.00    +0.000 OA
ATOM     19  N   UNL     1      49.337   7.782  11.994  0.00  0.00    +0.000 N 
ATOM     20  H   UNL     1      48.833   7.917  11.130  0.00  0.00    +0.000 HD
BRANCH  17  28
ATOM     21  C   UNL     1      53.031   8.217   9.866  0.00  0.00    +0.000 A 
ATOM     22  N   UNL     1      53.872   8.357   8.822  0.00  0.00    +0.000 NA
ATOM     23  C   UNL     1      53.787   9.476   8.097  0.00  0.00    +0.000 A 
ATOM     24  N   UNL     1      52.957  10.497   8.291  0.00  0.00    +0.000 NA
ATOM     25  C   UNL     1      52.127  10.307   9.332  0.00  0.00    +0.000 A 
ATOM     26  S   UNL     1      51.008  11.516   9.743  0.00  0.00    +0.000 S 
ATOM     27  C   UNL     1      50.391  10.579  11.020  0.00  0.00    +0.000 A 
ATOM     28  C   UNL     1      51.008   9.341  11.161  0.00  0.00    +0.000 A 
ATOM     29  C   UNL     1      52.068   9.197  10.166  0.00  0.00    +0.000 A 
BRANCH  21  31
ATOM     30  C   UNL     1      53.622   5.953   9.889  0.00  0.00    +0.000 C 
ATOM     31  O   UNL     1      53.115   7.066  10.619  0.00  0.00    +0.000 OA
ENDBRANCH  21  31
ENDBRANCH  17  28
ENDBRANCH   1  19
TORSDOF 8
ENDMDL
MODEL 8
REMARK VINA RESULT:    -6.672      3.560      7.762
REMARK INTER + INTRA:         -11.359
REMARK INTER:                  -9.578
REMARK INTRA:                  -1.781
REMARK UNBOUND:                -1.567
REMARK  Name = 
REMARK  9 active torsions:
REMARK  status: ('A' for Active; 'I' for Inactive)
REMARK    1  A    between atoms: C_1  and  O_2
REMARK    2  A    between atoms: O_2  and  C_3
REMARK    3  A    between atoms: C_10  and  C_11
REMARK    4  A    between atoms: N_13  and  C_14
REMARK    5  A    between atoms: C_14  and  C_15
REMARK    6  A    between atoms: C_18  and  C_19
REMARK    7  A    between atoms: C_19  and  O_20
REMARK    8  A    between atoms: O_20  and  C_21
REMARK    9  A    between atoms: C_21  and  C_22
REMARK                            x       y       z     vdW  Elec       q    Type
REMARK                         _______ _______ _______ _____ _____    ______ ____
ROOT
ATOM      1  C   UNL     1      48.302   8.114  11.979  0.00  0.00    +0.000 C 
ENDROOT
BRANCH   1   2
ATOM      2  C   UNL     1      48.478   7.989  13.473  0.00  0.00    +0.000 A 
ATOM      3  C   UNL     1      49.219   6.934  14.021  0.00  0.00    +0.000 A 
ATOM      4  C   UNL     1      49.459   6.868  15.398  0.00  0.00    +0.000 A 
ATOM      5  C   UNL     1      48.953   7.849  16.263  0.00  0.00    +0.000 A 
ATOM      6  C   UNL     1      48.157   8.868  15.724  0.00  0.00    +0.000 A 
ATOM      7  C   UNL     1      47.919   8.935  14.344  0.00  0.00    +0.000 A 
BRANCH   5   8
ATOM      8  C   UNL     1      49.268   7.803  17.740  0.00  0.00    +0.000 C 
BRANCH   8   9
ATOM      9  O   UNL     1      50.260   6.802  17.973  0.00  0.00    +0.000 OA
BRANCH   9  10
ATOM     10  C   UNL     1      49.814   5.806  18.895  0.00  0.00    +0.000 C 
BRANCH  10  11
ATOM     11  C   UNL     1      49.499   4.516  18.172  0.00  0.00    +0.000 A 
ATOM     12  C   UNL     1      48.199   4.227  17.735  0.00  0.00    +0.000 A 
ATOM     13  C   UNL     1      47.925   3.050  17.034  0.00  0.00    +0.000 A 
ATOM     14  C   UNL     1      48.950   2.151  16.750  0.00  0.00    +0.000 A 
ATOM     15  C   UNL     1      50.252   2.432  17.162  0.00  0.00    +0.000 A 
ATOM     16  C   UNL     1      50.527   3.610  17.863  0.00  0.00    +0.000 A 
ENDBRANCH  10  11
ENDBRANCH   9  10
ENDBRANCH   8   9
ENDBRANCH   5   8
ENDBRANCH   1   2
BRANCH   1  19
ATOM     17  C   UNL     1      46.239   6.944  11.321  0.00  0.00    +0.000 C 
ATOM     18  O   UNL     1      45.544   7.880  11.714  0.00  0.00    +0.000 OA
ATOM     19  N   UNL     1      47.606   6.985  11.416  0.00  0.00    +0.000 N 
ATOM     20  H   UNL     1      48.165   6.215  11.080  0.00  0.00    +0.000 HD
BRANCH  17  28
ATOM     21  C   UNL     1      44.514   4.299  12.682  0.00  0.00    +0.000 A 
ATOM     22  N   UNL     1      43.760   3.212  12.940  0.00  0.00    +0.000 NA
ATOM     23  C   UNL     1      43.401   2.443  11.908  0.00  0.00    +0.000 A 
ATOM     24  N   UNL     1      43.713   2.620  10.628  0.00  0.00    +0.000 NA
ATOM     25  C   UNL     1      44.452   3.723  10.416  0.00  0.00    +0.000 A 
ATOM     26  S   UNL     1      44.962   4.101   8.841  0.00  0.00    +0.000 S 
ATOM     27  C   UNL     1      45.743   5.511   9.380  0.00  0.00    +0.000 A 
ATOM     28  C   UNL     1      45.633   5.729  10.749  0.00  0.00    +0.000 A 
ATOM     29  C   UNL     1      44.885   4.637  11.369  0.00  0.00    +0.000 A 
BRANCH  21  31
ATOM     30  C   UNL     1      46.199   4.808  14.224  0.00  0.00    +0.000 C 
ATOM     31  O   UNL     1      44.890   5.096  13.741  0.00  0.00    +0.000 OA
ENDBRANCH  21  31
ENDBRANCH  17  28
ENDBRANCH   1  19
TORSDOF 8
ENDMDL
MODEL 9
REMARK VINA RESULT:    -6.605      4.903      9.176
REMARK INTER + INTRA:         -11.261
REMARK INTER:                 -10.331
REMARK INTRA:                  -0.930
REMARK UNBOUND:                -1.567
REMARK  Name = 
REMARK  9 active torsions:
REMARK  status: ('A' for Active; 'I' for Inactive)
REMARK    1  A    between atoms: C_1  and  O_2
REMARK    2  A    between atoms: O_2  and  C_3
REMARK    3  A    between atoms: C_10  and  C_11
REMARK    4  A    between atoms: N_13  and  C_14
REMARK    5  A    between atoms: C_14  and  C_15
REMARK    6  A    between atoms: C_18  and  C_19
REMARK    7  A    between atoms: C_19  and  O_20
REMARK    8  A    between atoms: O_20  and  C_21
REMARK    9  A    between atoms: C_21  and  C_22
REMARK                            x       y       z     vdW  Elec       q    Type
REMARK                         _______ _______ _______ _____ _____    ______ ____
ROOT
ATOM      1  C   UNL     1      47.382   3.576  16.944  0.00  0.00    +0.000 C 
ENDROOT
BRANCH   1   2
ATOM      2  C   UNL     1      48.860   3.370  17.176  0.00  0.00    +0.000 A 
ATOM      3  C   UNL     1      49.652   4.401  17.696  0.00  0.00    +0.000 A 
ATOM      4  C   UNL     1      51.002   4.183  17.997  0.00  0.00    +0.000 A 
ATOM      5  C   UNL     1      51.596   2.933  17.771  0.00  0.00    +0.000 A 
ATOM      6  C   UNL     1      50.820   1.922  17.188  0.00  0.00    +0.000 A 
ATOM      7  C   UNL     1      49.468   2.140  16.890  0.00  0.00    +0.000 A 
BRANCH   5   8
ATOM      8  C   UNL     1      53.036   2.690  18.154  0.00  0.00    +0.000 C 
BRANCH   8   9
ATOM      9  O   UNL     1      53.187   1.330  18.563  0.00  0.00    +0.000 OA
BRANCH   9  10
ATOM     10  C   UNL     1      54.550   0.908  18.538  0.00  0.00    +0.000 C 
BRANCH  10  11
ATOM     11  C   UNL     1      54.670  -0.466  17.918  0.00  0.00    +0.000 A 
ATOM     12  C   UNL     1      54.928  -0.626  16.550  0.00  0.00    +0.000 A 
ATOM     13  C   UNL     1      55.075  -1.898  15.993  0.00  0.00    +0.000 A 
ATOM     14  C   UNL     1      54.979  -3.029  16.800  0.00  0.00    +0.000 A 
ATOM     15  C   UNL     1      54.741  -2.888  18.167  0.00  0.00    +0.000 A 
ATOM     16  C   UNL     1      54.594  -1.614  18.724  0.00  0.00    +0.000 A 
ENDBRANCH  10  11
ENDBRANCH   9  10
ENDBRANCH   8   9
ENDBRANCH   5   8
ENDBRANCH   1   2
BRANCH   1  19
ATOM     17  C   UNL     1      47.075   4.280  14.606  0.00  0.00    +0.000 C 
ATOM     18  O   UNL     1      47.253   3.132  14.202  0.00  0.00    +0.000 OA
ATOM     19  N   UNL     1      47.122   4.578  15.943  0.00  0.00    +0.000 N 
ATOM     20  H   UNL     1      46.963   5.522  16.262  0.00  0.00    +0.000 HD
BRANCH  17  28
ATOM     21  C   UNL     1      44.357   5.202  12.712  0.00  0.00    +0.000 A 
ATOM     22  N   UNL     1      43.432   5.818  11.949  0.00  0.00    +0.000 NA
ATOM     23  C   UNL     1      43.779   6.959  11.346  0.00  0.00    +0.000 A 
ATOM     24  N   UNL     1      44.959   7.570  11.403  0.00  0.00    +0.000 NA
ATOM     25  C   UNL     1      45.844   6.930  12.187  0.00  0.00    +0.000 A 
ATOM     26  S   UNL     1      47.413   7.555  12.365  0.00  0.00    +0.000 S 
ATOM     27  C   UNL     1      47.846   6.299  13.425  0.00  0.00    +0.000 A 
ATOM     28  C   UNL     1      46.823   5.389  13.670  0.00  0.00    +0.000 A 
ATOM     29  C   UNL     1      45.636   5.755  12.901  0.00  0.00    +0.000 A 
BRANCH  21  31
ATOM     30  C   UNL     1      43.750   2.961  12.422  0.00  0.00    +0.000 C 
ATOM     31  O   UNL     1      44.007   4.024  13.335  0.00  0.00    +0.000 OA
ENDBRANCH  21  31
ENDBRANCH  17  28
ENDBRANCH   1  19
TORSDOF 8
ENDMDL
