MODEL 1
REMARK VINA RESULT:    -5.894      0.000      0.000
REMARK INTER + INTRA:          -8.297
REMARK INTER:                  -7.617
REMARK INTRA:                  -0.680
REMARK UNBOUND:                -0.680
REMARK  Name = 
REMARK  6 active torsions:
REMARK  status: ('A' for Active; 'I' for Inactive)
REMARK    1  A    between atoms: C_1  and  C_2
REMARK    2  A    between atoms: C_2  and  O_3
REMARK    3  A    between atoms: O_3  and  C_4
REMARK    4  A    between atoms: C_8  and  C_9
REMARK    5  A    between atoms: C_10  and  C_11
REMARK    6  A    between atoms: C_14  and  C_15
REMARK                            x       y       z     vdW  Elec       q    Type
REMARK                         _______ _______ _______ _____ _____    ______ ____
ROOT
ATOM      1  C   UNL     1      47.413   3.798  15.187  0.00  0.00    +0.000 C 
ATOM      2  C   UNL     1      46.627   4.712  14.596  0.00  0.00    +0.000 C 
ENDROOT
BRANCH   1   7
ATOM      3  C   UNL     1      47.792   5.083  18.716  0.00  0.00    +0.000 A 
ATOM      4  C   UNL     1      48.646   4.130  19.267  0.00  0.00    +0.000 A 
ATOM      5  C   UNL     1      49.152   3.099  18.475  0.00  0.00    +0.000 A 
ATOM      6  C   UNL     1      48.782   2.998  17.136  0.00  0.00    +0.000 A 
ATOM      7  C   UNL     1      47.877   3.910  16.580  0.00  0.00    +0.000 A 
ATOM      8  C   UNL     1      47.414   4.968  17.372  0.00  0.00    +0.000 A 
BRANCH   3   9
ATOM      9  O   UNL     1      47.256   6.152  19.388  0.00  0.00    +0.000 OA
BRANCH   9  11
ATOM     10  C   UNL     1      48.195   7.588  21.139  0.00  0.00    +0.000 C 
ATOM     11  C   UNL     1      48.044   7.348  19.639  0.00  0.00    +0.000 C 
ATOM     12  C   UNL     1      49.278   7.625  18.746  0.00  0.00    +0.000 C 
ATOM     13  O   UNL     1      48.558   8.605  17.962  0.00  0.00    +0.000 OA
ATOM     14  C   UNL     1      47.486   8.610  18.932  0.00  0.00    +0.000 C 
ENDBRANCH   9  11
ENDBRANCH   3   9
ENDBRANCH   1   7
BRANCH   2  15
ATOM     15  C   UNL     1      46.209   4.679  13.188  0.00  0.00    +0.000 A 
ATOM     16  C   UNL     1      45.638   3.545  12.599  0.00  0.00    +0.000 A 
ATOM     17  C   UNL     1      45.283   3.548  11.248  0.00  0.00    +0.000 A 
ATOM     18  C   UNL     1      45.466   4.695  10.469  0.00  0.00    +0.000 A 
ATOM     19  C   UNL     1      46.007   5.844  11.054  0.00  0.00    +0.000 A 
ATOM     20  C   UNL     1      46.370   5.834  12.407  0.00  0.00    +0.000 A 
BRANCH  18  21
ATOM     21  C   UNL     1      45.106   4.628   9.029  0.00  0.00    +0.000 C 
ATOM     22  N   UNL     1      43.801   4.379   8.713  0.00  0.00    +0.000 N 
ATOM     23  O   UNL     1      45.949   4.761   8.150  0.00  0.00    +0.000 OA
ATOM     24  H   UNL     1      43.130   4.034   9.383  0.00  0.00    +0.000 HD
ATOM     25  H   UNL     1      43.602   4.235   7.730  0.00  0.00    +0.000 HD
ENDBRANCH  18  21
ENDBRANCH   2  15
TORSDOF 5
ENDMDL
MODEL 2
REMARK VINA RESULT:    -5.530      1.861      2.226
REMARK INTER + INTRA:          -7.827
REMARK INTER:                  -7.142
REMARK INTRA:                  -0.684
REMARK UNBOUND:                -0.680
REMARK  Name = 
REMARK  6 active torsions:
REMARK  status: ('A' for Active; 'I' for Inactive)
REMARK    1  A    between atoms: C_1  and  C_2
REMARK    2  A    between atoms: C_2  and  O_3
REMARK    3  A    between atoms: O_3  and  C_4
REMARK    4  A    between atoms: C_8  and  C_9
REMARK    5  A    between atoms: C_10  and  C_11
REMARK    6  A    between atoms: C_14  and  C_15
REMARK                            x       y       z     vdW  Elec       q    Type
REMARK                         _______ _______ _______ _____ _____    ______ ____
ROOT
ATOM      1  C   UNL     1      47.366   3.873  15.263  0.00  0.00    +0.000 C 
ATOM      2  C   UNL     1      46.915   4.925  14.561  0.00  0.00    +0.000 C 
ENDROOT
BRANCH   1   7
ATOM      3  C   UNL     1      49.274   5.271  18.205  0.00  0.00    +0.000 A 
ATOM      4  C   UNL     1      48.999   4.322  19.188  0.00  0.00    +0.000 A 
ATOM      5  C   UNL     1      48.243   3.191  18.881  0.00  0.00    +0.000 A 
ATOM      6  C   UNL     1      47.731   3.018  17.597  0.00  0.00    +0.000 A 
ATOM      7  C   UNL     1      47.945   3.989  16.612  0.00  0.00    +0.000 A 
ATOM      8  C   UNL     1      48.745   5.096  16.919  0.00  0.00    +0.000 A 
BRANCH   3   9
ATOM      9  O   UNL     1      50.026   6.404  18.382  0.00  0.00    +0.000 OA
BRANCH   9  11
ATOM     10  C   UNL     1      52.008   6.714  19.791  0.00  0.00    +0.000 C 
ATOM     11  C   UNL     1      51.479   6.340  18.409  0.00  0.00    +0.000 C 
ATOM     12  C   UNL     1      52.184   5.179  17.666  0.00  0.00    +0.000 C 
ATOM     13  O   UNL     1      52.523   6.031  16.547  0.00  0.00    +0.000 OA
ATOM     14  C   UNL     1      52.150   7.202  17.309  0.00  0.00    +0.000 C 
ENDBRANCH   9  11
ENDBRANCH   3   9
ENDBRANCH   1   7
BRANCH   2  15
ATOM     15  C   UNL     1      46.406   4.863  13.184  0.00  0.00    +0.000 A 
ATOM     16  C   UNL     1      45.756   3.733  12.673  0.00  0.00    +0.000 A 
ATOM     17  C   UNL     1      45.314   3.706  11.347  0.00  0.00    +0.000 A 
ATOM     18  C   UNL     1      45.491   4.819  10.518  0.00  0.00    +0.000 A 
ATOM     19  C   UNL     1      46.112   5.964  11.027  0.00  0.00    +0.000 A 
ATOM     20  C   UNL     1      46.561   5.984  12.354  0.00  0.00    +0.000 A 
BRANCH  18  21
ATOM     21  C   UNL     1      45.036   4.720   9.107  0.00  0.00    +0.000 C 
ATOM     22  N   UNL     1      43.725   4.409   8.884  0.00  0.00    +0.000 N 
ATOM     23  O   UNL     1      45.810   4.879   8.171  0.00  0.00    +0.000 OA
ATOM     24  H   UNL     1      43.118   4.043   9.602  0.00  0.00    +0.000 HD
ATOM     25  H   UNL     1      43.467   4.246   7.918  0.00  0.00    +0.000 HD
ENDBRANCH  18  21
ENDBRANCH   2  15
TORSDOF 5
ENDMDL
MODEL 3
REMARK VINA RESULT:    -5.492      1.390      1.832
REMARK INTER + INTRA:          -7.778
REMARK INTER:                  -7.112
REMARK INTRA:                  -0.666
REMARK UNBOUND:                -0.680
REMARK  Name = 
REMARK  6 active torsions:
REMARK  status: ('A' for Active; 'I' for Inactive)
REMARK    1  A    between atoms: C_1  and  C_2
REMARK    2  A    between atoms: C_2  and  O_3
REMARK    3  A    between atoms: O_3  and  C_4
REMARK    4  A    between atoms: C_8  and  C_9
REMARK    5  A    between atoms: C_10  and  C_11
REMARK    6  A    between atoms: C_14  and  C_15
REMARK                            x       y       z     vdW  Elec       q    Type
REMARK                         _______ _______ _______ _____ _____    ______ ____
ROOT
ATOM      1  C   UNL     1      47.347   4.350  15.537  0.00  0.00    +0.000 C 
ATOM      2  C   UNL     1      47.160   5.130  14.460  0.00  0.00    +0.000 C 
ENDROOT
BRANCH   1   7
ATOM      3  C   UNL     1      49.256   6.525  17.961  0.00  0.00    +0.000 A 
ATOM      4  C   UNL     1      49.663   5.589  18.910  0.00  0.00    +0.000 A 
ATOM      5  C   UNL     1      49.371   4.237  18.733  0.00  0.00    +0.000 A 
ATOM      6  C   UNL     1      48.643   3.817  17.621  0.00  0.00    +0.000 A 
ATOM      7  C   UNL     1      48.173   4.749  16.689  0.00  0.00    +0.000 A 
ATOM      8  C   UNL     1      48.513   6.097  16.853  0.00  0.00    +0.000 A 
BRANCH   3   9
ATOM      9  O   UNL     1      49.508   7.872  18.015  0.00  0.00    +0.000 OA
BRANCH   9  11
ATOM     10  C   UNL     1      48.093   9.809  17.509  0.00  0.00    +0.000 C 
ATOM     11  C   UNL     1      48.527   8.795  18.564  0.00  0.00    +0.000 C 
ATOM     12  C   UNL     1      47.436   8.240  19.512  0.00  0.00    +0.000 C 
ATOM     13  O   UNL     1      48.132   8.725  20.684  0.00  0.00    +0.000 OA
ATOM     14  C   UNL     1      49.013   9.511  19.850  0.00  0.00    +0.000 C 
ENDBRANCH   9  11
ENDBRANCH   3   9
ENDBRANCH   1   7
BRANCH   2  15
ATOM     15  C   UNL     1      46.411   4.738  13.257  0.00  0.00    +0.000 A 
ATOM     16  C   UNL     1      45.890   3.451  13.081  0.00  0.00    +0.000 A 
ATOM     17  C   UNL     1      45.210   3.113  11.908  0.00  0.00    +0.000 A 
ATOM     18  C   UNL     1      45.014   4.066  10.903  0.00  0.00    +0.000 A 
ATOM     19  C   UNL     1      45.503   5.364  11.081  0.00  0.00    +0.000 A 
ATOM     20  C   UNL     1      46.192   5.695  12.255  0.00  0.00    +0.000 A 
BRANCH  18  21
ATOM     21  C   UNL     1      44.318   3.640   9.662  0.00  0.00    +0.000 C 
ATOM     22  N   UNL     1      43.916   4.615   8.794  0.00  0.00    +0.000 N 
ATOM     23  O   UNL     1      44.083   2.460   9.431  0.00  0.00    +0.000 OA
ATOM     24  H   UNL     1      43.875   5.591   9.046  0.00  0.00    +0.000 HD
ATOM     25  H   UNL     1      43.354   4.306   8.010  0.00  0.00    +0.000 HD
ENDBRANCH  18  21
ENDBRANCH   2  15
TORSDOF 5
ENDMDL
MODEL 4
REMARK VINA RESULT:    -5.492      5.653      8.267
REMARK INTER + INTRA:          -7.777
REMARK INTER:                  -7.346
REMARK INTRA:                  -0.432
REMARK UNBOUND:                -0.680
REMARK  Name = 
REMARK  6 active torsions:
REMARK  status: ('A' for Active; 'I' for Inactive)
REMARK    1  A    between atoms: C_1  and  C_2
REMARK    2  A    between atoms: C_2  and  O_3
REMARK    3  A    between atoms: O_3  and  C_4
REMARK    4  A    between atoms: C_8  and  C_9
REMARK    5  A    between atoms: C_10  and  C_11
REMARK    6  A    between atoms: C_14  and  C_15
REMARK                            x       y       z     vdW  Elec       q    Type
REMARK                         _______ _______ _______ _____ _____    ______ ____
ROOT
ATOM      1  C   UNL     1      49.243   7.500  11.521  0.00  0.00    +0.000 C 
ATOM      2  C   UNL     1      48.621   6.976  12.589  0.00  0.00    +0.000 C 
ENDROOT
BRANCH   1   7
ATOM      3  C   UNL     1      52.740   8.290  10.337  0.00  0.00    +0.000 A 
ATOM      4  C   UNL     1      53.298   8.855  11.482  0.00  0.00    +0.000 A 
ATOM      5  C   UNL     1      52.558   8.925  12.663  0.00  0.00    +0.000 A 
ATOM      6  C   UNL     1      51.246   8.459  12.696  0.00  0.00    +0.000 A 
ATOM      7  C   UNL     1      50.648   7.943  11.540  0.00  0.00    +0.000 A 
ATOM      8  C   UNL     1      51.416   7.834  10.375  0.00  0.00    +0.000 A 
BRANCH   3   9
ATOM      9  O   UNL     1      53.378   8.143   9.132  0.00  0.00    +0.000 OA
BRANCH   9  11
ATOM     10  C   UNL     1      53.879   5.767   9.471  0.00  0.00    +0.000 C 
ATOM     11  C   UNL     1      53.452   6.846   8.479  0.00  0.00    +0.000 C 
ATOM     12  C   UNL     1      52.361   6.472   7.445  0.00  0.00    +0.000 C 
ATOM     13  O   UNL     1      53.238   6.768   6.333  0.00  0.00    +0.000 OA
ATOM     14  C   UNL     1      54.370   6.841   7.229  0.00  0.00    +0.000 C 
ENDBRANCH   9  11
ENDBRANCH   3   9
ENDBRANCH   1   7
BRANCH   2  15
ATOM     15  C   UNL     1      47.202   6.598  12.634  0.00  0.00    +0.000 A 
ATOM     16  C   UNL     1      46.740   5.493  13.359  0.00  0.00    +0.000 A 
ATOM     17  C   UNL     1      45.385   5.152  13.349  0.00  0.00    +0.000 A 
ATOM     18  C   UNL     1      44.463   5.929  12.639  0.00  0.00    +0.000 A 
ATOM     19  C   UNL     1      44.908   7.054  11.937  0.00  0.00    +0.000 A 
ATOM     20  C   UNL     1      46.269   7.386  11.942  0.00  0.00    +0.000 A 
BRANCH  18  21
ATOM     21  C   UNL     1      43.042   5.497  12.633  0.00  0.00    +0.000 C 
ATOM     22  N   UNL     1      42.197   6.108  11.750  0.00  0.00    +0.000 N 
ATOM     23  O   UNL     1      42.627   4.646  13.410  0.00  0.00    +0.000 OA
ATOM     24  H   UNL     1      42.433   6.961  11.267  0.00  0.00    +0.000 HD
ATOM     25  H   UNL     1      41.217   5.870  11.839  0.00  0.00    +0.000 HD
ENDBRANCH  18  21
ENDBRANCH   2  15
TORSDOF 5
ENDMDL
MODEL 5
REMARK VINA RESULT:    -5.452      5.778      8.368
REMARK INTER + INTRA:          -7.726
REMARK INTER:                  -7.096
REMARK INTRA:                  -0.629
REMARK UNBOUND:                -0.680
REMARK  Name = 
REMARK  6 active torsions:
REMARK  status: ('A' for Active; 'I' for Inactive)
REMARK    1  A    between atoms: C_1  and  C_2
REMARK    2  A    between atoms: C_2  and  O_3
REMARK    3  A    between atoms: O_3  and  C_4
REMARK    4  A    between atoms: C_8  and  C_9
REMARK    5  A    between atoms: C_10  and  C_11
REMARK    6  A    between atoms: C_14  and  C_15
REMARK                            x       y       z     vdW  Elec       q    Type
REMARK                         _______ _______ _______ _____ _____    ______ ____
ROOT
ATOM      1  C   UNL     1      49.273   7.380  11.851  0.00  0.00    +0.000 C 
ATOM      2  C   UNL     1      47.998   7.519  11.453  0.00  0.00    +0.000 C 
ENDROOT
BRANCH   1   7
ATOM      3  C   UNL     1      52.616   8.557  10.551  0.00  0.00    +0.000 A 
ATOM      4  C   UNL     1      52.424   9.937  10.507  0.00  0.00    +0.000 A 
ATOM      5  C   UNL     1      51.229  10.495  10.959  0.00  0.00    +0.000 A 
ATOM      6  C   UNL     1      50.205   9.674  11.428  0.00  0.00    +0.000 A 
ATOM      7  C   UNL     1      50.355   8.282  11.424  0.00  0.00    +0.000 A 
ATOM      8  C   UNL     1      51.578   7.738  11.013  0.00  0.00    +0.000 A 
BRANCH   3   9
ATOM      9  O   UNL     1      53.755   7.901  10.161  0.00  0.00    +0.000 OA
BRANCH   9  11
ATOM     10  C   UNL     1      53.820   5.666   9.156  0.00  0.00    +0.000 C 
ATOM     11  C   UNL     1      53.805   7.172   8.904  0.00  0.00    +0.000 C 
ATOM     12  C   UNL     1      52.960   7.687   7.714  0.00  0.00    +0.000 C 
ATOM     13  O   UNL     1      54.114   8.290   7.086  0.00  0.00    +0.000 OA
ATOM     14  C   UNL     1      54.991   7.592   7.999  0.00  0.00    +0.000 C 
ENDBRANCH   9  11
ENDBRANCH   3   9
ENDBRANCH   1   7
BRANCH   2  15
ATOM     15  C   UNL     1      46.906   6.595  11.791  0.00  0.00    +0.000 A 
ATOM     16  C   UNL     1      45.895   6.260  10.882  0.00  0.00    +0.000 A 
ATOM     17  C   UNL     1      44.859   5.400  11.256  0.00  0.00    +0.000 A 
ATOM     18  C   UNL     1      44.832   4.837  12.537  0.00  0.00    +0.000 A 
ATOM     19  C   UNL     1      45.853   5.140  13.443  0.00  0.00    +0.000 A 
ATOM     20  C   UNL     1      46.885   6.010  13.067  0.00  0.00    +0.000 A 
BRANCH  18  21
ATOM     21  C   UNL     1      43.686   3.960  12.891  0.00  0.00    +0.000 C 
ATOM     22  N   UNL     1      43.784   2.633  12.583  0.00  0.00    +0.000 N 
ATOM     23  O   UNL     1      42.674   4.409  13.414  0.00  0.00    +0.000 OA
ATOM     24  H   UNL     1      44.481   2.267  11.952  0.00  0.00    +0.000 HD
ATOM     25  H   UNL     1      42.951   2.080  12.740  0.00  0.00    +0.000 HD
ENDBRANCH  18  21
ENDBRANCH   2  15
TORSDOF 5
ENDMDL
MODEL 6
REMARK VINA RESULT:    -5.271      2.949      4.038
REMARK INTER + INTRA:          -7.492
REMARK INTER:                  -7.084
REMARK INTRA:                  -0.409
REMARK UNBOUND:                -0.680
REMARK  Name = 
REMARK  6 active torsions:
REMARK  status: ('A' for Active; 'I' for Inactive)
REMARK    1  A    between atoms: C_1  and  C_2
REMARK    2  A    between atoms: C_2  and  O_3
REMARK    3  A    between atoms: O_3  and  C_4
REMARK    4  A    between atoms: C_8  and  C_9
REMARK    5  A    between atoms: C_10  and  C_11
REMARK    6  A    between atoms: C_14  and  C_15
REMARK                            x       y       z     vdW  Elec       q    Type
REMARK                         _______ _______ _______ _____ _____    ______ ____
ROOT
ATOM      1  C   UNL     1      47.363   4.377  16.279  0.00  0.00    +0.000 C 
ATOM      2  C   UNL     1      47.542   4.954  15.079  0.00  0.00    +0.000 C 
ENDROOT
BRANCH   1   7
ATOM      3  C   UNL     1      50.428   3.964  18.445  0.00  0.00    +0.000 A 
ATOM      4  C   UNL     1      50.172   4.882  19.463  0.00  0.00    +0.000 A 
ATOM      5  C   UNL     1      48.973   5.594  19.482  0.00  0.00    +0.000 A 
ATOM      6  C   UNL     1      48.036   5.415  18.466  0.00  0.00    +0.000 A 
ATOM      7  C   UNL     1      48.301   4.544  17.403  0.00  0.00    +0.000 A 
ATOM      8  C   UNL     1      49.486   3.800  17.421  0.00  0.00    +0.000 A 
BRANCH   3   9
ATOM      9  O   UNL     1      51.555   3.191  18.338  0.00  0.00    +0.000 OA
BRANCH   9  11
ATOM     10  C   UNL     1      53.274   4.849  17.789  0.00  0.00    +0.000 C 
ATOM     11  C   UNL     1      52.858   3.712  18.718  0.00  0.00    +0.000 C 
ATOM     12  C   UNL     1      53.186   3.865  20.223  0.00  0.00    +0.000 C 
ATOM     13  O   UNL     1      53.981   2.656  20.229  0.00  0.00    +0.000 OA
ATOM     14  C   UNL     1      53.959   2.621  18.783  0.00  0.00    +0.000 C 
ENDBRANCH   9  11
ENDBRANCH   3   9
ENDBRANCH   1   7
BRANCH   2  15
ATOM     15  C   UNL     1      46.676   4.749  13.910  0.00  0.00    +0.000 A 
ATOM     16  C   UNL     1      46.090   5.811  13.212  0.00  0.00    +0.000 A 
ATOM     17  C   UNL     1      45.249   5.568  12.123  0.00  0.00    +0.000 A 
ATOM     18  C   UNL     1      45.002   4.259  11.695  0.00  0.00    +0.000 A 
ATOM     19  C   UNL     1      45.607   3.191  12.366  0.00  0.00    +0.000 A 
ATOM     20  C   UNL     1      46.443   3.439  13.463  0.00  0.00    +0.000 A 
BRANCH  18  21
ATOM     21  C   UNL     1      44.070   4.059  10.557  0.00  0.00    +0.000 C 
ATOM     22  N   UNL     1      44.095   4.978   9.547  0.00  0.00    +0.000 N 
ATOM     23  O   UNL     1      43.281   3.122  10.530  0.00  0.00    +0.000 OA
ATOM     24  H   UNL     1      44.548   5.876   9.634  0.00  0.00    +0.000 HD
ATOM     25  H   UNL     1      43.380   4.877   8.837  0.00  0.00    +0.000 HD
ENDBRANCH  18  21
ENDBRANCH   2  15
TORSDOF 5
ENDMDL
MODEL 7
REMARK VINA RESULT:    -5.231      4.264      8.669
REMARK INTER + INTRA:          -7.440
REMARK INTER:                  -6.950
REMARK INTRA:                  -0.490
REMARK UNBOUND:                -0.680
REMARK  Name = 
REMARK  6 active torsions:
REMARK  status: ('A' for Active; 'I' for Inactive)
REMARK    1  A    between atoms: C_1  and  C_2
REMARK    2  A    between atoms: C_2  and  O_3
REMARK    3  A    between atoms: O_3  and  C_4
REMARK    4  A    between atoms: C_8  and  C_9
REMARK    5  A    between atoms: C_10  and  C_11
REMARK    6  A    between atoms: C_14  and  C_15
REMARK                            x       y       z     vdW  Elec       q    Type
REMARK                         _______ _______ _______ _____ _____    ______ ____
ROOT
ATOM      1  C   UNL     1      48.674   6.629  14.395  0.00  0.00    +0.000 C 
ATOM      2  C   UNL     1      48.647   6.423  15.722  0.00  0.00    +0.000 C 
ENDROOT
BRANCH   1   7
ATOM      3  C   UNL     1      45.311   6.767  12.684  0.00  0.00    +0.000 A 
ATOM      4  C   UNL     1      45.265   8.099  12.275  0.00  0.00    +0.000 A 
ATOM      5  C   UNL     1      46.354   8.941  12.498  0.00  0.00    +0.000 A 
ATOM      6  C   UNL     1      47.483   8.465  13.161  0.00  0.00    +0.000 A 
ATOM      7  C   UNL     1      47.525   7.148  13.634  0.00  0.00    +0.000 A 
ATOM      8  C   UNL     1      46.446   6.300  13.361  0.00  0.00    +0.000 A 
BRANCH   3   9
ATOM      9  O   UNL     1      44.317   5.842  12.495  0.00  0.00    +0.000 OA
BRANCH   9  11
ATOM     10  C   UNL     1      45.048   5.019  10.305  0.00  0.00    +0.000 C 
ATOM     11  C   UNL     1      44.548   4.648  11.698  0.00  0.00    +0.000 C 
ATOM     12  C   UNL     1      45.188   3.414  12.381  0.00  0.00    +0.000 C 
ATOM     13  O   UNL     1      43.910   2.748  12.497  0.00  0.00    +0.000 OA
ATOM     14  C   UNL     1      43.309   3.720  11.611  0.00  0.00    +0.000 C 
ENDBRANCH   9  11
ENDBRANCH   3   9
ENDBRANCH   1   7
BRANCH   2  15
ATOM     15  C   UNL     1      49.741   5.831  16.503  0.00  0.00    +0.000 A 
ATOM     16  C   UNL     1      51.024   6.390  16.544  0.00  0.00    +0.000 A 
ATOM     17  C   UNL     1      52.044   5.777  17.277  0.00  0.00    +0.000 A 
ATOM     18  C   UNL     1      51.790   4.610  18.007  0.00  0.00    +0.000 A 
ATOM     19  C   UNL     1      50.504   4.060  17.999  0.00  0.00    +0.000 A 
ATOM     20  C   UNL     1      49.487   4.673  17.255  0.00  0.00    +0.000 A 
BRANCH  18  21
ATOM     21  C   UNL     1      52.921   3.982  18.737  0.00  0.00    +0.000 C 
ATOM     22  N   UNL     1      52.812   2.658  19.055  0.00  0.00    +0.000 N 
ATOM     23  O   UNL     1      53.906   4.627  19.072  0.00  0.00    +0.000 OA
ATOM     24  H   UNL     1      51.940   2.153  19.012  0.00  0.00    +0.000 HD
ATOM     25  H   UNL     1      53.548   2.281  19.640  0.00  0.00    +0.000 HD
ENDBRANCH  18  21
ENDBRANCH   2  15
TORSDOF 5
ENDMDL
MODEL 8
REMARK VINA RESULT:    -4.915      2.983      4.042
REMARK INTER + INTRA:          -7.032
REMARK INTER:                  -6.393
REMARK INTRA:                  -0.639
REMARK UNBOUND:                -0.680
REMARK  Name = 
REMARK  6 active torsions:
REMARK  status: ('A' for Active; 'I' for Inactive)
REMARK    1  A    between atoms: C_1  and  C_2
REMARK    2  A    between atoms: C_2  and  O_3
REMARK    3  A    between atoms: O_3  and  C_4
REMARK    4  A    between atoms: C_8  and  C_9
REMARK    5  A    between atoms: C_10  and  C_11
REMARK    6  A    between atoms: C_14  and  C_15
REMARK                            x       y       z     vdW  Elec       q    Type
REMARK                         _______ _______ _______ _____ _____    ______ ____
ROOT
ATOM      1  C   UNL     1      48.588   7.237  14.750  0.00  0.00    +0.000 C 
ATOM      2  C   UNL     1      48.310   6.293  13.835  0.00  0.00    +0.000 C 
ENDROOT
BRANCH   1   7
ATOM      3  C   UNL     1      51.100   6.929  17.551  0.00  0.00    +0.000 A 
ATOM      4  C   UNL     1      52.277   7.309  16.908  0.00  0.00    +0.000 A 
ATOM      5  C   UNL     1      52.248   7.727  15.578  0.00  0.00    +0.000 A 
ATOM      6  C   UNL     1      51.047   7.737  14.873  0.00  0.00    +0.000 A 
ATOM      7  C   UNL     1      49.864   7.301  15.482  0.00  0.00    +0.000 A 
ATOM      8  C   UNL     1      49.898   6.930  16.831  0.00  0.00    +0.000 A 
BRANCH   3   9
ATOM      9  O   UNL     1      51.003   6.528  18.859  0.00  0.00    +0.000 OA
BRANCH   9  11
ATOM     10  C   UNL     1      49.549   4.804  19.820  0.00  0.00    +0.000 C 
ATOM     11  C   UNL     1      50.910   5.119  19.204  0.00  0.00    +0.000 C 
ATOM     12  C   UNL     1      51.510   4.075  18.229  0.00  0.00    +0.000 C 
ATOM     13  O   UNL     1      52.690   3.909  19.049  0.00  0.00    +0.000 OA
ATOM     14  C   UNL     1      52.059   4.637  20.127  0.00  0.00    +0.000 C 
ENDBRANCH   9  11
ENDBRANCH   3   9
ENDBRANCH   1   7
BRANCH   2  15
ATOM     15  C   UNL     1      47.022   6.146  13.143  0.00  0.00    +0.000 A 
ATOM     16  C   UNL     1      46.649   6.959  12.066  0.00  0.00    +0.000 A 
ATOM     17  C   UNL     1      45.401   6.803  11.457  0.00  0.00    +0.000 A 
ATOM     18  C   UNL     1      44.516   5.812  11.895  0.00  0.00    +0.000 A 
ATOM     19  C   UNL     1      44.891   4.974  12.950  0.00  0.00    +0.000 A 
ATOM     20  C   UNL     1      46.139   5.139  13.564  0.00  0.00    +0.000 A 
BRANCH  18  21
ATOM     21  C   UNL     1      43.189   5.718  11.235  0.00  0.00    +0.000 C 
ATOM     22  N   UNL     1      42.172   6.474  11.745  0.00  0.00    +0.000 N 
ATOM     23  O   UNL     1      42.996   4.969  10.286  0.00  0.00    +0.000 OA
ATOM     24  H   UNL     1      42.218   6.915  12.651  0.00  0.00    +0.000 HD
ATOM     25  H   UNL     1      41.256   6.314  11.344  0.00  0.00    +0.000 HD
ENDBRANCH  18  21
ENDBRANCH   2  15
TORSDOF 5
ENDMDL
MODEL 9
REMARK VINA RESULT:    -4.852      9.890     10.818
REMARK INTER + INTRA:          -6.951
REMARK INTER:                  -6.260
REMARK INTRA:                  -0.691
REMARK UNBOUND:                -0.680
REMARK  Name = 
REMARK  6 active torsions:
REMARK  status: ('A' for Active; 'I' for Inactive)
REMARK    1  A    between atoms: C_1  and  C_2
REMARK    2  A    between atoms: C_2  and  O_3
REMARK    3  A    between atoms: O_3  and  C_4
REMARK    4  A    between atoms: C_8  and  C_9
REMARK    5  A    between atoms: C_10  and  C_11
REMARK    6  A    between atoms: C_14  and  C_15
REMARK                            x       y       z     vdW  Elec       q    Type
REMARK                         _______ _______ _______ _____ _____    ______ ____
ROOT
ATOM      1  C   UNL     1      39.696  -2.185  17.495  0.00  0.00    +0.000 C 
ATOM      2  C   UNL     1      40.560  -2.009  16.482  0.00  0.00    +0.000 C 
ENDROOT
BRANCH   1   7
ATOM      3  C   UNL     1      38.161   0.811  19.205  0.00  0.00    +0.000 A 
ATOM      4  C   UNL     1      38.797   0.777  20.445  0.00  0.00    +0.000 A 
ATOM      5  C   UNL     1      39.774  -0.184  20.707  0.00  0.00    +0.000 A 
ATOM      6  C   UNL     1      40.097  -1.136  19.742  0.00  0.00    +0.000 A 
ATOM      7  C   UNL     1      39.427  -1.156  18.514  0.00  0.00    +0.000 A 
ATOM      8  C   UNL     1      38.483  -0.157  18.245  0.00  0.00    +0.000 A 
BRANCH   3   9
ATOM      9  O   UNL     1      37.209   1.722  18.825  0.00  0.00    +0.000 OA
BRANCH   9  11
ATOM     10  C   UNL     1      37.193   4.047  19.600  0.00  0.00    +0.000 C 
ATOM     11  C   UNL     1      37.576   3.086  18.479  0.00  0.00    +0.000 C 
ATOM     12  C   UNL     1      38.924   3.331  17.759  0.00  0.00    +0.000 C 
ATOM     13  O   UNL     1      38.274   3.478  16.475  0.00  0.00    +0.000 OA
ATOM     14  C   UNL     1      36.984   3.553  17.124  0.00  0.00    +0.000 C 
ENDBRANCH   9  11
ENDBRANCH   3   9
ENDBRANCH   1   7
BRANCH   2  15
ATOM     15  C   UNL     1      40.917  -3.037  15.494  0.00  0.00    +0.000 A 
ATOM     16  C   UNL     1      40.728  -2.856  14.118  0.00  0.00    +0.000 A 
ATOM     17  C   UNL     1      41.055  -3.873  13.217  0.00  0.00    +0.000 A 
ATOM     18  C   UNL     1      41.603  -5.076  13.673  0.00  0.00    +0.000 A 
ATOM     19  C   UNL     1      41.825  -5.256  15.042  0.00  0.00    +0.000 A 
ATOM     20  C   UNL     1      41.488  -4.238  15.943  0.00  0.00    +0.000 A 
BRANCH  18  21
ATOM     21  C   UNL     1      41.895  -6.135  12.672  0.00  0.00    +0.000 C 
ATOM     22  N   UNL     1      40.876  -6.532  11.854  0.00  0.00    +0.000 N 
ATOM     23  O   UNL     1      42.999  -6.660  12.598  0.00  0.00    +0.000 OA
ATOM     24  H   UNL     1      39.910  -6.304  12.031  0.00  0.00    +0.000 HD
ATOM     25  H   UNL     1      41.073  -7.324  11.254  0.00  0.00    +0.000 HD
ENDBRANCH  18  21
ENDBRANCH   2  15
TORSDOF 5
ENDMDL
