MODEL 1
REMARK VINA RESULT:    -8.652      0.000      0.000
REMARK INTER + INTRA:         -12.798
REMARK INTER:                 -11.687
REMARK INTRA:                  -1.111
REMARK UNBOUND:                -1.111
REMARK  Name = 
REMARK  9 active torsions:
REMARK  status: ('A' for Active; 'I' for Inactive)
REMARK    1  A    between atoms: C_1  and  C_2
REMARK    2  A    between atoms: C_7  and  C_8
REMARK    3  A    between atoms: C_12  and  C_13
REMARK    4  A    between atoms: C_13  and  C_14
REMARK    5  A    between atoms: C_13  and  C_15
REMARK    6  A    between atoms: C_13  and  C_16
REMARK    7  A    between atoms: C_16  and  N_17
REMARK    8  A    between atoms: N_17  and  C_18
REMARK    9  A    between atoms: C_21  and  C_22
REMARK                            x       y       z     vdW  Elec       q    Type
REMARK                         _______ _______ _______ _____ _____    ______ ____
ROOT
ATOM      1  C   UNL     1      43.974   4.727  12.183  0.00  0.00    +0.000 C 
ATOM      2  C   UNL     1      42.979   4.798  13.361  0.00  0.00    +0.000 C 
ATOM      3  C   UNL     1      43.454   5.650  11.052  0.00  0.00    +0.000 C 
ENDROOT
BRANCH   1   8
ATOM      4  C   UNL     1      47.096   6.899  12.883  0.00  0.00    +0.000 A 
ATOM      5  C   UNL     1      47.716   6.138  13.879  0.00  0.00    +0.000 A 
ATOM      6  C   UNL     1      47.257   4.869  14.201  0.00  0.00    +0.000 A 
ATOM      7  C   UNL     1      46.103   4.375  13.601  0.00  0.00    +0.000 A 
ATOM      8  C   UNL     1      45.383   5.143  12.672  0.00  0.00    +0.000 A 
ATOM      9  C   UNL     1      45.941   6.377  12.273  0.00  0.00    +0.000 A 
BRANCH   4  16
ATOM     10  C   UNL     1      49.926   7.594  11.698  0.00  0.00    +0.000 C 
ATOM     11  C   UNL     1      48.672   8.449  11.479  0.00  0.00    +0.000 C 
ATOM     12  C   UNL     1      49.083   9.931  11.376  0.00  0.00    +0.000 C 
ATOM     13  C   UNL     1      49.413  10.514  12.746  0.00  0.00    +0.000 C 
ATOM     14  O   UNL     1      48.277  10.418  13.601  0.00  0.00    +0.000 OA
ATOM     15  C   UNL     1      47.913   9.061  13.855  0.00  0.00    +0.000 C 
ATOM     16  C   UNL     1      47.559   8.310  12.558  0.00  0.00    +0.000 C 
ENDBRANCH   4  16
ENDBRANCH   1   8
BRANCH   1  17
ATOM     17  C   UNL     1      44.067   3.262  11.632  0.00  0.00    +0.000 C 
BRANCH  17  18
ATOM     18  N   UNL     1      43.739   3.158  10.209  0.00  0.00    +0.000 N 
ATOM     19  H   UNL     1      42.965   2.532  10.000  0.00  0.00    +0.000 HD
BRANCH  18  20
ATOM     20  C   UNL     1      44.749   3.056   9.252  0.00  0.00    +0.000 A 
ATOM     21  C   UNL     1      45.237   4.130   8.507  0.00  0.00    +0.000 A 
ATOM     22  C   UNL     1      46.203   3.937   7.511  0.00  0.00    +0.000 A 
ATOM     23  C   UNL     1      46.674   2.650   7.205  0.00  0.00    +0.000 A 
ATOM     24  C   UNL     1      46.183   1.567   7.931  0.00  0.00    +0.000 A 
ATOM     25 CL   UNL     1      46.704  -0.069   7.707  0.00  0.00    +0.000 Cl
ATOM     26  C   UNL     1      45.221   1.774   8.935  0.00  0.00    +0.000 A 
BRANCH  23  27
ATOM     27  C   UNL     1      47.673   2.569   6.105  0.00  0.00    +0.000 C 
ATOM     28  N   UNL     1      48.995   2.498   6.438  0.00  0.00    +0.000 N 
ATOM     29  O   UNL     1      47.324   2.508   4.935  0.00  0.00    +0.000 OA
ATOM     30  H   UNL     1      49.329   2.607   7.382  0.00  0.00    +0.000 HD
ATOM     31  H   UNL     1      49.665   2.465   5.682  0.00  0.00    +0.000 HD
ENDBRANCH  23  27
ENDBRANCH  18  20
ENDBRANCH  17  18
ENDBRANCH   1  17
TORSDOF 6
ENDMDL
MODEL 2
REMARK VINA RESULT:    -8.576      1.358      2.230
REMARK INTER + INTRA:         -12.695
REMARK INTER:                 -11.468
REMARK INTRA:                  -1.227
REMARK UNBOUND:                -1.111
REMARK  Name = 
REMARK  9 active torsions:
REMARK  status: ('A' for Active; 'I' for Inactive)
REMARK    1  A    between atoms: C_1  and  C_2
REMARK    2  A    between atoms: C_7  and  C_8
REMARK    3  A    between atoms: C_12  and  C_13
REMARK    4  A    between atoms: C_13  and  C_14
REMARK    5  A    between atoms: C_13  and  C_15
REMARK    6  A    between atoms: C_13  and  C_16
REMARK    7  A    between atoms: C_16  and  N_17
REMARK    8  A    between atoms: N_17  and  C_18
REMARK    9  A    between atoms: C_21  and  C_22
REMARK                            x       y       z     vdW  Elec       q    Type
REMARK                         _______ _______ _______ _____ _____    ______ ____
ROOT
ATOM      1  C   UNL     1      44.292   4.424  12.416  0.00  0.00    +0.000 C 
ATOM      2  C   UNL     1      45.339   3.297  12.540  0.00  0.00    +0.000 C 
ATOM      3  C   UNL     1      43.312   4.310  13.612  0.00  0.00    +0.000 C 
ENDROOT
BRANCH   1   8
ATOM      4  C   UNL     1      47.093   7.079  12.666  0.00  0.00    +0.000 A 
ATOM      5  C   UNL     1      46.516   8.125  11.940  0.00  0.00    +0.000 A 
ATOM      6  C   UNL     1      45.191   8.067  11.530  0.00  0.00    +0.000 A 
ATOM      7  C   UNL     1      44.446   6.914  11.752  0.00  0.00    +0.000 A 
ATOM      8  C   UNL     1      45.011   5.795  12.382  0.00  0.00    +0.000 A 
ATOM      9  C   UNL     1      46.319   5.928  12.899  0.00  0.00    +0.000 A 
BRANCH   4  16
ATOM     10  C   UNL     1      48.211   8.761  15.078  0.00  0.00    +0.000 C 
ATOM     11  C   UNL     1      48.860   7.472  14.559  0.00  0.00    +0.000 C 
ATOM     12  C   UNL     1      50.386   7.564  14.747  0.00  0.00    +0.000 C 
ATOM     13  C   UNL     1      51.023   8.472  13.701  0.00  0.00    +0.000 C 
ATOM     14  O   UNL     1      50.757   7.969  12.394  0.00  0.00    +0.000 OA
ATOM     15  C   UNL     1      49.362   7.978  12.091  0.00  0.00    +0.000 C 
ATOM     16  C   UNL     1      48.556   7.110  13.076  0.00  0.00    +0.000 C 
ENDBRANCH   4  16
ENDBRANCH   1   8
BRANCH   1  17
ATOM     17  C   UNL     1      43.478   4.272  11.085  0.00  0.00    +0.000 C 
BRANCH  17  18
ATOM     18  N   UNL     1      43.765   3.027  10.371  0.00  0.00    +0.000 N 
ATOM     19  H   UNL     1      43.816   2.203  10.964  0.00  0.00    +0.000 HD
BRANCH  18  20
ATOM     20  C   UNL     1      44.733   2.991   9.365  0.00  0.00    +0.000 A 
ATOM     21  C   UNL     1      45.142   4.103   8.628  0.00  0.00    +0.000 A 
ATOM     22  C   UNL     1      46.067   3.974   7.584  0.00  0.00    +0.000 A 
ATOM     23  C   UNL     1      46.573   2.716   7.221  0.00  0.00    +0.000 A 
ATOM     24  C   UNL     1      46.160   1.596   7.939  0.00  0.00    +0.000 A 
ATOM     25 CL   UNL     1      46.734  -0.012   7.647  0.00  0.00    +0.000 Cl
ATOM     26  C   UNL     1      45.239   1.738   8.992  0.00  0.00    +0.000 A 
BRANCH  23  27
ATOM     27  C   UNL     1      47.521   2.704   6.075  0.00  0.00    +0.000 C 
ATOM     28  N   UNL     1      48.841   2.474   6.332  0.00  0.00    +0.000 N 
ATOM     29  O   UNL     1      47.127   2.836   4.924  0.00  0.00    +0.000 OA
ATOM     30  H   UNL     1      49.218   2.421   7.265  0.00  0.00    +0.000 HD
ATOM     31  H   UNL     1      49.479   2.489   5.548  0.00  0.00    +0.000 HD
ENDBRANCH  23  27
ENDBRANCH  18  20
ENDBRANCH  17  18
ENDBRANCH   1  17
TORSDOF 6
ENDMDL
MODEL 3
REMARK VINA RESULT:    -7.339      1.843      2.629
REMARK INTER + INTRA:         -11.024
REMARK INTER:                 -10.893
REMARK INTRA:                  -0.131
REMARK UNBOUND:                -1.111
REMARK  Name = 
REMARK  9 active torsions:
REMARK  status: ('A' for Active; 'I' for Inactive)
REMARK    1  A    between atoms: C_1  and  C_2
REMARK    2  A    between atoms: C_7  and  C_8
REMARK    3  A    between atoms: C_12  and  C_13
REMARK    4  A    between atoms: C_13  and  C_14
REMARK    5  A    between atoms: C_13  and  C_15
REMARK    6  A    between atoms: C_13  and  C_16
REMARK    7  A    between atoms: C_16  and  N_17
REMARK    8  A    between atoms: N_17  and  C_18
REMARK    9  A    between atoms: C_21  and  C_22
REMARK                            x       y       z     vdW  Elec       q    Type
REMARK                         _______ _______ _______ _____ _____    ______ ____
ROOT
ATOM      1  C   UNL     1      43.968   4.732  12.390  0.00  0.00    +0.000 C 
ATOM      2  C   UNL     1      45.162   3.755  12.434  0.00  0.00    +0.000 C 
ATOM      3  C   UNL     1      43.080   4.470  13.633  0.00  0.00    +0.000 C 
ENDROOT
BRANCH   1   8
ATOM      4  C   UNL     1      46.270   7.794  12.924  0.00  0.00    +0.000 A 
ATOM      5  C   UNL     1      45.751   8.671  11.967  0.00  0.00    +0.000 A 
ATOM      6  C   UNL     1      44.579   8.376  11.285  0.00  0.00    +0.000 A 
ATOM      7  C   UNL     1      43.955   7.147  11.476  0.00  0.00    +0.000 A 
ATOM      8  C   UNL     1      44.494   6.188  12.348  0.00  0.00    +0.000 A 
ATOM      9  C   UNL     1      45.617   6.564  13.119  0.00  0.00    +0.000 A 
BRANCH   4  16
ATOM     10  C   UNL     1      49.069   7.909  11.493  0.00  0.00    +0.000 C 
ATOM     11  C   UNL     1      48.731   8.677  12.777  0.00  0.00    +0.000 C 
ATOM     12  C   UNL     1      49.998   8.790  13.646  0.00  0.00    +0.000 C 
ATOM     13  C   UNL     1      50.310   7.473  14.349  0.00  0.00    +0.000 C 
ATOM     14  O   UNL     1      49.219   7.098  15.186  0.00  0.00    +0.000 OA
ATOM     15  C   UNL     1      48.032   6.843  14.434  0.00  0.00    +0.000 C 
ATOM     16  C   UNL     1      47.580   8.083  13.639  0.00  0.00    +0.000 C 
ENDBRANCH   4  16
ENDBRANCH   1   8
BRANCH   1  17
ATOM     17  C   UNL     1      43.110   4.491  11.100  0.00  0.00    +0.000 C 
BRANCH  17  18
ATOM     18  N   UNL     1      43.829   4.796   9.862  0.00  0.00    +0.000 N 
ATOM     19  H   UNL     1      43.316   5.386   9.211  0.00  0.00    +0.000 HD
BRANCH  18  20
ATOM     20  C   UNL     1      44.547   3.804   9.194  0.00  0.00    +0.000 A 
ATOM     21  C   UNL     1      44.475   2.443   9.495  0.00  0.00    +0.000 A 
ATOM     22  C   UNL     1      45.282   1.514   8.827  0.00  0.00    +0.000 A 
ATOM     23  C   UNL     1      46.219   1.930   7.868  0.00  0.00    +0.000 A 
ATOM     24  C   UNL     1      46.312   3.288   7.570  0.00  0.00    +0.000 A 
ATOM     25 CL   UNL     1      47.378   3.950   6.376  0.00  0.00    +0.000 Cl
ATOM     26  C   UNL     1      45.489   4.212   8.239  0.00  0.00    +0.000 A 
BRANCH  23  27
ATOM     27  C   UNL     1      47.041   0.854   7.253  0.00  0.00    +0.000 C 
ATOM     28  N   UNL     1      46.801  -0.436   7.628  0.00  0.00    +0.000 N 
ATOM     29  O   UNL     1      47.872   1.105   6.392  0.00  0.00    +0.000 OA
ATOM     30  H   UNL     1      46.171  -0.682   8.375  0.00  0.00    +0.000 HD
ATOM     31  H   UNL     1      47.380  -1.156   7.220  0.00  0.00    +0.000 HD
ENDBRANCH  23  27
ENDBRANCH  18  20
ENDBRANCH  17  18
ENDBRANCH   1  17
TORSDOF 6
ENDMDL
MODEL 4
REMARK VINA RESULT:    -7.031      4.614      8.324
REMARK INTER + INTRA:         -10.608
REMARK INTER:                  -9.179
REMARK INTRA:                  -1.429
REMARK UNBOUND:                -1.111
REMARK  Name = 
REMARK  9 active torsions:
REMARK  status: ('A' for Active; 'I' for Inactive)
REMARK    1  A    between atoms: C_1  and  C_2
REMARK    2  A    between atoms: C_7  and  C_8
REMARK    3  A    between atoms: C_12  and  C_13
REMARK    4  A    between atoms: C_13  and  C_14
REMARK    5  A    between atoms: C_13  and  C_15
REMARK    6  A    between atoms: C_13  and  C_16
REMARK    7  A    between atoms: C_16  and  N_17
REMARK    8  A    between atoms: N_17  and  C_18
REMARK    9  A    between atoms: C_21  and  C_22
REMARK                            x       y       z     vdW  Elec       q    Type
REMARK                         _______ _______ _______ _____ _____    ______ ____
ROOT
ATOM      1  C   UNL     1      49.378   8.842  12.073  0.00  0.00    +0.000 C 
ATOM      2  C   UNL     1      50.167   7.730  11.351  0.00  0.00    +0.000 C 
ATOM      3  C   UNL     1      49.606  10.173  11.310  0.00  0.00    +0.000 C 
ENDROOT
BRANCH   1   8
ATOM      4  C   UNL     1      46.161   6.696  12.034  0.00  0.00    +0.000 A 
ATOM      5  C   UNL     1      45.263   7.574  12.647  0.00  0.00    +0.000 A 
ATOM      6  C   UNL     1      45.613   8.892  12.907  0.00  0.00    +0.000 A 
ATOM      7  C   UNL     1      46.908   9.329  12.649  0.00  0.00    +0.000 A 
ATOM      8  C   UNL     1      47.879   8.457  12.132  0.00  0.00    +0.000 A 
ATOM      9  C   UNL     1      47.461   7.159  11.762  0.00  0.00    +0.000 A 
BRANCH   4  16
ATOM     10  C   UNL     1      43.337   5.711  11.057  0.00  0.00    +0.000 C 
ATOM     11  C   UNL     1      44.647   4.958  10.791  0.00  0.00    +0.000 C 
ATOM     12  C   UNL     1      44.362   3.444  10.769  0.00  0.00    +0.000 C 
ATOM     13  C   UNL     1      44.167   2.893  12.177  0.00  0.00    +0.000 C 
ATOM     14  O   UNL     1      45.339   3.122  12.955  0.00  0.00    +0.000 OA
ATOM     15  C   UNL     1      45.597   4.515  13.136  0.00  0.00    +0.000 C 
ATOM     16  C   UNL     1      45.805   5.238  11.791  0.00  0.00    +0.000 C 
ENDBRANCH   4  16
ENDBRANCH   1   8
BRANCH   1  17
ATOM     17  C   UNL     1      49.892   9.012  13.544  0.00  0.00    +0.000 C 
BRANCH  17  18
ATOM     18  N   UNL     1      50.565   7.820  14.063  0.00  0.00    +0.000 N 
ATOM     19  H   UNL     1      51.058   7.275  13.359  0.00  0.00    +0.000 HD
BRANCH  18  20
ATOM     20  C   UNL     1      49.934   6.996  14.995  0.00  0.00    +0.000 A 
ATOM     21  C   UNL     1      48.638   6.498  14.854  0.00  0.00    +0.000 A 
ATOM     22  C   UNL     1      48.044   5.735  15.867  0.00  0.00    +0.000 A 
ATOM     23  C   UNL     1      48.720   5.489  17.073  0.00  0.00    +0.000 A 
ATOM     24  C   UNL     1      50.009   5.995  17.233  0.00  0.00    +0.000 A 
ATOM     25 CL   UNL     1      50.988   5.733  18.637  0.00  0.00    +0.000 Cl
ATOM     26  C   UNL     1      50.599   6.750  16.205  0.00  0.00    +0.000 A 
BRANCH  23  27
ATOM     27  C   UNL     1      47.973   4.697  18.086  0.00  0.00    +0.000 C 
ATOM     28  N   UNL     1      46.793   5.197  18.555  0.00  0.00    +0.000 N 
ATOM     29  O   UNL     1      48.369   3.599  18.451  0.00  0.00    +0.000 OA
ATOM     30  H   UNL     1      46.460   6.121  18.329  0.00  0.00    +0.000 HD
ATOM     31  H   UNL     1      46.304   4.661  19.258  0.00  0.00    +0.000 HD
ENDBRANCH  23  27
ENDBRANCH  18  20
ENDBRANCH  17  18
ENDBRANCH   1  17
TORSDOF 6
ENDMDL
MODEL 5
REMARK VINA RESULT:    -6.879      4.137      7.709
REMARK INTER + INTRA:         -10.404
REMARK INTER:                  -8.583
REMARK INTRA:                  -1.820
REMARK UNBOUND:                -1.111
REMARK  Name = 
REMARK  9 active torsions:
REMARK  status: ('A' for Active; 'I' for Inactive)
REMARK    1  A    between atoms: C_1  and  C_2
REMARK    2  A    between atoms: C_7  and  C_8
REMARK    3  A    between atoms: C_12  and  C_13
REMARK    4  A    between atoms: C_13  and  C_14
REMARK    5  A    between atoms: C_13  and  C_15
REMARK    6  A    between atoms: C_13  and  C_16
REMARK    7  A    between atoms: C_16  and  N_17
REMARK    8  A    between atoms: N_17  and  C_18
REMARK    9  A    between atoms: C_21  and  C_22
REMARK                            x       y       z     vdW  Elec       q    Type
REMARK                         _______ _______ _______ _____ _____    ______ ____
ROOT
ATOM      1  C   UNL     1      48.290   9.659  12.881  0.00  0.00    +0.000 C 
ATOM      2  C   UNL     1      49.422   8.813  12.261  0.00  0.00    +0.000 C 
ATOM      3  C   UNL     1      48.662  11.156  12.727  0.00  0.00    +0.000 C 
ENDROOT
BRANCH   1   8
ATOM      4  C   UNL     1      45.211   7.648  11.684  0.00  0.00    +0.000 A 
ATOM      5  C   UNL     1      44.344   8.691  11.342  0.00  0.00    +0.000 A 
ATOM      6  C   UNL     1      44.783  10.007  11.315  0.00  0.00    +0.000 A 
ATOM      7  C   UNL     1      46.075  10.317  11.729  0.00  0.00    +0.000 A 
ATOM      8  C   UNL     1      46.950   9.318  12.184  0.00  0.00    +0.000 A 
ATOM      9  C   UNL     1      46.519   7.977  12.082  0.00  0.00    +0.000 A 
BRANCH   4  16
ATOM     10  C   UNL     1      45.763   5.477   9.474  0.00  0.00    +0.000 C 
ATOM     11  C   UNL     1      45.536   5.154  10.956  0.00  0.00    +0.000 C 
ATOM     12  C   UNL     1      44.829   3.789  11.072  0.00  0.00    +0.000 C 
ATOM     13  C   UNL     1      43.348   3.898  10.724  0.00  0.00    +0.000 C 
ATOM     14  O   UNL     1      42.707   4.816  11.606  0.00  0.00    +0.000 OA
ATOM     15  C   UNL     1      43.219   6.141  11.461  0.00  0.00    +0.000 C 
ATOM     16  C   UNL     1      44.728   6.209  11.765  0.00  0.00    +0.000 C 
ENDBRANCH   4  16
ENDBRANCH   1   8
BRANCH   1  17
ATOM     17  C   UNL     1      48.137   9.334  14.407  0.00  0.00    +0.000 C 
BRANCH  17  18
ATOM     18  N   UNL     1      49.133   8.381  14.899  0.00  0.00    +0.000 N 
ATOM     19  H   UNL     1      49.939   8.263  14.290  0.00  0.00    +0.000 HD
BRANCH  18  20
ATOM     20  C   UNL     1      48.738   7.167  15.462  0.00  0.00    +0.000 A 
ATOM     21  C   UNL     1      49.057   6.761  16.759  0.00  0.00    +0.000 A 
ATOM     22  C   UNL     1      48.686   5.495  17.229  0.00  0.00    +0.000 A 
ATOM     23  C   UNL     1      48.023   4.582  16.394  0.00  0.00    +0.000 A 
ATOM     24  C   UNL     1      47.713   4.969  15.092  0.00  0.00    +0.000 A 
ATOM     25 CL   UNL     1      46.853   3.977  13.963  0.00  0.00    +0.000 Cl
ATOM     26  C   UNL     1      48.080   6.246  14.633  0.00  0.00    +0.000 A 
BRANCH  23  27
ATOM     27  C   UNL     1      47.713   3.258  16.997  0.00  0.00    +0.000 C 
ATOM     28  N   UNL     1      48.709   2.327  17.057  0.00  0.00    +0.000 N 
ATOM     29  O   UNL     1      46.615   3.022  17.481  0.00  0.00    +0.000 OA
ATOM     30  H   UNL     1      49.607   2.455  16.617  0.00  0.00    +0.000 HD
ATOM     31  H   UNL     1      48.482   1.424  17.449  0.00  0.00    +0.000 HD
ENDBRANCH  23  27
ENDBRANCH  18  20
ENDBRANCH  17  18
ENDBRANCH   1  17
TORSDOF 6
ENDMDL
MODEL 6
REMARK VINA RESULT:    -6.511      4.589      8.310
REMARK INTER + INTRA:          -9.905
REMARK INTER:                  -8.731
REMARK INTRA:                  -1.175
REMARK UNBOUND:                -1.111
REMARK  Name = 
REMARK  9 active torsions:
REMARK  status: ('A' for Active; 'I' for Inactive)
REMARK    1  A    between atoms: C_1  and  C_2
REMARK    2  A    between atoms: C_7  and  C_8
REMARK    3  A    between atoms: C_12  and  C_13
REMARK    4  A    between atoms: C_13  and  C_14
REMARK    5  A    between atoms: C_13  and  C_15
REMARK    6  A    between atoms: C_13  and  C_16
REMARK    7  A    between atoms: C_16  and  N_17
REMARK    8  A    between atoms: N_17  and  C_18
REMARK    9  A    between atoms: C_21  and  C_22
REMARK                            x       y       z     vdW  Elec       q    Type
REMARK                         _______ _______ _______ _____ _____    ______ ____
ROOT
ATOM      1  C   UNL     1      48.531   8.301  12.864  0.00  0.00    +0.000 C 
ATOM      2  C   UNL     1      49.216   6.993  12.418  0.00  0.00    +0.000 C 
ATOM      3  C   UNL     1      49.425   9.491  12.430  0.00  0.00    +0.000 C 
ENDROOT
BRANCH   1   8
ATOM      4  C   UNL     1      45.113   7.201  11.426  0.00  0.00    +0.000 A 
ATOM      5  C   UNL     1      44.399   8.400  11.524  0.00  0.00    +0.000 A 
ATOM      6  C   UNL     1      45.034   9.586  11.867  0.00  0.00    +0.000 A 
ATOM      7  C   UNL     1      46.380   9.576  12.219  0.00  0.00    +0.000 A 
ATOM      8  C   UNL     1      47.115   8.381  12.240  0.00  0.00    +0.000 A 
ATOM      9  C   UNL     1      46.477   7.213  11.767  0.00  0.00    +0.000 A 
BRANCH   4  16
ATOM     10  C   UNL     1      45.035   4.724  13.364  0.00  0.00    +0.000 C 
ATOM     11  C   UNL     1      43.961   5.022  12.310  0.00  0.00    +0.000 C 
ATOM     12  C   UNL     1      43.391   3.692  11.781  0.00  0.00    +0.000 C 
ATOM     13  C   UNL     1      44.356   3.018  10.812  0.00  0.00    +0.000 C 
ATOM     14  O   UNL     1      44.608   3.875   9.701  0.00  0.00    +0.000 OA
ATOM     15  C   UNL     1      45.262   5.081  10.096  0.00  0.00    +0.000 C 
ATOM     16  C   UNL     1      44.419   5.889  11.101  0.00  0.00    +0.000 C 
ENDBRANCH   4  16
ENDBRANCH   1   8
BRANCH   1  17
ATOM     17  C   UNL     1      48.374   8.334  14.424  0.00  0.00    +0.000 C 
BRANCH  17  18
ATOM     18  N   UNL     1      47.965   7.048  14.990  0.00  0.00    +0.000 N 
ATOM     19  H   UNL     1      47.000   7.015  15.309  0.00  0.00    +0.000 HD
BRANCH  18  20
ATOM     20  C   UNL     1      48.811   6.351  15.855  0.00  0.00    +0.000 A 
ATOM     21  C   UNL     1      50.159   6.653  16.049  0.00  0.00    +0.000 A 
ATOM     22  C   UNL     1      50.963   5.862  16.879  0.00  0.00    +0.000 A 
ATOM     23  C   UNL     1      50.445   4.715  17.503  0.00  0.00    +0.000 A 
ATOM     24  C   UNL     1      49.104   4.393  17.303  0.00  0.00    +0.000 A 
ATOM     25 CL   UNL     1      48.308   3.045  18.044  0.00  0.00    +0.000 Cl
ATOM     26  C   UNL     1      48.303   5.201  16.477  0.00  0.00    +0.000 A 
BRANCH  23  27
ATOM     27  C   UNL     1      51.404   3.937  18.331  0.00  0.00    +0.000 C 
ATOM     28  N   UNL     1      51.475   4.212  19.666  0.00  0.00    +0.000 N 
ATOM     29  O   UNL     1      52.073   3.034  17.848  0.00  0.00    +0.000 OA
ATOM     30  H   UNL     1      50.990   4.985  20.094  0.00  0.00    +0.000 HD
ATOM     31  H   UNL     1      52.145   3.692  20.215  0.00  0.00    +0.000 HD
ENDBRANCH  23  27
ENDBRANCH  18  20
ENDBRANCH  17  18
ENDBRANCH   1  17
TORSDOF 6
ENDMDL
MODEL 7
REMARK VINA RESULT:    -6.451      5.289      8.488
REMARK INTER + INTRA:          -9.825
REMARK INTER:                  -8.696
REMARK INTRA:                  -1.129
REMARK UNBOUND:                -1.111
REMARK  Name = 
REMARK  9 active torsions:
REMARK  status: ('A' for Active; 'I' for Inactive)
REMARK    1  A    between atoms: C_1  and  C_2
REMARK    2  A    between atoms: C_7  and  C_8
REMARK    3  A    between atoms: C_12  and  C_13
REMARK    4  A    between atoms: C_13  and  C_14
REMARK    5  A    between atoms: C_13  and  C_15
REMARK    6  A    between atoms: C_13  and  C_16
REMARK    7  A    between atoms: C_16  and  N_17
REMARK    8  A    between atoms: N_17  and  C_18
REMARK    9  A    between atoms: C_21  and  C_22
REMARK                            x       y       z     vdW  Elec       q    Type
REMARK                         _______ _______ _______ _____ _____    ______ ____
ROOT
ATOM      1  C   UNL     1      49.229   8.184  15.884  0.00  0.00    +0.000 C 
ATOM      2  C   UNL     1      50.685   8.640  16.114  0.00  0.00    +0.000 C 
ATOM      3  C   UNL     1      48.287   9.350  16.276  0.00  0.00    +0.000 C 
ENDROOT
BRANCH   1   8
ATOM      4  C   UNL     1      47.754   6.513  12.723  0.00  0.00    +0.000 A 
ATOM      5  C   UNL     1      48.359   7.281  11.724  0.00  0.00    +0.000 A 
ATOM      6  C   UNL     1      49.358   8.196  12.030  0.00  0.00    +0.000 A 
ATOM      7  C   UNL     1      49.700   8.431  13.357  0.00  0.00    +0.000 A 
ATOM      8  C   UNL     1      49.048   7.763  14.405  0.00  0.00    +0.000 A 
ATOM      9  C   UNL     1      48.125   6.750  14.059  0.00  0.00    +0.000 A 
BRANCH   4  16
ATOM     10  C   UNL     1      44.883   7.404  11.793  0.00  0.00    +0.000 C 
ATOM     11  C   UNL     1      45.521   6.055  11.435  0.00  0.00    +0.000 C 
ATOM     12  C   UNL     1      44.416   4.986  11.332  0.00  0.00    +0.000 C 
ATOM     13  C   UNL     1      43.932   4.550  12.711  0.00  0.00    +0.000 C 
ATOM     14  O   UNL     1      45.018   4.008  13.458  0.00  0.00    +0.000 OA
ATOM     15  C   UNL     1      46.031   4.982  13.712  0.00  0.00    +0.000 C 
ATOM     16  C   UNL     1      46.624   5.546  12.407  0.00  0.00    +0.000 C 
ENDBRANCH   4  16
ENDBRANCH   1   8
BRANCH   1  17
ATOM     17  C   UNL     1      48.894   6.944  16.784  0.00  0.00    +0.000 C 
BRANCH  17  18
ATOM     18  N   UNL     1      49.939   6.642  17.763  0.00  0.00    +0.000 N 
ATOM     19  H   UNL     1      50.643   7.370  17.867  0.00  0.00    +0.000 HD
BRANCH  18  20
ATOM     20  C   UNL     1      50.510   5.370  17.825  0.00  0.00    +0.000 A 
ATOM     21  C   UNL     1      51.809   5.111  18.263  0.00  0.00    +0.000 A 
ATOM     22  C   UNL     1      52.337   3.815  18.228  0.00  0.00    +0.000 A 
ATOM     23  C   UNL     1      51.589   2.746  17.707  0.00  0.00    +0.000 A 
ATOM     24  C   UNL     1      50.296   2.994  17.252  0.00  0.00    +0.000 A 
ATOM     25 CL   UNL     1      49.233   1.775  16.634  0.00  0.00    +0.000 Cl
ATOM     26  C   UNL     1      49.772   4.298  17.302  0.00  0.00    +0.000 A 
BRANCH  23  27
ATOM     27  C   UNL     1      52.270   1.424  17.691  0.00  0.00    +0.000 C 
ATOM     28  N   UNL     1      51.565   0.330  18.103  0.00  0.00    +0.000 N 
ATOM     29  O   UNL     1      53.410   1.303  17.266  0.00  0.00    +0.000 OA
ATOM     30  H   UNL     1      50.648   0.392  18.516  0.00  0.00    +0.000 HD
ATOM     31  H   UNL     1      52.045  -0.560  18.107  0.00  0.00    +0.000 HD
ENDBRANCH  23  27
ENDBRANCH  18  20
ENDBRANCH  17  18
ENDBRANCH   1  17
TORSDOF 6
ENDMDL
MODEL 8
REMARK VINA RESULT:    -6.379      3.562      5.403
REMARK INTER + INTRA:          -9.728
REMARK INTER:                  -8.236
REMARK INTRA:                  -1.493
REMARK UNBOUND:                -1.111
REMARK  Name = 
REMARK  9 active torsions:
REMARK  status: ('A' for Active; 'I' for Inactive)
REMARK    1  A    between atoms: C_1  and  C_2
REMARK    2  A    between atoms: C_7  and  C_8
REMARK    3  A    between atoms: C_12  and  C_13
REMARK    4  A    between atoms: C_13  and  C_14
REMARK    5  A    between atoms: C_13  and  C_15
REMARK    6  A    between atoms: C_13  and  C_16
REMARK    7  A    between atoms: C_16  and  N_17
REMARK    8  A    between atoms: N_17  and  C_18
REMARK    9  A    between atoms: C_21  and  C_22
REMARK                            x       y       z     vdW  Elec       q    Type
REMARK                         _______ _______ _______ _____ _____    ______ ____
ROOT
ATOM      1  C   UNL     1      48.229   3.510  17.021  0.00  0.00    +0.000 C 
ATOM      2  C   UNL     1      49.552   2.751  17.255  0.00  0.00    +0.000 C 
ATOM      3  C   UNL     1      47.098   2.757  17.766  0.00  0.00    +0.000 C 
ENDROOT
BRANCH   1   8
ATOM      4  C   UNL     1      49.183   7.258  17.086  0.00  0.00    +0.000 A 
ATOM      5  C   UNL     1      48.332   7.719  18.095  0.00  0.00    +0.000 A 
ATOM      6  C   UNL     1      47.597   6.834  18.872  0.00  0.00    +0.000 A 
ATOM      7  C   UNL     1      47.622   5.473  18.586  0.00  0.00    +0.000 A 
ATOM      8  C   UNL     1      48.378   4.971  17.515  0.00  0.00    +0.000 A 
ATOM      9  C   UNL     1      49.212   5.877  16.822  0.00  0.00    +0.000 A 
BRANCH   4  16
ATOM     10  C   UNL     1      47.973   8.653  14.539  0.00  0.00    +0.000 C 
ATOM     11  C   UNL     1      49.112   9.243  15.380  0.00  0.00    +0.000 C 
ATOM     12  C   UNL     1      50.056  10.044  14.462  0.00  0.00    +0.000 C 
ATOM     13  C   UNL     1      50.950   9.121  13.642  0.00  0.00    +0.000 C 
ATOM     14  O   UNL     1      51.742   8.314  14.510  0.00  0.00    +0.000 OA
ATOM     15  C   UNL     1      50.940   7.441  15.306  0.00  0.00    +0.000 C 
ATOM     16  C   UNL     1      49.954   8.220  16.196  0.00  0.00    +0.000 C 
ENDBRANCH   4  16
ENDBRANCH   1   8
BRANCH   1  17
ATOM     17  C   UNL     1      47.883   3.551  15.492  0.00  0.00    +0.000 C 
BRANCH  17  18
ATOM     18  N   UNL     1      46.669   4.312  15.194  0.00  0.00    +0.000 N 
ATOM     19  H   UNL     1      45.902   4.154  15.843  0.00  0.00    +0.000 HD
BRANCH  18  20
ATOM     20  C   UNL     1      46.209   4.432  13.882  0.00  0.00    +0.000 A 
ATOM     21  C   UNL     1      45.954   3.352  13.036  0.00  0.00    +0.000 A 
ATOM     22  C   UNL     1      45.564   3.554  11.706  0.00  0.00    +0.000 A 
ATOM     23  C   UNL     1      45.462   4.849  11.174  0.00  0.00    +0.000 A 
ATOM     24  C   UNL     1      45.730   5.937  12.004  0.00  0.00    +0.000 A 
ATOM     25 CL   UNL     1      45.597   7.591  11.511  0.00  0.00    +0.000 Cl
ATOM     26  C   UNL     1      46.111   5.722  13.341  0.00  0.00    +0.000 A 
BRANCH  23  27
ATOM     27  C   UNL     1      45.073   4.934   9.741  0.00  0.00    +0.000 C 
ATOM     28  N   UNL     1      43.794   4.601   9.399  0.00  0.00    +0.000 N 
ATOM     29  O   UNL     1      45.854   5.346   8.895  0.00  0.00    +0.000 OA
ATOM     30  H   UNL     1      43.139   4.200  10.051  0.00  0.00    +0.000 HD
ATOM     31  H   UNL     1      43.547   4.642   8.420  0.00  0.00    +0.000 HD
ENDBRANCH  23  27
ENDBRANCH  18  20
ENDBRANCH  17  18
ENDBRANCH   1  17
TORSDOF 6
ENDMDL
MODEL 9
REMARK VINA RESULT:    -6.252      4.365      7.162
REMARK INTER + INTRA:          -9.557
REMARK INTER:                  -7.965
REMARK INTRA:                  -1.592
REMARK UNBOUND:                -1.111
REMARK  Name = 
REMARK  9 active torsions:
REMARK  status: ('A' for Active; 'I' for Inactive)
REMARK    1  A    between atoms: C_1  and  C_2
REMARK    2  A    between atoms: C_7  and  C_8
REMARK    3  A    between atoms: C_12  and  C_13
REMARK    4  A    between atoms: C_13  and  C_14
REMARK    5  A    between atoms: C_13  and  C_15
REMARK    6  A    between atoms: C_13  and  C_16
REMARK    7  A    between atoms: C_16  and  N_17
REMARK    8  A    between atoms: N_17  and  C_18
REMARK    9  A    between atoms: C_21  and  C_22
REMARK                            x       y       z     vdW  Elec       q    Type
REMARK                         _______ _______ _______ _____ _____    ______ ____
ROOT
ATOM      1  C   UNL     1      45.684   5.330  12.600  0.00  0.00    +0.000 C 
ATOM      2  C   UNL     1      44.278   5.257  13.231  0.00  0.00    +0.000 C 
ATOM      3  C   UNL     1      45.604   4.748  11.165  0.00  0.00    +0.000 C 
ENDROOT
BRANCH   1   8
ATOM      4  C   UNL     1      47.952   8.416  12.062  0.00  0.00    +0.000 A 
ATOM      5  C   UNL     1      47.008   9.444  12.161  0.00  0.00    +0.000 A 
ATOM      6  C   UNL     1      45.708   9.185  12.570  0.00  0.00    +0.000 A 
ATOM      7  C   UNL     1      45.297   7.875  12.793  0.00  0.00    +0.000 A 
ATOM      8  C   UNL     1      46.177   6.798  12.605  0.00  0.00    +0.000 A 
ATOM      9  C   UNL     1      47.525   7.099  12.309  0.00  0.00    +0.000 A 
BRANCH   4  16
ATOM     10  C   UNL     1      50.489   8.474  13.922  0.00  0.00    +0.000 C 
ATOM     11  C   UNL     1      50.526   8.112  12.432  0.00  0.00    +0.000 C 
ATOM     12  C   UNL     1      51.867   8.579  11.832  0.00  0.00    +0.000 C 
ATOM     13  C   UNL     1      51.884  10.087  11.611  0.00  0.00    +0.000 C 
ATOM     14  O   UNL     1      50.836  10.459  10.719  0.00  0.00    +0.000 OA
ATOM     15  C   UNL     1      49.546  10.180  11.264  0.00  0.00    +0.000 C 
ATOM     16  C   UNL     1      49.364   8.680  11.566  0.00  0.00    +0.000 C 
ENDBRANCH   4  16
ENDBRANCH   1   8
BRANCH   1  17
ATOM     17  C   UNL     1      46.703   4.475  13.432  0.00  0.00    +0.000 C 
BRANCH  17  18
ATOM     18  N   UNL     1      46.374   4.410  14.857  0.00  0.00    +0.000 N 
ATOM     19  H   UNL     1      45.627   5.037  15.146  0.00  0.00    +0.000 HD
BRANCH  18  20
ATOM     20  C   UNL     1      47.384   4.344  15.817  0.00  0.00    +0.000 A 
ATOM     21  C   UNL     1      47.604   3.249  16.653  0.00  0.00    +0.000 A 
ATOM     22  C   UNL     1      48.593   3.286  17.644  0.00  0.00    +0.000 A 
ATOM     23  C   UNL     1      49.361   4.443  17.854  0.00  0.00    +0.000 A 
ATOM     24  C   UNL     1      49.140   5.549  17.036  0.00  0.00    +0.000 A 
ATOM     25 CL   UNL     1      50.039   7.026  17.135  0.00  0.00    +0.000 Cl
ATOM     26  C   UNL     1      48.151   5.498  16.037  0.00  0.00    +0.000 A 
BRANCH  23  27
ATOM     27  C   UNL     1      50.355   4.372  18.957  0.00  0.00    +0.000 C 
ATOM     28  N   UNL     1      51.478   3.619  18.767  0.00  0.00    +0.000 N 
ATOM     29  O   UNL     1      50.206   5.014  19.988  0.00  0.00    +0.000 OA
ATOM     30  H   UNL     1      51.612   3.028  17.963  0.00  0.00    +0.000 HD
ATOM     31  H   UNL     1      52.136   3.561  19.532  0.00  0.00    +0.000 HD
ENDBRANCH  23  27
ENDBRANCH  18  20
ENDBRANCH  17  18
ENDBRANCH   1  17
TORSDOF 6
ENDMDL
