MODEL 1
REMARK VINA RESULT:    -8.819      0.000      0.000
REMARK INTER + INTRA:         -12.372
REMARK INTER:                 -11.912
REMARK INTRA:                  -0.460
REMARK UNBOUND:                -0.460
REMARK  Name = 
REMARK  7 active torsions:
REMARK  status: ('A' for Active; 'I' for Inactive)
REMARK    1  A    between atoms: C_1  and  C_2
REMARK    2  A    between atoms: C_2  and  N_3
REMARK    3  A    between atoms: C_2  and  C_16
REMARK    4  A    between atoms: C_4  and  C_6
REMARK    5  A    between atoms: C_19  and  C_20
REMARK    6  A    between atoms: C_20  and  O_21
REMARK    7  A    between atoms: O_21  and  C_22
REMARK                            x       y       z     vdW  Elec       q    Type
REMARK                         _______ _______ _______ _____ _____    ______ ____
ROOT
ATOM      1  C   UNL     1      47.963   8.775  12.220  0.00  0.00    +0.000 C 
ATOM      2  C   UNL     1      46.812   8.104  12.975  0.00  0.00    +0.000 C 
ENDROOT
BRANCH   2   3
ATOM      3  C   UNL     1      46.135   6.977  12.214  0.00  0.00    +0.000 A 
ATOM      4  C   UNL     1      45.155   6.209  12.866  0.00  0.00    +0.000 A 
ATOM      5  C   UNL     1      44.503   5.163  12.207  0.00  0.00    +0.000 A 
ATOM      6  C   UNL     1      44.831   4.844  10.886  0.00  0.00    +0.000 A 
ATOM      7  C   UNL     1      45.803   5.608  10.229  0.00  0.00    +0.000 A 
ATOM      8  C   UNL     1      46.459   6.652  10.890  0.00  0.00    +0.000 A 
BRANCH   6   9
ATOM      9  C   UNL     1      44.174   3.678  10.191  0.00  0.00    +0.000 C 
BRANCH   9  10
ATOM     10  O   UNL     1      44.302   3.803   8.775  0.00  0.00    +0.000 OA
BRANCH  10  11
ATOM     11  C   UNL     1      45.290   3.049   8.200  0.00  0.00    +0.000 A 
ATOM     12  C   UNL     1      46.169   3.465   7.203  0.00  0.00    +0.000 A 
ATOM     13  C   UNL     1      47.130   2.583   6.710  0.00  0.00    +0.000 A 
ATOM     14  C   UNL     1      47.181   1.302   7.235  0.00  0.00    +0.000 A 
ATOM     15  N   UNL     1      46.348   0.860   8.199  0.00  0.00    +0.000 NA
ATOM     16  C   UNL     1      45.425   1.741   8.657  0.00  0.00    +0.000 A 
ENDBRANCH  10  11
ENDBRANCH   9  10
ENDBRANCH   6   9
ENDBRANCH   2   3
BRANCH   2  17
ATOM     17  N   UNL     1      47.261   7.631  14.273  0.00  0.00    +0.000 N 
ATOM     18  C   UNL     1      48.266   6.703  14.385  0.00  0.00    +0.000 C 
ATOM     19  O   UNL     1      48.875   6.278  13.406  0.00  0.00    +0.000 OA
ATOM     20  H   UNL     1      46.670   7.831  15.073  0.00  0.00    +0.000 HD
BRANCH  18  21
ATOM     21  C   UNL     1      48.629   6.270  15.740  0.00  0.00    +0.000 A 
ATOM     22  C   UNL     1      49.518   7.038  16.481  0.00  0.00    +0.000 A 
ATOM     23  S   UNL     1      49.852   6.400  18.026  0.00  0.00    +0.000 S 
ATOM     24  C   UNL     1      48.857   5.048  17.740  0.00  0.00    +0.000 A 
ATOM     25  N   UNL     1      48.741   4.060  18.666  0.00  0.00    +0.000 NA
ATOM     26  C   UNL     1      47.991   3.074  18.301  0.00  0.00    +0.000 A 
ATOM     27  N   UNL     1      47.332   2.996  17.100  0.00  0.00    +0.000 N 
ATOM     28  C   UNL     1      47.374   3.997  16.155  0.00  0.00    +0.000 A 
ATOM     29  O   UNL     1      46.698   3.944  15.133  0.00  0.00    +0.000 OA
ATOM     30  C   UNL     1      48.246   5.106  16.499  0.00  0.00    +0.000 A 
ATOM     31  H   UNL     1      46.743   2.205  16.890  0.00  0.00    +0.000 HD
ENDBRANCH  18  21
ENDBRANCH   2  17
TORSDOF 6
ENDMDL
MODEL 2
REMARK VINA RESULT:    -8.172      1.502      1.842
REMARK INTER + INTRA:         -11.499
REMARK INTER:                 -10.717
REMARK INTRA:                  -0.782
REMARK UNBOUND:                -0.460
REMARK  Name = 
REMARK  7 active torsions:
REMARK  status: ('A' for Active; 'I' for Inactive)
REMARK    1  A    between atoms: C_1  and  C_2
REMARK    2  A    between atoms: C_2  and  N_3
REMARK    3  A    between atoms: C_2  and  C_16
REMARK    4  A    between atoms: C_4  and  C_6
REMARK    5  A    between atoms: C_19  and  C_20
REMARK    6  A    between atoms: C_20  and  O_21
REMARK    7  A    between atoms: O_21  and  C_22
REMARK                            x       y       z     vdW  Elec       q    Type
REMARK                         _______ _______ _______ _____ _____    ______ ____
ROOT
ATOM      1  C   UNL     1      49.429   7.122  12.877  0.00  0.00    +0.000 C 
ATOM      2  C   UNL     1      47.987   7.260  13.373  0.00  0.00    +0.000 C 
ENDROOT
BRANCH   2   3
ATOM      3  C   UNL     1      46.995   6.339  12.682  0.00  0.00    +0.000 A 
ATOM      4  C   UNL     1      46.484   6.709  11.426  0.00  0.00    +0.000 A 
ATOM      5  C   UNL     1      45.571   5.896  10.752  0.00  0.00    +0.000 A 
ATOM      6  C   UNL     1      45.129   4.699  11.326  0.00  0.00    +0.000 A 
ATOM      7  C   UNL     1      45.637   4.322  12.574  0.00  0.00    +0.000 A 
ATOM      8  C   UNL     1      46.548   5.139  13.252  0.00  0.00    +0.000 A 
BRANCH   6   9
ATOM      9  C   UNL     1      44.097   3.847  10.629  0.00  0.00    +0.000 C 
BRANCH   9  10
ATOM     10  O   UNL     1      44.172   4.027   9.216  0.00  0.00    +0.000 OA
BRANCH  10  11
ATOM     11  C   UNL     1      45.119   3.278   8.572  0.00  0.00    +0.000 A 
ATOM     12  C   UNL     1      46.016   3.736   7.610  0.00  0.00    +0.000 A 
ATOM     13  C   UNL     1      46.931   2.854   7.036  0.00  0.00    +0.000 A 
ATOM     14  C   UNL     1      46.919   1.531   7.445  0.00  0.00    +0.000 A 
ATOM     15  N   UNL     1      46.066   1.047   8.373  0.00  0.00    +0.000 NA
ATOM     16  C   UNL     1      45.189   1.930   8.911  0.00  0.00    +0.000 A 
ENDBRANCH  10  11
ENDBRANCH   9  10
ENDBRANCH   6   9
ENDBRANCH   2   3
BRANCH   2  17
ATOM     17  N   UNL     1      47.923   7.074  14.812  0.00  0.00    +0.000 N 
ATOM     18  C   UNL     1      48.623   7.887  15.668  0.00  0.00    +0.000 C 
ATOM     19  O   UNL     1      49.281   8.845  15.267  0.00  0.00    +0.000 OA
ATOM     20  H   UNL     1      47.534   6.202  15.153  0.00  0.00    +0.000 HD
BRANCH  18  21
ATOM     21  C   UNL     1      48.512   7.602  17.103  0.00  0.00    +0.000 A 
ATOM     22  C   UNL     1      48.358   8.656  17.994  0.00  0.00    +0.000 A 
ATOM     23  S   UNL     1      48.258   8.167  19.623  0.00  0.00    +0.000 S 
ATOM     24  C   UNL     1      48.465   6.531  19.200  0.00  0.00    +0.000 A 
ATOM     25  N   UNL     1      48.529   5.567  20.155  0.00  0.00    +0.000 NA
ATOM     26  C   UNL     1      48.734   4.377  19.698  0.00  0.00    +0.000 A 
ATOM     27  N   UNL     1      48.861   4.062  18.368  0.00  0.00    +0.000 N 
ATOM     28  C   UNL     1      48.747   4.996  17.362  0.00  0.00    +0.000 A 
ATOM     29  O   UNL     1      48.769   4.671  16.180  0.00  0.00    +0.000 OA
ATOM     30  C   UNL     1      48.566   6.358  17.830  0.00  0.00    +0.000 A 
ATOM     31  H   UNL     1      48.998   3.105  18.079  0.00  0.00    +0.000 HD
ENDBRANCH  18  21
ENDBRANCH   2  17
TORSDOF 6
ENDMDL
MODEL 3
REMARK VINA RESULT:    -7.926      2.563      3.476
REMARK INTER + INTRA:         -11.167
REMARK INTER:                  -9.913
REMARK INTRA:                  -1.254
REMARK UNBOUND:                -0.460
REMARK  Name = 
REMARK  7 active torsions:
REMARK  status: ('A' for Active; 'I' for Inactive)
REMARK    1  A    between atoms: C_1  and  C_2
REMARK    2  A    between atoms: C_2  and  N_3
REMARK    3  A    between atoms: C_2  and  C_16
REMARK    4  A    between atoms: C_4  and  C_6
REMARK    5  A    between atoms: C_19  and  C_20
REMARK    6  A    between atoms: C_20  and  O_21
REMARK    7  A    between atoms: O_21  and  C_22
REMARK                            x       y       z     vdW  Elec       q    Type
REMARK                         _______ _______ _______ _____ _____    ______ ____
ROOT
ATOM      1  C   UNL     1      47.275   4.056  15.825  0.00  0.00    +0.000 C 
ATOM      2  C   UNL     1      47.658   5.042  14.719  0.00  0.00    +0.000 C 
ENDROOT
BRANCH   2   3
ATOM      3  C   UNL     1      46.772   4.978  13.486  0.00  0.00    +0.000 A 
ATOM      4  C   UNL     1      46.004   3.823  13.260  0.00  0.00    +0.000 A 
ATOM      5  C   UNL     1      45.172   3.718  12.142  0.00  0.00    +0.000 A 
ATOM      6  C   UNL     1      45.104   4.758  11.209  0.00  0.00    +0.000 A 
ATOM      7  C   UNL     1      45.863   5.913  11.431  0.00  0.00    +0.000 A 
ATOM      8  C   UNL     1      46.699   6.016  12.548  0.00  0.00    +0.000 A 
BRANCH   6   9
ATOM      9  C   UNL     1      44.255   4.624   9.970  0.00  0.00    +0.000 C 
BRANCH   9  10
ATOM     10  O   UNL     1      44.193   3.263   9.550  0.00  0.00    +0.000 OA
BRANCH  10  11
ATOM     11  C   UNL     1      45.173   2.865   8.680  0.00  0.00    +0.000 A 
ATOM     12  C   UNL     1      45.809   3.665   7.734  0.00  0.00    +0.000 A 
ATOM     13  C   UNL     1      46.795   3.120   6.911  0.00  0.00    +0.000 A 
ATOM     14  C   UNL     1      47.115   1.781   7.063  0.00  0.00    +0.000 A 
ATOM     15  N   UNL     1      46.522   0.972   7.966  0.00  0.00    +0.000 NA
ATOM     16  C   UNL     1      45.568   1.532   8.750  0.00  0.00    +0.000 A 
ENDBRANCH  10  11
ENDBRANCH   9  10
ENDBRANCH   6   9
ENDBRANCH   2   3
BRANCH   2  17
ATOM     17  N   UNL     1      47.697   6.399  15.236  0.00  0.00    +0.000 N 
ATOM     18  C   UNL     1      48.885   7.070  15.389  0.00  0.00    +0.000 C 
ATOM     19  O   UNL     1      49.958   6.585  15.038  0.00  0.00    +0.000 OA
ATOM     20  H   UNL     1      46.859   6.751  15.687  0.00  0.00    +0.000 HD
BRANCH  18  21
ATOM     21  C   UNL     1      48.820   8.427  15.944  0.00  0.00    +0.000 A 
ATOM     22  C   UNL     1      49.211   9.501  15.156  0.00  0.00    +0.000 A 
ATOM     23  S   UNL     1      49.094  11.008  15.943  0.00  0.00    +0.000 S 
ATOM     24  C   UNL     1      48.560  10.273  17.383  0.00  0.00    +0.000 A 
ATOM     25  N   UNL     1      48.323  11.014  18.497  0.00  0.00    +0.000 NA
ATOM     26  C   UNL     1      47.967  10.324  19.529  0.00  0.00    +0.000 A 
ATOM     27  N   UNL     1      47.810   8.961  19.542  0.00  0.00    +0.000 N 
ATOM     28  C   UNL     1      47.984   8.176  18.425  0.00  0.00    +0.000 A 
ATOM     29  O   UNL     1      47.743   6.974  18.442  0.00  0.00    +0.000 OA
ATOM     30  C   UNL     1      48.433   8.901  17.250  0.00  0.00    +0.000 A 
ATOM     31  H   UNL     1      47.507   8.489  20.381  0.00  0.00    +0.000 HD
ENDBRANCH  18  21
ENDBRANCH   2  17
TORSDOF 6
ENDMDL
MODEL 4
REMARK VINA RESULT:    -7.411      2.034      2.528
REMARK INTER + INTRA:         -10.471
REMARK INTER:                  -9.041
REMARK INTRA:                  -1.430
REMARK UNBOUND:                -0.460
REMARK  Name = 
REMARK  7 active torsions:
REMARK  status: ('A' for Active; 'I' for Inactive)
REMARK    1  A    between atoms: C_1  and  C_2
REMARK    2  A    between atoms: C_2  and  N_3
REMARK    3  A    between atoms: C_2  and  C_16
REMARK    4  A    between atoms: C_4  and  C_6
REMARK    5  A    between atoms: C_19  and  C_20
REMARK    6  A    between atoms: C_20  and  O_21
REMARK    7  A    between atoms: O_21  and  C_22
REMARK                            x       y       z     vdW  Elec       q    Type
REMARK                         _______ _______ _______ _____ _____    ______ ____
ROOT
ATOM      1  C   UNL     1      49.833   8.142  11.591  0.00  0.00    +0.000 C 
ATOM      2  C   UNL     1      49.003   7.919  12.857  0.00  0.00    +0.000 C 
ENDROOT
BRANCH   2   3
ATOM      3  C   UNL     1      47.675   7.219  12.623  0.00  0.00    +0.000 A 
ATOM      4  C   UNL     1      47.555   5.859  12.956  0.00  0.00    +0.000 A 
ATOM      5  C   UNL     1      46.354   5.173  12.760  0.00  0.00    +0.000 A 
ATOM      6  C   UNL     1      45.248   5.824  12.205  0.00  0.00    +0.000 A 
ATOM      7  C   UNL     1      45.359   7.180  11.874  0.00  0.00    +0.000 A 
ATOM      8  C   UNL     1      46.563   7.866  12.066  0.00  0.00    +0.000 A 
BRANCH   6   9
ATOM      9  C   UNL     1      43.969   5.072  11.935  0.00  0.00    +0.000 C 
BRANCH   9  10
ATOM     10  O   UNL     1      43.662   5.090  10.542  0.00  0.00    +0.000 OA
BRANCH  10  11
ATOM     11  C   UNL     1      44.375   4.217   9.766  0.00  0.00    +0.000 A 
ATOM     12  C   UNL     1      45.277   4.557   8.760  0.00  0.00    +0.000 A 
ATOM     13  C   UNL     1      45.935   3.554   8.048  0.00  0.00    +0.000 A 
ATOM     14  C   UNL     1      45.666   2.233   8.366  0.00  0.00    +0.000 A 
ATOM     15  N   UNL     1      44.799   1.862   9.332  0.00  0.00    +0.000 NA
ATOM     16  C   UNL     1      44.176   2.860  10.005  0.00  0.00    +0.000 A 
ENDBRANCH  10  11
ENDBRANCH   9  10
ENDBRANCH   6   9
ENDBRANCH   2   3
BRANCH   2  17
ATOM     17  N   UNL     1      49.777   7.200  13.854  0.00  0.00    +0.000 N 
ATOM     18  C   UNL     1      50.457   7.864  14.845  0.00  0.00    +0.000 C 
ATOM     19  O   UNL     1      50.392   9.084  14.975  0.00  0.00    +0.000 OA
ATOM     20  H   UNL     1      49.985   6.224  13.669  0.00  0.00    +0.000 HD
BRANCH  18  21
ATOM     21  C   UNL     1      51.231   7.049  15.788  0.00  0.00    +0.000 A 
ATOM     22  C   UNL     1      52.612   7.188  15.831  0.00  0.00    +0.000 A 
ATOM     23  S   UNL     1      53.369   6.166  16.964  0.00  0.00    +0.000 S 
ATOM     24  C   UNL     1      51.881   5.466  17.405  0.00  0.00    +0.000 A 
ATOM     25  N   UNL     1      51.828   4.458  18.315  0.00  0.00    +0.000 NA
ATOM     26  C   UNL     1      50.643   3.989  18.522  0.00  0.00    +0.000 A 
ATOM     27  N   UNL     1      49.502   4.452  17.914  0.00  0.00    +0.000 N 
ATOM     28  C   UNL     1      49.500   5.507  17.030  0.00  0.00    +0.000 A 
ATOM     29  O   UNL     1      48.455   5.962  16.577  0.00  0.00    +0.000 OA
ATOM     30  C   UNL     1      50.818   6.035  16.727  0.00  0.00    +0.000 A 
ATOM     31  H   UNL     1      48.604   4.054  18.141  0.00  0.00    +0.000 HD
ENDBRANCH  18  21
ENDBRANCH   2  17
TORSDOF 6
ENDMDL
MODEL 5
REMARK VINA RESULT:    -7.008      4.377      7.179
REMARK INTER + INTRA:          -9.927
REMARK INTER:                  -8.753
REMARK INTRA:                  -1.173
REMARK UNBOUND:                -0.460
REMARK  Name = 
REMARK  7 active torsions:
REMARK  status: ('A' for Active; 'I' for Inactive)
REMARK    1  A    between atoms: C_1  and  C_2
REMARK    2  A    between atoms: C_2  and  N_3
REMARK    3  A    between atoms: C_2  and  C_16
REMARK    4  A    between atoms: C_4  and  C_6
REMARK    5  A    between atoms: C_19  and  C_20
REMARK    6  A    between atoms: C_20  and  O_21
REMARK    7  A    between atoms: O_21  and  C_22
REMARK                            x       y       z     vdW  Elec       q    Type
REMARK                         _______ _______ _______ _____ _____    ______ ____
ROOT
ATOM      1  C   UNL     1      46.959   8.684  14.097  0.00  0.00    +0.000 C 
ATOM      2  C   UNL     1      47.062   8.353  12.607  0.00  0.00    +0.000 C 
ENDROOT
BRANCH   2   3
ATOM      3  C   UNL     1      48.463   8.475  12.032  0.00  0.00    +0.000 A 
ATOM      4  C   UNL     1      49.216   7.307  11.822  0.00  0.00    +0.000 A 
ATOM      5  C   UNL     1      50.509   7.368  11.295  0.00  0.00    +0.000 A 
ATOM      6  C   UNL     1      51.090   8.602  10.984  0.00  0.00    +0.000 A 
ATOM      7  C   UNL     1      50.344   9.769  11.187  0.00  0.00    +0.000 A 
ATOM      8  C   UNL     1      49.052   9.708  11.719  0.00  0.00    +0.000 A 
BRANCH   6   9
ATOM      9  C   UNL     1      52.506   8.677  10.472  0.00  0.00    +0.000 C 
BRANCH   9  10
ATOM     10  O   UNL     1      52.525   8.646   9.046  0.00  0.00    +0.000 OA
BRANCH  10  11
ATOM     11  C   UNL     1      52.925   7.464   8.483  0.00  0.00    +0.000 A 
ATOM     12  C   UNL     1      53.528   6.398   9.148  0.00  0.00    +0.000 A 
ATOM     13  C   UNL     1      53.883   5.249   8.441  0.00  0.00    +0.000 A 
ATOM     14  C   UNL     1      53.623   5.204   7.081  0.00  0.00    +0.000 A 
ATOM     15  N   UNL     1      53.043   6.214   6.401  0.00  0.00    +0.000 NA
ATOM     16  C   UNL     1      52.710   7.316   7.116  0.00  0.00    +0.000 A 
ENDBRANCH  10  11
ENDBRANCH   9  10
ENDBRANCH   6   9
ENDBRANCH   2   3
BRANCH   2  17
ATOM     17  N   UNL     1      46.526   7.029  12.340  0.00  0.00    +0.000 N 
ATOM     18  C   UNL     1      45.311   6.862  11.725  0.00  0.00    +0.000 C 
ATOM     19  O   UNL     1      44.652   7.814  11.313  0.00  0.00    +0.000 OA
ATOM     20  H   UNL     1      46.961   6.246  12.816  0.00  0.00    +0.000 HD
BRANCH  18  21
ATOM     21  C   UNL     1      44.846   5.485  11.524  0.00  0.00    +0.000 A 
ATOM     22  C   UNL     1      44.152   4.848  12.543  0.00  0.00    +0.000 A 
ATOM     23  S   UNL     1      43.692   3.251  12.166  0.00  0.00    +0.000 S 
ATOM     24  C   UNL     1      44.447   3.338  10.643  0.00  0.00    +0.000 A 
ATOM     25  N   UNL     1      44.470   2.261   9.814  0.00  0.00    +0.000 NA
ATOM     26  C   UNL     1      45.114   2.452   8.711  0.00  0.00    +0.000 A 
ATOM     27  N   UNL     1      45.721   3.630   8.354  0.00  0.00    +0.000 N 
ATOM     28  C   UNL     1      45.676   4.763   9.135  0.00  0.00    +0.000 A 
ATOM     29  O   UNL     1      46.144   5.828   8.747  0.00  0.00    +0.000 OA
ATOM     30  C   UNL     1      45.005   4.583  10.410  0.00  0.00    +0.000 A 
ATOM     31  H   UNL     1      46.189   3.715   7.464  0.00  0.00    +0.000 HD
ENDBRANCH  18  21
ENDBRANCH   2  17
TORSDOF 6
ENDMDL
MODEL 6
REMARK VINA RESULT:    -6.923      3.991      8.131
REMARK INTER + INTRA:          -9.811
REMARK INTER:                  -8.835
REMARK INTRA:                  -0.976
REMARK UNBOUND:                -0.460
REMARK  Name = 
REMARK  7 active torsions:
REMARK  status: ('A' for Active; 'I' for Inactive)
REMARK    1  A    between atoms: C_1  and  C_2
REMARK    2  A    between atoms: C_2  and  N_3
REMARK    3  A    between atoms: C_2  and  C_16
REMARK    4  A    between atoms: C_4  and  C_6
REMARK    5  A    between atoms: C_19  and  C_20
REMARK    6  A    between atoms: C_20  and  O_21
REMARK    7  A    between atoms: O_21  and  C_22
REMARK                            x       y       z     vdW  Elec       q    Type
REMARK                         _______ _______ _______ _____ _____    ______ ____
ROOT
ATOM      1  C   UNL     1      48.765   9.227  16.011  0.00  0.00    +0.000 C 
ATOM      2  C   UNL     1      49.039   7.944  15.223  0.00  0.00    +0.000 C 
ENDROOT
BRANCH   2   3
ATOM      3  C   UNL     1      49.603   6.805  16.055  0.00  0.00    +0.000 A 
ATOM      4  C   UNL     1      50.992   6.729  16.252  0.00  0.00    +0.000 A 
ATOM      5  C   UNL     1      51.558   5.701  17.011  0.00  0.00    +0.000 A 
ATOM      6  C   UNL     1      50.749   4.710  17.575  0.00  0.00    +0.000 A 
ATOM      7  C   UNL     1      49.364   4.782  17.387  0.00  0.00    +0.000 A 
ATOM      8  C   UNL     1      48.798   5.808  16.623  0.00  0.00    +0.000 A 
BRANCH   6   9
ATOM      9  C   UNL     1      51.359   3.565  18.344  0.00  0.00    +0.000 C 
BRANCH   9  10
ATOM     10  O   UNL     1      52.779   3.694  18.391  0.00  0.00    +0.000 OA
BRANCH  10  11
ATOM     11  C   UNL     1      53.487   2.650  17.860  0.00  0.00    +0.000 A 
ATOM     12  C   UNL     1      54.810   2.688  17.424  0.00  0.00    +0.000 A 
ATOM     13  C   UNL     1      55.405   1.540  16.902  0.00  0.00    +0.000 A 
ATOM     14  C   UNL     1      54.651   0.380  16.832  0.00  0.00    +0.000 A 
ATOM     15  N   UNL     1      53.368   0.301  17.242  0.00  0.00    +0.000 NA
ATOM     16  C   UNL     1      52.818   1.434  17.743  0.00  0.00    +0.000 A 
ENDBRANCH  10  11
ENDBRANCH   9  10
ENDBRANCH   6   9
ENDBRANCH   2   3
BRANCH   2  17
ATOM     17  N   UNL     1      47.842   7.508  14.525  0.00  0.00    +0.000 N 
ATOM     18  C   UNL     1      47.919   6.793  13.356  0.00  0.00    +0.000 C 
ATOM     19  O   UNL     1      48.993   6.432  12.881  0.00  0.00    +0.000 OA
ATOM     20  H   UNL     1      46.962   7.933  14.797  0.00  0.00    +0.000 HD
BRANCH  18  21
ATOM     21  C   UNL     1      46.652   6.421  12.714  0.00  0.00    +0.000 A 
ATOM     22  C   UNL     1      45.879   7.409  12.117  0.00  0.00    +0.000 A 
ATOM     23  S   UNL     1      44.434   6.825  11.429  0.00  0.00    +0.000 S 
ATOM     24  C   UNL     1      44.767   5.238  11.946  0.00  0.00    +0.000 A 
ATOM     25  N   UNL     1      43.882   4.232  11.721  0.00  0.00    +0.000 NA
ATOM     26  C   UNL     1      44.240   3.090  12.206  0.00  0.00    +0.000 A 
ATOM     27  N   UNL     1      45.413   2.859  12.879  0.00  0.00    +0.000 N 
ATOM     28  C   UNL     1      46.365   3.833  13.081  0.00  0.00    +0.000 A 
ATOM     29  O   UNL     1      47.445   3.576  13.601  0.00  0.00    +0.000 OA
ATOM     30  C   UNL     1      45.985   5.148  12.598  0.00  0.00    +0.000 A 
ATOM     31  H   UNL     1      45.640   1.934  13.211  0.00  0.00    +0.000 HD
ENDBRANCH  18  21
ENDBRANCH   2  17
TORSDOF 6
ENDMDL
MODEL 7
REMARK VINA RESULT:    -6.875      4.853      8.949
REMARK INTER + INTRA:          -9.747
REMARK INTER:                  -8.649
REMARK INTRA:                  -1.097
REMARK UNBOUND:                -0.460
REMARK  Name = 
REMARK  7 active torsions:
REMARK  status: ('A' for Active; 'I' for Inactive)
REMARK    1  A    between atoms: C_1  and  C_2
REMARK    2  A    between atoms: C_2  and  N_3
REMARK    3  A    between atoms: C_2  and  C_16
REMARK    4  A    between atoms: C_4  and  C_6
REMARK    5  A    between atoms: C_19  and  C_20
REMARK    6  A    between atoms: C_20  and  O_21
REMARK    7  A    between atoms: O_21  and  C_22
REMARK                            x       y       z     vdW  Elec       q    Type
REMARK                         _______ _______ _______ _____ _____    ______ ____
ROOT
ATOM      1  C   UNL     1      47.171   3.076  17.672  0.00  0.00    +0.000 C 
ATOM      2  C   UNL     1      48.317   4.021  17.302  0.00  0.00    +0.000 C 
ENDROOT
BRANCH   2   3
ATOM      3  C   UNL     1      49.702   3.417  17.458  0.00  0.00    +0.000 A 
ATOM      4  C   UNL     1      50.751   4.232  17.917  0.00  0.00    +0.000 A 
ATOM      5  C   UNL     1      52.042   3.723  18.079  0.00  0.00    +0.000 A 
ATOM      6  C   UNL     1      52.323   2.390  17.763  0.00  0.00    +0.000 A 
ATOM      7  C   UNL     1      51.282   1.571  17.309  0.00  0.00    +0.000 A 
ATOM      8  C   UNL     1      49.990   2.082  17.143  0.00  0.00    +0.000 A 
BRANCH   6   9
ATOM      9  C   UNL     1      53.727   1.852  17.877  0.00  0.00    +0.000 C 
BRANCH   9  10
ATOM     10  O   UNL     1      53.741   0.652  18.650  0.00  0.00    +0.000 OA
BRANCH  10  11
ATOM     11  C   UNL     1      54.207  -0.462  18.006  0.00  0.00    +0.000 A 
ATOM     12  C   UNL     1      54.635  -0.531  16.682  0.00  0.00    +0.000 A 
ATOM     13  C   UNL     1      55.086  -1.742  16.159  0.00  0.00    +0.000 A 
ATOM     14  C   UNL     1      55.094  -2.856  16.982  0.00  0.00    +0.000 A 
ATOM     15  N   UNL     1      54.686  -2.832  18.268  0.00  0.00    +0.000 NA
ATOM     16  C   UNL     1      54.253  -1.640  18.747  0.00  0.00    +0.000 A 
ENDBRANCH  10  11
ENDBRANCH   9  10
ENDBRANCH   6   9
ENDBRANCH   2   3
BRANCH   2  17
ATOM     17  N   UNL     1      48.142   4.529  15.952  0.00  0.00    +0.000 N 
ATOM     18  C   UNL     1      48.270   5.866  15.671  0.00  0.00    +0.000 C 
ATOM     19  O   UNL     1      48.599   6.684  16.528  0.00  0.00    +0.000 OA
ATOM     20  H   UNL     1      47.708   3.912  15.274  0.00  0.00    +0.000 HD
BRANCH  18  21
ATOM     21  C   UNL     1      48.049   6.283  14.282  0.00  0.00    +0.000 A 
ATOM     22  C   UNL     1      48.841   7.287  13.741  0.00  0.00    +0.000 A 
ATOM     23  S   UNL     1      48.456   7.670  12.126  0.00  0.00    +0.000 S 
ATOM     24  C   UNL     1      47.184   6.538  12.107  0.00  0.00    +0.000 A 
ATOM     25  N   UNL     1      46.394   6.397  11.010  0.00  0.00    +0.000 NA
ATOM     26  C   UNL     1      45.441   5.536  11.148  0.00  0.00    +0.000 A 
ATOM     27  N   UNL     1      45.219   4.790  12.279  0.00  0.00    +0.000 N 
ATOM     28  C   UNL     1      46.027   4.857  13.391  0.00  0.00    +0.000 A 
ATOM     29  O   UNL     1      45.863   4.109  14.349  0.00  0.00    +0.000 OA
ATOM     30  C   UNL     1      47.084   5.848  13.303  0.00  0.00    +0.000 A 
ATOM     31  H   UNL     1      44.468   4.117  12.309  0.00  0.00    +0.000 HD
ENDBRANCH  18  21
ENDBRANCH   2  17
TORSDOF 6
ENDMDL
MODEL 8
REMARK VINA RESULT:    -6.663      2.678      4.081
REMARK INTER + INTRA:          -9.460
REMARK INTER:                  -8.711
REMARK INTRA:                  -0.749
REMARK UNBOUND:                -0.460
REMARK  Name = 
REMARK  7 active torsions:
REMARK  status: ('A' for Active; 'I' for Inactive)
REMARK    1  A    between atoms: C_1  and  C_2
REMARK    2  A    between atoms: C_2  and  N_3
REMARK    3  A    between atoms: C_2  and  C_16
REMARK    4  A    between atoms: C_4  and  C_6
REMARK    5  A    between atoms: C_19  and  C_20
REMARK    6  A    between atoms: C_20  and  O_21
REMARK    7  A    between atoms: O_21  and  C_22
REMARK                            x       y       z     vdW  Elec       q    Type
REMARK                         _______ _______ _______ _____ _____    ______ ____
ROOT
ATOM      1  C   UNL     1      47.752   3.200  16.519  0.00  0.00    +0.000 C 
ATOM      2  C   UNL     1      47.933   4.519  15.765  0.00  0.00    +0.000 C 
ENDROOT
BRANCH   2   3
ATOM      3  C   UNL     1      47.083   4.648  14.512  0.00  0.00    +0.000 A 
ATOM      4  C   UNL     1      46.858   5.926  13.970  0.00  0.00    +0.000 A 
ATOM      5  C   UNL     1      46.085   6.095  12.819  0.00  0.00    +0.000 A 
ATOM      6  C   UNL     1      45.497   4.992  12.192  0.00  0.00    +0.000 A 
ATOM      7  C   UNL     1      45.720   3.716  12.723  0.00  0.00    +0.000 A 
ATOM      8  C   UNL     1      46.491   3.547  13.879  0.00  0.00    +0.000 A 
BRANCH   6   9
ATOM      9  C   UNL     1      44.612   5.175  10.985  0.00  0.00    +0.000 C 
BRANCH   9  10
ATOM     10  O   UNL     1      45.396   5.464   9.829  0.00  0.00    +0.000 OA
BRANCH  10  11
ATOM     11  C   UNL     1      45.681   4.396   9.023  0.00  0.00    +0.000 A 
ATOM     12  C   UNL     1      46.454   4.421   7.864  0.00  0.00    +0.000 A 
ATOM     13  C   UNL     1      46.661   3.247   7.139  0.00  0.00    +0.000 A 
ATOM     14  C   UNL     1      46.083   2.076   7.601  0.00  0.00    +0.000 A 
ATOM     15  N   UNL     1      45.328   2.009   8.717  0.00  0.00    +0.000 NA
ATOM     16  C   UNL     1      45.145   3.167   9.398  0.00  0.00    +0.000 A 
ENDBRANCH  10  11
ENDBRANCH   9  10
ENDBRANCH   6   9
ENDBRANCH   2   3
BRANCH   2  17
ATOM     17  N   UNL     1      47.696   5.648  16.648  0.00  0.00    +0.000 N 
ATOM     18  C   UNL     1      48.649   6.067  17.542  0.00  0.00    +0.000 C 
ATOM     19  O   UNL     1      49.764   5.554  17.595  0.00  0.00    +0.000 OA
ATOM     20  H   UNL     1      46.739   5.972  16.744  0.00  0.00    +0.000 HD
BRANCH  18  21
ATOM     21  C   UNL     1      48.303   7.200  18.408  0.00  0.00    +0.000 A 
ATOM     22  C   UNL     1      48.072   6.976  19.759  0.00  0.00    +0.000 A 
ATOM     23  S   UNL     1      47.667   8.384  20.628  0.00  0.00    +0.000 S 
ATOM     24  C   UNL     1      47.740   9.337  19.220  0.00  0.00    +0.000 A 
ATOM     25  N   UNL     1      47.440  10.662  19.259  0.00  0.00    +0.000 NA
ATOM     26  C   UNL     1      47.491  11.254  18.112  0.00  0.00    +0.000 A 
ATOM     27  N   UNL     1      47.835  10.643  16.932  0.00  0.00    +0.000 N 
ATOM     28  C   UNL     1      48.200   9.318  16.853  0.00  0.00    +0.000 A 
ATOM     29  O   UNL     1      48.595   8.823  15.802  0.00  0.00    +0.000 OA
ATOM     30  C   UNL     1      48.110   8.597  18.110  0.00  0.00    +0.000 A 
ATOM     31  H   UNL     1      47.877  11.173  16.075  0.00  0.00    +0.000 HD
ENDBRANCH  18  21
ENDBRANCH   2  17
TORSDOF 6
ENDMDL
MODEL 9
REMARK VINA RESULT:    -6.523      3.653      7.429
REMARK INTER + INTRA:          -9.272
REMARK INTER:                  -7.883
REMARK INTRA:                  -1.389
REMARK UNBOUND:                -0.460
REMARK  Name = 
REMARK  7 active torsions:
REMARK  status: ('A' for Active; 'I' for Inactive)
REMARK    1  A    between atoms: C_1  and  C_2
REMARK    2  A    between atoms: C_2  and  N_3
REMARK    3  A    between atoms: C_2  and  C_16
REMARK    4  A    between atoms: C_4  and  C_6
REMARK    5  A    between atoms: C_19  and  C_20
REMARK    6  A    between atoms: C_20  and  O_21
REMARK    7  A    between atoms: O_21  and  C_22
REMARK                            x       y       z     vdW  Elec       q    Type
REMARK                         _______ _______ _______ _____ _____    ______ ____
ROOT
ATOM      1  C   UNL     1      48.728  10.541  13.909  0.00  0.00    +0.000 C 
ATOM      2  C   UNL     1      48.750   9.013  13.823  0.00  0.00    +0.000 C 
ENDROOT
BRANCH   2   3
ATOM      3  C   UNL     1      49.223   8.320  15.089  0.00  0.00    +0.000 A 
ATOM      4  C   UNL     1      50.311   7.432  15.013  0.00  0.00    +0.000 A 
ATOM      5  C   UNL     1      50.783   6.773  16.150  0.00  0.00    +0.000 A 
ATOM      6  C   UNL     1      50.166   6.967  17.390  0.00  0.00    +0.000 A 
ATOM      7  C   UNL     1      49.085   7.853  17.474  0.00  0.00    +0.000 A 
ATOM      8  C   UNL     1      48.609   8.510  16.334  0.00  0.00    +0.000 A 
BRANCH   6   9
ATOM      9  C   UNL     1      50.633   6.211  18.609  0.00  0.00    +0.000 C 
BRANCH   9  10
ATOM     10  O   UNL     1      49.616   5.323  19.067  0.00  0.00    +0.000 OA
BRANCH  10  11
ATOM     11  C   UNL     1      49.295   4.299  18.218  0.00  0.00    +0.000 A 
ATOM     12  C   UNL     1      48.022   3.990  17.743  0.00  0.00    +0.000 A 
ATOM     13  C   UNL     1      47.845   2.911  16.877  0.00  0.00    +0.000 A 
ATOM     14  C   UNL     1      48.956   2.168  16.512  0.00  0.00    +0.000 A 
ATOM     15  N   UNL     1      50.204   2.433  16.951  0.00  0.00    +0.000 NA
ATOM     16  C   UNL     1      50.343   3.488  17.790  0.00  0.00    +0.000 A 
ENDBRANCH  10  11
ENDBRANCH   9  10
ENDBRANCH   6   9
ENDBRANCH   2   3
BRANCH   2  17
ATOM     17  N   UNL     1      47.446   8.505  13.432  0.00  0.00    +0.000 N 
ATOM     18  C   UNL     1      47.322   7.464  12.546  0.00  0.00    +0.000 C 
ATOM     19  O   UNL     1      48.300   6.873  12.094  0.00  0.00    +0.000 OA
ATOM     20  H   UNL     1      46.638   9.077  13.653  0.00  0.00    +0.000 HD
BRANCH  18  21
ATOM     21  C   UNL     1      45.961   7.042  12.197  0.00  0.00    +0.000 A 
ATOM     22  C   UNL     1      45.114   7.940  11.561  0.00  0.00    +0.000 A 
ATOM     23  S   UNL     1      43.566   7.308  11.234  0.00  0.00    +0.000 S 
ATOM     24  C   UNL     1      43.957   5.826  11.973  0.00  0.00    +0.000 A 
ATOM     25  N   UNL     1      43.032   4.836  12.082  0.00  0.00    +0.000 NA
ATOM     26  C   UNL     1      43.449   3.784  12.704  0.00  0.00    +0.000 A 
ATOM     27  N   UNL     1      44.715   3.625  13.210  0.00  0.00    +0.000 N 
ATOM     28  C   UNL     1      45.701   4.576  13.074  0.00  0.00    +0.000 A 
ATOM     29  O   UNL     1      46.849   4.368  13.451  0.00  0.00    +0.000 OA
ATOM     30  C   UNL     1      45.266   5.800  12.425  0.00  0.00    +0.000 A 
ATOM     31  H   UNL     1      44.980   2.765  13.666  0.00  0.00    +0.000 HD
ENDBRANCH  18  21
ENDBRANCH   2  17
TORSDOF 6
ENDMDL
