MODEL 1
REMARK VINA RESULT:    -7.211      0.000      0.000
REMARK INTER + INTRA:         -10.966
REMARK INTER:                 -10.162
REMARK INTRA:                  -0.805
REMARK UNBOUND:                -0.805
REMARK  Name = 
REMARK  9 active torsions:
REMARK  status: ('A' for Active; 'I' for Inactive)
REMARK    1  A    between atoms: C_1  and  C_2
REMARK    2  A    between atoms: C_2  and  C_3
REMARK    3  A    between atoms: C_3  and  N_4
REMARK    4  A    between atoms: C_5  and  C_7
REMARK    5  A    between atoms: N_10  and  C_11
REMARK    6  A    between atoms: C_11  and  C_12
REMARK    7  A    between atoms: C_12  and  C_13
REMARK    8  A    between atoms: C_16  and  O_17
REMARK    9  A    between atoms: O_17  and  C_18
REMARK                            x       y       z     vdW  Elec       q    Type
REMARK                         _______ _______ _______ _____ _____    ______ ____
ROOT
ATOM      1  C   UNL     1      46.964   5.539  13.486  0.00  0.00    +0.000 A 
ATOM      2  C   UNL     1      47.035   6.329  12.343  0.00  0.00    +0.000 A 
ATOM      3  C   UNL     1      46.134   6.100  11.309  0.00  0.00    +0.000 A 
ATOM      4  N   UNL     1      45.193   5.124  11.399  0.00  0.00    +0.000 N 
ATOM      5  C   UNL     1      45.174   4.301  12.476  0.00  0.00    +0.000 A 
ATOM      6  C   UNL     1      46.042   4.498  13.537  0.00  0.00    +0.000 A 
ENDROOT
BRANCH   1   8
ATOM      7  N   UNL     1      47.460   5.147  15.832  0.00  0.00    +0.000 N 
ATOM      8  C   UNL     1      47.857   5.735  14.654  0.00  0.00    +0.000 C 
ATOM      9  O   UNL     1      48.898   6.356  14.501  0.00  0.00    +0.000 OA
ATOM     10  H   UNL     1      46.633   4.571  15.886  0.00  0.00    +0.000 HD
BRANCH   7  11
ATOM     11  C   UNL     1      48.270   5.237  17.033  0.00  0.00    +0.000 C 
BRANCH  11  13
ATOM     12  C   UNL     1      48.412   2.721  16.745  0.00  0.00    +0.000 C 
ATOM     13  C   UNL     1      48.434   3.886  17.725  0.00  0.00    +0.000 C 
ENDBRANCH  11  13
ENDBRANCH   7  11
ENDBRANCH   1   8
BRANCH   4  14
ATOM     14  C   UNL     1      44.233   4.960  10.263  0.00  0.00    +0.000 C 
BRANCH  14  15
ATOM     15  C   UNL     1      43.994   3.500   9.876  0.00  0.00    +0.000 C 
BRANCH  15  16
ATOM     16  C   UNL     1      45.065   2.999   8.953  0.00  0.00    +0.000 A 
ATOM     17  C   UNL     1      45.709   3.850   8.050  0.00  0.00    +0.000 A 
ATOM     18  C   UNL     1      46.673   3.331   7.190  0.00  0.00    +0.000 A 
ATOM     19  C   UNL     1      46.951   1.977   7.249  0.00  0.00    +0.000 A 
ATOM     20  N   UNL     1      46.340   1.130   8.105  0.00  0.00    +0.000 NA
ATOM     21  C   UNL     1      45.427   1.655   8.943  0.00  0.00    +0.000 A 
BRANCH  19  22
ATOM     22  O   UNL     1      47.905   1.504   6.375  0.00  0.00    +0.000 OA
ATOM     23  C   UNL     1      48.040   2.316   5.212  0.00  0.00    +0.000 C 
ENDBRANCH  19  22
ENDBRANCH  15  16
ENDBRANCH  14  15
ENDBRANCH   4  14
TORSDOF 7
ENDMDL
MODEL 2
REMARK VINA RESULT:    -6.530      1.884      2.919
REMARK INTER + INTRA:         -10.006
REMARK INTER:                  -9.245
REMARK INTRA:                  -0.761
REMARK UNBOUND:                -0.805
REMARK  Name = 
REMARK  9 active torsions:
REMARK  status: ('A' for Active; 'I' for Inactive)
REMARK    1  A    between atoms: C_1  and  C_2
REMARK    2  A    between atoms: C_2  and  C_3
REMARK    3  A    between atoms: C_3  and  N_4
REMARK    4  A    between atoms: C_5  and  C_7
REMARK    5  A    between atoms: N_10  and  C_11
REMARK    6  A    between atoms: C_11  and  C_12
REMARK    7  A    between atoms: C_12  and  C_13
REMARK    8  A    between atoms: C_16  and  O_17
REMARK    9  A    between atoms: O_17  and  C_18
REMARK                            x       y       z     vdW  Elec       q    Type
REMARK                         _______ _______ _______ _____ _____    ______ ____
ROOT
ATOM      1  C   UNL     1      47.145   6.001  13.199  0.00  0.00    +0.000 A 
ATOM      2  C   UNL     1      46.735   4.771  13.702  0.00  0.00    +0.000 A 
ATOM      3  C   UNL     1      45.719   4.081  13.049  0.00  0.00    +0.000 A 
ATOM      4  N   UNL     1      45.130   4.586  11.935  0.00  0.00    +0.000 N 
ATOM      5  C   UNL     1      45.471   5.820  11.490  0.00  0.00    +0.000 A 
ATOM      6  C   UNL     1      46.486   6.540  12.099  0.00  0.00    +0.000 A 
ENDROOT
BRANCH   1   8
ATOM      7  N   UNL     1      48.447   8.050  13.293  0.00  0.00    +0.000 N 
ATOM      8  C   UNL     1      48.245   6.790  13.805  0.00  0.00    +0.000 C 
ATOM      9  O   UNL     1      48.870   6.308  14.737  0.00  0.00    +0.000 OA
ATOM     10  H   UNL     1      47.848   8.436  12.578  0.00  0.00    +0.000 HD
BRANCH   7  11
ATOM     11  C   UNL     1      49.469   8.930  13.831  0.00  0.00    +0.000 C 
BRANCH  11  13
ATOM     12  C   UNL     1      50.767   8.803  11.656  0.00  0.00    +0.000 C 
ATOM     13  C   UNL     1      50.829   8.708  13.173  0.00  0.00    +0.000 C 
ENDBRANCH  11  13
ENDBRANCH   7  11
ENDBRANCH   1   8
BRANCH   4  14
ATOM     14  C   UNL     1      44.070   3.770  11.264  0.00  0.00    +0.000 C 
BRANCH  14  15
ATOM     15  C   UNL     1      43.912   4.084   9.776  0.00  0.00    +0.000 C 
BRANCH  15  16
ATOM     16  C   UNL     1      44.975   3.408   8.961  0.00  0.00    +0.000 A 
ATOM     17  C   UNL     1      45.723   4.107   8.010  0.00  0.00    +0.000 A 
ATOM     18  C   UNL     1      46.676   3.429   7.255  0.00  0.00    +0.000 A 
ATOM     19  C   UNL     1      46.839   2.071   7.465  0.00  0.00    +0.000 A 
ATOM     20  N   UNL     1      46.127   1.368   8.370  0.00  0.00    +0.000 NA
ATOM     21  C   UNL     1      45.226   2.047   9.106  0.00  0.00    +0.000 A 
BRANCH  19  22
ATOM     22  O   UNL     1      47.786   1.436   6.691  0.00  0.00    +0.000 OA
ATOM     23  C   UNL     1      48.095   2.152   5.497  0.00  0.00    +0.000 C 
ENDBRANCH  19  22
ENDBRANCH  15  16
ENDBRANCH  14  15
ENDBRANCH   4  14
TORSDOF 7
ENDMDL
MODEL 3
REMARK VINA RESULT:    -6.198      1.737      2.082
REMARK INTER + INTRA:          -9.539
REMARK INTER:                  -8.750
REMARK INTRA:                  -0.788
REMARK UNBOUND:                -0.805
REMARK  Name = 
REMARK  9 active torsions:
REMARK  status: ('A' for Active; 'I' for Inactive)
REMARK    1  A    between atoms: C_1  and  C_2
REMARK    2  A    between atoms: C_2  and  C_3
REMARK    3  A    between atoms: C_3  and  N_4
REMARK    4  A    between atoms: C_5  and  C_7
REMARK    5  A    between atoms: N_10  and  C_11
REMARK    6  A    between atoms: C_11  and  C_12
REMARK    7  A    between atoms: C_12  and  C_13
REMARK    8  A    between atoms: C_16  and  O_17
REMARK    9  A    between atoms: O_17  and  C_18
REMARK                            x       y       z     vdW  Elec       q    Type
REMARK                         _______ _______ _______ _____ _____    ______ ____
ROOT
ATOM      1  C   UNL     1      46.685   6.858  12.942  0.00  0.00    +0.000 A 
ATOM      2  C   UNL     1      45.723   7.218  12.005  0.00  0.00    +0.000 A 
ATOM      3  C   UNL     1      44.883   6.237  11.491  0.00  0.00    +0.000 A 
ATOM      4  N   UNL     1      44.986   4.942  11.890  0.00  0.00    +0.000 N 
ATOM      5  C   UNL     1      45.976   4.575  12.740  0.00  0.00    +0.000 A 
ATOM      6  C   UNL     1      46.829   5.518  13.290  0.00  0.00    +0.000 A 
ENDROOT
BRANCH   1   8
ATOM      7  N   UNL     1      48.740   7.333  14.148  0.00  0.00    +0.000 N 
ATOM      8  C   UNL     1      47.600   7.840  13.573  0.00  0.00    +0.000 C 
ATOM      9  O   UNL     1      47.319   9.028  13.511  0.00  0.00    +0.000 OA
ATOM     10  H   UNL     1      48.969   6.350  14.099  0.00  0.00    +0.000 HD
BRANCH   7  11
ATOM     11  C   UNL     1      49.729   8.200  14.764  0.00  0.00    +0.000 C 
BRANCH  11  13
ATOM     12  C   UNL     1      48.930   7.182  16.945  0.00  0.00    +0.000 C 
ATOM     13  C   UNL     1      50.114   7.736  16.166  0.00  0.00    +0.000 C 
ENDBRANCH  11  13
ENDBRANCH   7  11
ENDBRANCH   1   8
BRANCH   4  14
ATOM     14  C   UNL     1      44.024   3.948  11.321  0.00  0.00    +0.000 C 
BRANCH  14  15
ATOM     15  C   UNL     1      43.784   4.124   9.821  0.00  0.00    +0.000 C 
BRANCH  15  16
ATOM     16  C   UNL     1      44.832   3.415   9.015  0.00  0.00    +0.000 A 
ATOM     17  C   UNL     1      45.589   4.084   8.050  0.00  0.00    +0.000 A 
ATOM     18  C   UNL     1      46.528   3.376   7.304  0.00  0.00    +0.000 A 
ATOM     19  C   UNL     1      46.668   2.019   7.537  0.00  0.00    +0.000 A 
ATOM     20  N   UNL     1      45.945   1.344   8.457  0.00  0.00    +0.000 NA
ATOM     21  C   UNL     1      45.059   2.052   9.183  0.00  0.00    +0.000 A 
BRANCH  19  22
ATOM     22  O   UNL     1      47.601   1.354   6.772  0.00  0.00    +0.000 OA
ATOM     23  C   UNL     1      48.092   2.142   5.690  0.00  0.00    +0.000 C 
ENDBRANCH  19  22
ENDBRANCH  15  16
ENDBRANCH  14  15
ENDBRANCH   4  14
TORSDOF 7
ENDMDL
MODEL 4
REMARK VINA RESULT:    -6.045      2.270      3.161
REMARK INTER + INTRA:          -9.324
REMARK INTER:                  -8.486
REMARK INTRA:                  -0.838
REMARK UNBOUND:                -0.805
REMARK  Name = 
REMARK  9 active torsions:
REMARK  status: ('A' for Active; 'I' for Inactive)
REMARK    1  A    between atoms: C_1  and  C_2
REMARK    2  A    between atoms: C_2  and  C_3
REMARK    3  A    between atoms: C_3  and  N_4
REMARK    4  A    between atoms: C_5  and  C_7
REMARK    5  A    between atoms: N_10  and  C_11
REMARK    6  A    between atoms: C_11  and  C_12
REMARK    7  A    between atoms: C_12  and  C_13
REMARK    8  A    between atoms: C_16  and  O_17
REMARK    9  A    between atoms: O_17  and  C_18
REMARK                            x       y       z     vdW  Elec       q    Type
REMARK                         _______ _______ _______ _____ _____    ______ ____
ROOT
ATOM      1  C   UNL     1      47.155   7.147  12.694  0.00  0.00    +0.000 A 
ATOM      2  C   UNL     1      46.030   7.526  11.969  0.00  0.00    +0.000 A 
ATOM      3  C   UNL     1      45.073   6.565  11.661  0.00  0.00    +0.000 A 
ATOM      4  N   UNL     1      45.220   5.273  12.055  0.00  0.00    +0.000 N 
ATOM      5  C   UNL     1      46.354   4.886  12.690  0.00  0.00    +0.000 A 
ATOM      6  C   UNL     1      47.329   5.809  13.031  0.00  0.00    +0.000 A 
ENDROOT
BRANCH   1   8
ATOM      7  N   UNL     1      49.488   7.615  13.185  0.00  0.00    +0.000 N 
ATOM      8  C   UNL     1      48.208   8.108  13.102  0.00  0.00    +0.000 C 
ATOM      9  O   UNL     1      47.897   9.275  13.295  0.00  0.00    +0.000 OA
ATOM     10  H   UNL     1      49.708   6.662  12.933  0.00  0.00    +0.000 HD
BRANCH   7  11
ATOM     11  C   UNL     1      50.609   8.469  13.537  0.00  0.00    +0.000 C 
BRANCH  11  13
ATOM     12  C   UNL     1      51.421   8.057  11.170  0.00  0.00    +0.000 C 
ATOM     13  C   UNL     1      51.297   9.059  12.309  0.00  0.00    +0.000 C 
ENDBRANCH  11  13
ENDBRANCH   7  11
ENDBRANCH   1   8
BRANCH   4  14
ATOM     14  C   UNL     1      44.132   4.303  11.719  0.00  0.00    +0.000 C 
BRANCH  14  15
ATOM     15  C   UNL     1      43.703   4.356  10.252  0.00  0.00    +0.000 C 
BRANCH  15  16
ATOM     16  C   UNL     1      44.661   3.602   9.378  0.00  0.00    +0.000 A 
ATOM     17  C   UNL     1      45.405   4.244   8.384  0.00  0.00    +0.000 A 
ATOM     18  C   UNL     1      46.256   3.496   7.575  0.00  0.00    +0.000 A 
ATOM     19  C   UNL     1      46.325   2.129   7.776  0.00  0.00    +0.000 A 
ATOM     20  N   UNL     1      45.614   1.480   8.723  0.00  0.00    +0.000 NA
ATOM     21  C   UNL     1      44.813   2.224   9.509  0.00  0.00    +0.000 A 
BRANCH  19  22
ATOM     22  O   UNL     1      47.173   1.426   6.949  0.00  0.00    +0.000 OA
ATOM     23  C   UNL     1      47.870   2.263   6.029  0.00  0.00    +0.000 C 
ENDBRANCH  19  22
ENDBRANCH  15  16
ENDBRANCH  14  15
ENDBRANCH   4  14
TORSDOF 7
ENDMDL
MODEL 5
REMARK VINA RESULT:    -5.853      1.511      2.418
REMARK INTER + INTRA:          -9.053
REMARK INTER:                  -8.436
REMARK INTRA:                  -0.617
REMARK UNBOUND:                -0.805
REMARK  Name = 
REMARK  9 active torsions:
REMARK  status: ('A' for Active; 'I' for Inactive)
REMARK    1  A    between atoms: C_1  and  C_2
REMARK    2  A    between atoms: C_2  and  C_3
REMARK    3  A    between atoms: C_3  and  N_4
REMARK    4  A    between atoms: C_5  and  C_7
REMARK    5  A    between atoms: N_10  and  C_11
REMARK    6  A    between atoms: C_11  and  C_12
REMARK    7  A    between atoms: C_12  and  C_13
REMARK    8  A    between atoms: C_16  and  O_17
REMARK    9  A    between atoms: O_17  and  C_18
REMARK                            x       y       z     vdW  Elec       q    Type
REMARK                         _______ _______ _______ _____ _____    ______ ____
ROOT
ATOM      1  C   UNL     1      47.759   5.423  15.062  0.00  0.00    +0.000 A 
ATOM      2  C   UNL     1      46.756   4.539  14.681  0.00  0.00    +0.000 A 
ATOM      3  C   UNL     1      46.032   4.800  13.522  0.00  0.00    +0.000 A 
ATOM      4  N   UNL     1      46.291   5.896  12.763  0.00  0.00    +0.000 N 
ATOM      5  C   UNL     1      47.212   6.802  13.177  0.00  0.00    +0.000 A 
ATOM      6  C   UNL     1      47.967   6.579  14.316  0.00  0.00    +0.000 A 
ENDROOT
BRANCH   1   8
ATOM      7  N   UNL     1      48.015   4.566  17.321  0.00  0.00    +0.000 N 
ATOM      8  C   UNL     1      48.607   5.208  16.259  0.00  0.00    +0.000 C 
ATOM      9  O   UNL     1      49.776   5.563  16.223  0.00  0.00    +0.000 OA
ATOM     10  H   UNL     1      47.070   4.215  17.270  0.00  0.00    +0.000 HD
BRANCH   7  11
ATOM     11  C   UNL     1      48.757   4.265  18.533  0.00  0.00    +0.000 C 
BRANCH  11  13
ATOM     12  C   UNL     1      47.195   6.091  19.345  0.00  0.00    +0.000 C 
ATOM     13  C   UNL     1      48.339   5.153  19.703  0.00  0.00    +0.000 C 
ENDBRANCH  11  13
ENDBRANCH   7  11
ENDBRANCH   1   8
BRANCH   4  14
ATOM     14  C   UNL     1      45.497   6.093  11.510  0.00  0.00    +0.000 C 
BRANCH  14  15
ATOM     15  C   UNL     1      44.602   4.902  11.166  0.00  0.00    +0.000 C 
BRANCH  15  16
ATOM     16  C   UNL     1      45.083   4.198   9.932  0.00  0.00    +0.000 A 
ATOM     17  C   UNL     1      44.960   2.813   9.785  0.00  0.00    +0.000 A 
ATOM     18  C   UNL     1      45.452   2.200   8.636  0.00  0.00    +0.000 A 
ATOM     19  C   UNL     1      46.063   2.989   7.678  0.00  0.00    +0.000 A 
ATOM     20  N   UNL     1      46.204   4.327   7.795  0.00  0.00    +0.000 NA
ATOM     21  C   UNL     1      45.702   4.903   8.904  0.00  0.00    +0.000 A 
BRANCH  19  22
ATOM     22  O   UNL     1      46.544   2.342   6.560  0.00  0.00    +0.000 OA
ATOM     23  C   UNL     1      47.963   2.209   6.565  0.00  0.00    +0.000 C 
ENDBRANCH  19  22
ENDBRANCH  15  16
ENDBRANCH  14  15
ENDBRANCH   4  14
TORSDOF 7
ENDMDL
MODEL 6
REMARK VINA RESULT:    -5.176      4.017      6.700
REMARK INTER + INTRA:          -8.099
REMARK INTER:                  -7.486
REMARK INTRA:                  -0.613
REMARK UNBOUND:                -0.805
REMARK  Name = 
REMARK  9 active torsions:
REMARK  status: ('A' for Active; 'I' for Inactive)
REMARK    1  A    between atoms: C_1  and  C_2
REMARK    2  A    between atoms: C_2  and  C_3
REMARK    3  A    between atoms: C_3  and  N_4
REMARK    4  A    between atoms: C_5  and  C_7
REMARK    5  A    between atoms: N_10  and  C_11
REMARK    6  A    between atoms: C_11  and  C_12
REMARK    7  A    between atoms: C_12  and  C_13
REMARK    8  A    between atoms: C_16  and  O_17
REMARK    9  A    between atoms: O_17  and  C_18
REMARK                            x       y       z     vdW  Elec       q    Type
REMARK                         _______ _______ _______ _____ _____    ______ ____
ROOT
ATOM      1  C   UNL     1      51.249   2.525  17.601  0.00  0.00    +0.000 A 
ATOM      2  C   UNL     1      51.123   3.902  17.750  0.00  0.00    +0.000 A 
ATOM      3  C   UNL     1      49.930   4.513  17.379  0.00  0.00    +0.000 A 
ATOM      4  N   UNL     1      48.895   3.789  16.879  0.00  0.00    +0.000 N 
ATOM      5  C   UNL     1      49.045   2.460  16.657  0.00  0.00    +0.000 A 
ATOM      6  C   UNL     1      50.209   1.805  17.023  0.00  0.00    +0.000 A 
ENDROOT
BRANCH   1   8
ATOM      7  N   UNL     1      52.742   0.631  17.307  0.00  0.00    +0.000 N 
ATOM      8  C   UNL     1      52.468   1.782  18.005  0.00  0.00    +0.000 C 
ATOM      9  O   UNL     1      53.174   2.247  18.888  0.00  0.00    +0.000 OA
ATOM     10  H   UNL     1      52.172   0.333  16.528  0.00  0.00    +0.000 HD
BRANCH   7  11
ATOM     11  C   UNL     1      53.926  -0.161  17.586  0.00  0.00    +0.000 C 
BRANCH  11  13
ATOM     12  C   UNL     1      55.645   0.614  15.891  0.00  0.00    +0.000 C 
ATOM     13  C   UNL     1      54.706  -0.504  16.320  0.00  0.00    +0.000 C 
ENDBRANCH  11  13
ENDBRANCH   7  11
ENDBRANCH   1   8
BRANCH   4  14
ATOM     14  C   UNL     1      47.629   4.509  16.535  0.00  0.00    +0.000 C 
BRANCH  14  15
ATOM     15  C   UNL     1      47.749   5.390  15.291  0.00  0.00    +0.000 C 
BRANCH  15  16
ATOM     16  C   UNL     1      46.879   4.883  14.179  0.00  0.00    +0.000 A 
ATOM     17  C   UNL     1      46.087   5.748  13.418  0.00  0.00    +0.000 A 
ATOM     18  C   UNL     1      45.271   5.226  12.418  0.00  0.00    +0.000 A 
ATOM     19  C   UNL     1      45.261   3.857  12.222  0.00  0.00    +0.000 A 
ATOM     20  N   UNL     1      46.008   2.996  12.946  0.00  0.00    +0.000 NA
ATOM     21  C   UNL     1      46.808   3.523  13.893  0.00  0.00    +0.000 A 
BRANCH  19  22
ATOM     22  O   UNL     1      44.433   3.381  11.229  0.00  0.00    +0.000 OA
ATOM     23  C   UNL     1      43.190   4.076  11.165  0.00  0.00    +0.000 C 
ENDBRANCH  19  22
ENDBRANCH  15  16
ENDBRANCH  14  15
ENDBRANCH   4  14
TORSDOF 7
ENDMDL
MODEL 7
REMARK VINA RESULT:    -5.117      2.387      4.082
REMARK INTER + INTRA:          -8.015
REMARK INTER:                  -7.342
REMARK INTRA:                  -0.673
REMARK UNBOUND:                -0.805
REMARK  Name = 
REMARK  9 active torsions:
REMARK  status: ('A' for Active; 'I' for Inactive)
REMARK    1  A    between atoms: C_1  and  C_2
REMARK    2  A    between atoms: C_2  and  C_3
REMARK    3  A    between atoms: C_3  and  N_4
REMARK    4  A    between atoms: C_5  and  C_7
REMARK    5  A    between atoms: N_10  and  C_11
REMARK    6  A    between atoms: C_11  and  C_12
REMARK    7  A    between atoms: C_12  and  C_13
REMARK    8  A    between atoms: C_16  and  O_17
REMARK    9  A    between atoms: O_17  and  C_18
REMARK                            x       y       z     vdW  Elec       q    Type
REMARK                         _______ _______ _______ _____ _____    ______ ____
ROOT
ATOM      1  C   UNL     1      48.234   4.829  16.912  0.00  0.00    +0.000 A 
ATOM      2  C   UNL     1      47.307   4.157  16.123  0.00  0.00    +0.000 A 
ATOM      3  C   UNL     1      47.009   4.656  14.860  0.00  0.00    +0.000 A 
ATOM      4  N   UNL     1      47.607   5.781  14.389  0.00  0.00    +0.000 N 
ATOM      5  C   UNL     1      48.449   6.483  15.186  0.00  0.00    +0.000 A 
ATOM      6  C   UNL     1      48.788   6.018  16.447  0.00  0.00    +0.000 A 
ENDROOT
BRANCH   1   8
ATOM      7  N   UNL     1      49.264   5.270  19.068  0.00  0.00    +0.000 N 
ATOM      8  C   UNL     1      48.643   4.352  18.255  0.00  0.00    +0.000 C 
ATOM      9  O   UNL     1      48.372   3.205  18.578  0.00  0.00    +0.000 OA
ATOM     10  H   UNL     1      49.390   6.231  18.785  0.00  0.00    +0.000 HD
BRANCH   7  11
ATOM     11  C   UNL     1      49.677   4.929  20.418  0.00  0.00    +0.000 C 
BRANCH  11  13
ATOM     12  C   UNL     1      51.896   5.898  19.664  0.00  0.00    +0.000 C 
ATOM     13  C   UNL     1      51.196   4.894  20.568  0.00  0.00    +0.000 C 
ENDBRANCH  11  13
ENDBRANCH   7  11
ENDBRANCH   1   8
BRANCH   4  14
ATOM     14  C   UNL     1      47.265   6.238  13.006  0.00  0.00    +0.000 C 
BRANCH  14  15
ATOM     15  C   UNL     1      45.770   6.156  12.692  0.00  0.00    +0.000 C 
BRANCH  15  16
ATOM     16  C   UNL     1      45.522   5.395  11.422  0.00  0.00    +0.000 A 
ATOM     17  C   UNL     1      44.911   4.138  11.430  0.00  0.00    +0.000 A 
ATOM     18  C   UNL     1      44.732   3.457  10.229  0.00  0.00    +0.000 A 
ATOM     19  C   UNL     1      45.183   4.047   9.062  0.00  0.00    +0.000 A 
ATOM     20  N   UNL     1      45.783   5.256   9.024  0.00  0.00    +0.000 NA
ATOM     21  C   UNL     1      45.927   5.908  10.193  0.00  0.00    +0.000 A 
BRANCH  19  22
ATOM     22  O   UNL     1      44.994   3.335   7.898  0.00  0.00    +0.000 OA
ATOM     23  C   UNL     1      46.124   3.384   7.031  0.00  0.00    +0.000 C 
ENDBRANCH  19  22
ENDBRANCH  15  16
ENDBRANCH  14  15
ENDBRANCH   4  14
TORSDOF 7
ENDMDL
MODEL 8
REMARK VINA RESULT:    -4.768      2.898      4.855
REMARK INTER + INTRA:          -7.523
REMARK INTER:                  -6.982
REMARK INTRA:                  -0.541
REMARK UNBOUND:                -0.805
REMARK  Name = 
REMARK  9 active torsions:
REMARK  status: ('A' for Active; 'I' for Inactive)
REMARK    1  A    between atoms: C_1  and  C_2
REMARK    2  A    between atoms: C_2  and  C_3
REMARK    3  A    between atoms: C_3  and  N_4
REMARK    4  A    between atoms: C_5  and  C_7
REMARK    5  A    between atoms: N_10  and  C_11
REMARK    6  A    between atoms: C_11  and  C_12
REMARK    7  A    between atoms: C_12  and  C_13
REMARK    8  A    between atoms: C_16  and  O_17
REMARK    9  A    between atoms: O_17  and  C_18
REMARK                            x       y       z     vdW  Elec       q    Type
REMARK                         _______ _______ _______ _____ _____    ______ ____
ROOT
ATOM      1  C   UNL     1      49.332   4.955  17.967  0.00  0.00    +0.000 A 
ATOM      2  C   UNL     1      49.076   5.905  16.985  0.00  0.00    +0.000 A 
ATOM      3  C   UNL     1      48.275   5.556  15.903  0.00  0.00    +0.000 A 
ATOM      4  N   UNL     1      47.743   4.311  15.794  0.00  0.00    +0.000 N 
ATOM      5  C   UNL     1      48.058   3.360  16.707  0.00  0.00    +0.000 A 
ATOM      6  C   UNL     1      48.840   3.663  17.809  0.00  0.00    +0.000 A 
ENDROOT
BRANCH   1   8
ATOM      7  N   UNL     1      51.091   4.311  19.515  0.00  0.00    +0.000 N 
ATOM      8  C   UNL     1      50.142   5.246  19.175  0.00  0.00    +0.000 C 
ATOM      9  O   UNL     1      49.958   6.300  19.765  0.00  0.00    +0.000 OA
ATOM     10  H   UNL     1      51.262   3.495  18.946  0.00  0.00    +0.000 HD
BRANCH   7  11
ATOM     11  C   UNL     1      51.969   4.504  20.655  0.00  0.00    +0.000 C 
BRANCH  11  13
ATOM     12  C   UNL     1      53.423   3.073  19.149  0.00  0.00    +0.000 C 
ATOM     13  C   UNL     1      53.341   3.867  20.445  0.00  0.00    +0.000 C 
ENDBRANCH  11  13
ENDBRANCH   7  11
ENDBRANCH   1   8
BRANCH   4  14
ATOM     14  C   UNL     1      46.861   4.019  14.621  0.00  0.00    +0.000 C 
BRANCH  14  15
ATOM     15  C   UNL     1      46.437   5.272  13.853  0.00  0.00    +0.000 C 
BRANCH  15  16
ATOM     16  C   UNL     1      45.912   4.924  12.491  0.00  0.00    +0.000 A 
ATOM     17  C   UNL     1      45.982   5.828  11.428  0.00  0.00    +0.000 A 
ATOM     18  C   UNL     1      45.451   5.472  10.191  0.00  0.00    +0.000 A 
ATOM     19  C   UNL     1      44.855   4.230  10.062  0.00  0.00    +0.000 A 
ATOM     20  N   UNL     1      44.766   3.339  11.072  0.00  0.00    +0.000 NA
ATOM     21  C   UNL     1      45.305   3.694  12.254  0.00  0.00    +0.000 A 
BRANCH  19  22
ATOM     22  O   UNL     1      44.335   3.920   8.824  0.00  0.00    +0.000 OA
ATOM     23  C   UNL     1      45.338   3.565   7.876  0.00  0.00    +0.000 C 
ENDBRANCH  19  22
ENDBRANCH  15  16
ENDBRANCH  14  15
ENDBRANCH   4  14
TORSDOF 7
ENDMDL
MODEL 9
REMARK VINA RESULT:    -4.431      4.634      8.032
REMARK INTER + INTRA:          -7.050
REMARK INTER:                  -6.458
REMARK INTRA:                  -0.591
REMARK UNBOUND:                -0.805
REMARK  Name = 
REMARK  9 active torsions:
REMARK  status: ('A' for Active; 'I' for Inactive)
REMARK    1  A    between atoms: C_1  and  C_2
REMARK    2  A    between atoms: C_2  and  C_3
REMARK    3  A    between atoms: C_3  and  N_4
REMARK    4  A    between atoms: C_5  and  C_7
REMARK    5  A    between atoms: N_10  and  C_11
REMARK    6  A    between atoms: C_11  and  C_12
REMARK    7  A    between atoms: C_12  and  C_13
REMARK    8  A    between atoms: C_16  and  O_17
REMARK    9  A    between atoms: O_17  and  C_18
REMARK                            x       y       z     vdW  Elec       q    Type
REMARK                         _______ _______ _______ _____ _____    ______ ____
ROOT
ATOM      1  C   UNL     1      52.488   1.841  17.734  0.00  0.00    +0.000 A 
ATOM      2  C   UNL     1      52.580   3.153  18.183  0.00  0.00    +0.000 A 
ATOM      3  C   UNL     1      51.439   3.948  18.181  0.00  0.00    +0.000 A 
ATOM      4  N   UNL     1      50.245   3.463  17.751  0.00  0.00    +0.000 N 
ATOM      5  C   UNL     1      50.171   2.211  17.236  0.00  0.00    +0.000 A 
ATOM      6  C   UNL     1      51.277   1.378  17.230  0.00  0.00    +0.000 A 
ENDROOT
BRANCH   1   8
ATOM      7  N   UNL     1      53.840   0.183  18.885  0.00  0.00    +0.000 N 
ATOM      8  C   UNL     1      53.642   0.908  17.735  0.00  0.00    +0.000 C 
ATOM      9  O   UNL     1      54.313   0.803  16.720  0.00  0.00    +0.000 OA
ATOM     10  H   UNL     1      53.205   0.244  19.669  0.00  0.00    +0.000 HD
BRANCH   7  11
ATOM     11  C   UNL     1      54.913  -0.789  18.992  0.00  0.00    +0.000 C 
BRANCH  11  13
ATOM     12  C   UNL     1      54.018  -3.160  18.909  0.00  0.00    +0.000 C 
ATOM     13  C   UNL     1      54.502  -2.021  19.795  0.00  0.00    +0.000 C 
ENDBRANCH  11  13
ENDBRANCH   7  11
ENDBRANCH   1   8
BRANCH   4  14
ATOM     14  C   UNL     1      49.052   4.364  17.812  0.00  0.00    +0.000 C 
BRANCH  14  15
ATOM     15  C   UNL     1      49.140   5.553  16.853  0.00  0.00    +0.000 C 
BRANCH  15  16
ATOM     16  C   UNL     1      48.215   5.379  15.685  0.00  0.00    +0.000 A 
ATOM     17  C   UNL     1      48.168   6.311  14.644  0.00  0.00    +0.000 A 
ATOM     18  C   UNL     1      47.270   6.123  13.597  0.00  0.00    +0.000 A 
ATOM     19  C   UNL     1      46.438   5.018  13.632  0.00  0.00    +0.000 A 
ATOM     20  N   UNL     1      46.455   4.106  14.626  0.00  0.00    +0.000 NA
ATOM     21  C   UNL     1      47.346   4.294  15.619  0.00  0.00    +0.000 A 
BRANCH  19  22
ATOM     22  O   UNL     1      45.558   4.875  12.581  0.00  0.00    +0.000 OA
ATOM     23  C   UNL     1      45.856   5.740  11.488  0.00  0.00    +0.000 C 
ENDBRANCH  19  22
ENDBRANCH  15  16
ENDBRANCH  14  15
ENDBRANCH   4  14
TORSDOF 7
ENDMDL
