MODEL 1
REMARK VINA RESULT:    -8.490      0.000      0.000
REMARK INTER + INTRA:         -13.155
REMARK INTER:                 -11.965
REMARK INTRA:                  -1.190
REMARK UNBOUND:                -1.190
REMARK  Name = 
REMARK  7 active torsions:
REMARK  status: ('A' for Active; 'I' for Inactive)
REMARK    1  A    between atoms: C_2  and  C_3
REMARK    2  A    between atoms: C_6  and  N_7
REMARK    3  A    between atoms: N_7  and  C_8
REMARK    4  A    between atoms: C_8  and  C_9
REMARK    5  A    between atoms: C_9  and  C_12
REMARK    6  A    between atoms: C_16  and  O_17
REMARK    7  A    between atoms: O_17  and  C_18
REMARK                            x       y       z     vdW  Elec       q    Type
REMARK                         _______ _______ _______ _____ _____    ______ ____
ROOT
ATOM      1  C   UNL     1      43.928   4.887  12.432  0.00  0.00    +0.000 C 
ATOM      2  F   UNL     1      43.048   5.538  13.249  0.00  0.00    +0.000 F 
ATOM      3  F   UNL     1      43.793   3.561  12.745  0.00  0.00    +0.000 F 
ENDROOT
BRANCH   1   4
ATOM      4  C   UNL     1      45.349   5.375  12.629  0.00  0.00    +0.000 A 
ATOM      5  C   UNL     1      45.950   6.232  11.695  0.00  0.00    +0.000 A 
ATOM      6  C   UNL     1      47.247   6.707  11.902  0.00  0.00    +0.000 A 
ATOM      7  C   UNL     1      47.968   6.329  13.038  0.00  0.00    +0.000 A 
ATOM      8  C   UNL     1      47.389   5.470  13.968  0.00  0.00    +0.000 A 
ATOM      9  C   UNL     1      46.086   5.002  13.766  0.00  0.00    +0.000 A 
BRANCH   8  10
ATOM     10  O   UNL     1      47.981   5.055  15.134  0.00  0.00    +0.000 OA
BRANCH  10  11
ATOM     11  C   UNL     1      47.320   4.075  15.963  0.00  0.00    +0.000 C 
ATOM     12  C   UNL     1      47.181   4.399  17.472  0.00  0.00    +0.000 C 
ATOM     13  C   UNL     1      47.619   2.958  17.784  0.00  0.00    +0.000 C 
ATOM     14  C   UNL     1      48.234   2.893  16.380  0.00  0.00    +0.000 C 
ENDBRANCH  10  11
ENDBRANCH   8  10
ENDBRANCH   1   4
BRANCH   1  15
ATOM     15  C   UNL     1      43.480   5.077  10.957  0.00  0.00    +0.000 C 
BRANCH  15  16
ATOM     16  N   UNL     1      43.465   3.819  10.186  0.00  0.00    +0.000 N 
ATOM     17  H   UNL     1      43.005   3.043  10.661  0.00  0.00    +0.000 HD
BRANCH  16  21
ATOM     18  C   UNL     1      46.541   2.528   7.600  0.00  0.00    +0.000 A 
ATOM     19  C   UNL     1      46.228   3.886   7.673  0.00  0.00    +0.000 A 
ATOM     20  C   UNL     1      45.226   4.332   8.546  0.00  0.00    +0.000 A 
ATOM     21  C   UNL     1      44.538   3.445   9.382  0.00  0.00    +0.000 A 
ATOM     22  C   UNL     1      44.861   2.083   9.287  0.00  0.00    +0.000 A 
ATOM     23  C   UNL     1      45.854   1.625   8.409  0.00  0.00    +0.000 A 
BRANCH  18  25
ATOM     24  N   UNL     1      48.356   1.701   5.939  0.00  0.00    +0.000 NA
ATOM     25  C   UNL     1      47.544   2.067   6.684  0.00  0.00    +0.000 C 
ENDBRANCH  18  25
ENDBRANCH  16  21
ENDBRANCH  15  16
ENDBRANCH   1  15
TORSDOF 7
ENDMDL
MODEL 2
REMARK VINA RESULT:    -7.577      1.621      3.381
REMARK INTER + INTRA:         -11.869
REMARK INTER:                 -10.880
REMARK INTRA:                  -0.989
REMARK UNBOUND:                -1.190
REMARK  Name = 
REMARK  7 active torsions:
REMARK  status: ('A' for Active; 'I' for Inactive)
REMARK    1  A    between atoms: C_2  and  C_3
REMARK    2  A    between atoms: C_6  and  N_7
REMARK    3  A    between atoms: N_7  and  C_8
REMARK    4  A    between atoms: C_8  and  C_9
REMARK    5  A    between atoms: C_9  and  C_12
REMARK    6  A    between atoms: C_16  and  O_17
REMARK    7  A    between atoms: O_17  and  C_18
REMARK                            x       y       z     vdW  Elec       q    Type
REMARK                         _______ _______ _______ _____ _____    ______ ____
ROOT
ATOM      1  C   UNL     1      43.663   4.821  12.439  0.00  0.00    +0.000 C 
ATOM      2  F   UNL     1      42.671   5.490  13.097  0.00  0.00    +0.000 F 
ATOM      3  F   UNL     1      43.418   3.494  12.676  0.00  0.00    +0.000 F 
ENDROOT
BRANCH   1   4
ATOM      4  C   UNL     1      45.039   5.239  12.916  0.00  0.00    +0.000 A 
ATOM      5  C   UNL     1      45.811   4.383  13.716  0.00  0.00    +0.000 A 
ATOM      6  C   UNL     1      47.093   4.760  14.123  0.00  0.00    +0.000 A 
ATOM      7  C   UNL     1      47.622   5.998  13.747  0.00  0.00    +0.000 A 
ATOM      8  C   UNL     1      46.862   6.862  12.964  0.00  0.00    +0.000 A 
ATOM      9  C   UNL     1      45.582   6.481  12.547  0.00  0.00    +0.000 A 
BRANCH   8  10
ATOM     10  O   UNL     1      47.282   8.085  12.504  0.00  0.00    +0.000 OA
BRANCH  10  11
ATOM     11  C   UNL     1      48.674   8.449  12.609  0.00  0.00    +0.000 C 
ATOM     12  C   UNL     1      49.071   9.880  12.162  0.00  0.00    +0.000 C 
ATOM     13  C   UNL     1      50.275   9.276  11.422  0.00  0.00    +0.000 C 
ATOM     14  C   UNL     1      49.546   7.926  11.436  0.00  0.00    +0.000 C 
ENDBRANCH  10  11
ENDBRANCH   8  10
ENDBRANCH   1   4
BRANCH   1  15
ATOM     15  C   UNL     1      43.511   5.067  10.913  0.00  0.00    +0.000 C 
BRANCH  15  16
ATOM     16  N   UNL     1      43.484   3.823  10.121  0.00  0.00    +0.000 N 
ATOM     17  H   UNL     1      42.997   3.050  10.573  0.00  0.00    +0.000 HD
BRANCH  16  21
ATOM     18  C   UNL     1      46.588   2.497   7.586  0.00  0.00    +0.000 A 
ATOM     19  C   UNL     1      46.277   3.856   7.642  0.00  0.00    +0.000 A 
ATOM     20  C   UNL     1      45.266   4.314   8.498  0.00  0.00    +0.000 A 
ATOM     21  C   UNL     1      44.566   3.438   9.334  0.00  0.00    +0.000 A 
ATOM     22  C   UNL     1      44.887   2.073   9.257  0.00  0.00    +0.000 A 
ATOM     23  C   UNL     1      45.888   1.604   8.397  0.00  0.00    +0.000 A 
BRANCH  18  25
ATOM     24  N   UNL     1      48.425   1.641   5.966  0.00  0.00    +0.000 NA
ATOM     25  C   UNL     1      47.601   2.024   6.687  0.00  0.00    +0.000 C 
ENDBRANCH  18  25
ENDBRANCH  16  21
ENDBRANCH  15  16
ENDBRANCH   1  15
TORSDOF 7
ENDMDL
MODEL 3
REMARK VINA RESULT:    -7.531      1.636      2.108
REMARK INTER + INTRA:         -11.803
REMARK INTER:                 -10.853
REMARK INTRA:                  -0.949
REMARK UNBOUND:                -1.190
REMARK  Name = 
REMARK  7 active torsions:
REMARK  status: ('A' for Active; 'I' for Inactive)
REMARK    1  A    between atoms: C_2  and  C_3
REMARK    2  A    between atoms: C_6  and  N_7
REMARK    3  A    between atoms: N_7  and  C_8
REMARK    4  A    between atoms: C_8  and  C_9
REMARK    5  A    between atoms: C_9  and  C_12
REMARK    6  A    between atoms: C_16  and  O_17
REMARK    7  A    between atoms: O_17  and  C_18
REMARK                            x       y       z     vdW  Elec       q    Type
REMARK                         _______ _______ _______ _____ _____    ______ ____
ROOT
ATOM      1  C   UNL     1      44.826   4.440  12.403  0.00  0.00    +0.000 C 
ATOM      2  F   UNL     1      43.928   4.501  13.432  0.00  0.00    +0.000 F 
ATOM      3  F   UNL     1      45.136   3.111  12.280  0.00  0.00    +0.000 F 
ENDROOT
BRANCH   1   4
ATOM      4  C   UNL     1      46.052   5.288  12.673  0.00  0.00    +0.000 A 
ATOM      5  C   UNL     1      46.496   6.226  11.730  0.00  0.00    +0.000 A 
ATOM      6  C   UNL     1      47.607   7.029  12.000  0.00  0.00    +0.000 A 
ATOM      7  C   UNL     1      48.296   6.904  13.210  0.00  0.00    +0.000 A 
ATOM      8  C   UNL     1      47.873   5.969  14.150  0.00  0.00    +0.000 A 
ATOM      9  C   UNL     1      46.755   5.171  13.884  0.00  0.00    +0.000 A 
BRANCH   8  10
ATOM     10  O   UNL     1      48.444   5.776  15.383  0.00  0.00    +0.000 OA
BRANCH  10  11
ATOM     11  C   UNL     1      49.267   6.811  15.960  0.00  0.00    +0.000 C 
ATOM     12  C   UNL     1      50.682   6.407  16.446  0.00  0.00    +0.000 C 
ATOM     13  C   UNL     1      50.436   7.221  17.727  0.00  0.00    +0.000 C 
ATOM     14  C   UNL     1      48.931   7.120  17.444  0.00  0.00    +0.000 C 
ENDBRANCH  10  11
ENDBRANCH   8  10
ENDBRANCH   1   4
BRANCH   1  15
ATOM     15  C   UNL     1      44.122   4.888  11.094  0.00  0.00    +0.000 C 
BRANCH  15  16
ATOM     16  N   UNL     1      43.757   3.762  10.212  0.00  0.00    +0.000 N 
ATOM     17  H   UNL     1      43.188   3.046  10.663  0.00  0.00    +0.000 HD
BRANCH  16  21
ATOM     18  C   UNL     1      46.635   2.435   7.424  0.00  0.00    +0.000 A 
ATOM     19  C   UNL     1      45.995   1.508   8.247  0.00  0.00    +0.000 A 
ATOM     20  C   UNL     1      45.019   1.931   9.160  0.00  0.00    +0.000 A 
ATOM     21  C   UNL     1      44.640   3.275   9.252  0.00  0.00    +0.000 A 
ATOM     22  C   UNL     1      45.301   4.193   8.423  0.00  0.00    +0.000 A 
ATOM     23  C   UNL     1      46.286   3.782   7.514  0.00  0.00    +0.000 A 
BRANCH  18  25
ATOM     24  N   UNL     1      48.478   1.662   5.769  0.00  0.00    +0.000 NA
ATOM     25  C   UNL     1      47.657   2.007   6.512  0.00  0.00    +0.000 C 
ENDBRANCH  18  25
ENDBRANCH  16  21
ENDBRANCH  15  16
ENDBRANCH   1  15
TORSDOF 7
ENDMDL
MODEL 4
REMARK VINA RESULT:    -7.415      2.174      4.123
REMARK INTER + INTRA:         -11.640
REMARK INTER:                 -10.902
REMARK INTRA:                  -0.738
REMARK UNBOUND:                -1.190
REMARK  Name = 
REMARK  7 active torsions:
REMARK  status: ('A' for Active; 'I' for Inactive)
REMARK    1  A    between atoms: C_2  and  C_3
REMARK    2  A    between atoms: C_6  and  N_7
REMARK    3  A    between atoms: N_7  and  C_8
REMARK    4  A    between atoms: C_8  and  C_9
REMARK    5  A    between atoms: C_9  and  C_12
REMARK    6  A    between atoms: C_16  and  O_17
REMARK    7  A    between atoms: O_17  and  C_18
REMARK                            x       y       z     vdW  Elec       q    Type
REMARK                         _______ _______ _______ _____ _____    ______ ____
ROOT
ATOM      1  C   UNL     1      43.829   4.678  12.454  0.00  0.00    +0.000 C 
ATOM      2  F   UNL     1      42.726   5.107  13.137  0.00  0.00    +0.000 F 
ATOM      3  F   UNL     1      43.990   3.369  12.824  0.00  0.00    +0.000 F 
ENDROOT
BRANCH   1   4
ATOM      4  C   UNL     1      45.052   5.513  12.773  0.00  0.00    +0.000 A 
ATOM      5  C   UNL     1      46.118   4.972  13.505  0.00  0.00    +0.000 A 
ATOM      6  C   UNL     1      47.258   5.737  13.765  0.00  0.00    +0.000 A 
ATOM      7  C   UNL     1      47.348   7.055  13.306  0.00  0.00    +0.000 A 
ATOM      8  C   UNL     1      46.292   7.608  12.589  0.00  0.00    +0.000 A 
ATOM      9  C   UNL     1      45.155   6.839  12.320  0.00  0.00    +0.000 A 
BRANCH   8  10
ATOM     10  O   UNL     1      46.275   8.874  12.060  0.00  0.00    +0.000 OA
BRANCH  10  11
ATOM     11  C   UNL     1      45.066   9.661  12.123  0.00  0.00    +0.000 C 
ATOM     12  C   UNL     1      44.111   9.594  10.904  0.00  0.00    +0.000 C 
ATOM     13  C   UNL     1      43.968  11.122  10.978  0.00  0.00    +0.000 C 
ATOM     14  C   UNL     1      45.278  11.158  11.775  0.00  0.00    +0.000 C 
ENDBRANCH  10  11
ENDBRANCH   8  10
ENDBRANCH   1   4
BRANCH   1  15
ATOM     15  C   UNL     1      43.522   4.708  10.932  0.00  0.00    +0.000 C 
BRANCH  15  16
ATOM     16  N   UNL     1      43.673   3.393  10.280  0.00  0.00    +0.000 N 
ATOM     17  H   UNL     1      43.428   2.601  10.874  0.00  0.00    +0.000 HD
BRANCH  16  21
ATOM     18  C   UNL     1      46.636   2.463   7.420  0.00  0.00    +0.000 A 
ATOM     19  C   UNL     1      46.231   3.788   7.587  0.00  0.00    +0.000 A 
ATOM     20  C   UNL     1      45.267   4.115   8.550  0.00  0.00    +0.000 A 
ATOM     21  C   UNL     1      44.709   3.140   9.384  0.00  0.00    +0.000 A 
ATOM     22  C   UNL     1      45.122   1.812   9.195  0.00  0.00    +0.000 A 
ATOM     23  C   UNL     1      46.077   1.473   8.227  0.00  0.00    +0.000 A 
BRANCH  18  25
ATOM     24  N   UNL     1      48.383   1.846   5.603  0.00  0.00    +0.000 NA
ATOM     25  C   UNL     1      47.599   2.124   6.413  0.00  0.00    +0.000 C 
ENDBRANCH  18  25
ENDBRANCH  16  21
ENDBRANCH  15  16
ENDBRANCH   1  15
TORSDOF 7
ENDMDL
MODEL 5
REMARK VINA RESULT:    -7.163      2.671      3.323
REMARK INTER + INTRA:         -11.284
REMARK INTER:                 -10.410
REMARK INTRA:                  -0.875
REMARK UNBOUND:                -1.190
REMARK  Name = 
REMARK  7 active torsions:
REMARK  status: ('A' for Active; 'I' for Inactive)
REMARK    1  A    between atoms: C_2  and  C_3
REMARK    2  A    between atoms: C_6  and  N_7
REMARK    3  A    between atoms: N_7  and  C_8
REMARK    4  A    between atoms: C_8  and  C_9
REMARK    5  A    between atoms: C_9  and  C_12
REMARK    6  A    between atoms: C_16  and  O_17
REMARK    7  A    between atoms: O_17  and  C_18
REMARK                            x       y       z     vdW  Elec       q    Type
REMARK                         _______ _______ _______ _____ _____    ______ ____
ROOT
ATOM      1  C   UNL     1      44.263   5.486  12.140  0.00  0.00    +0.000 C 
ATOM      2  F   UNL     1      43.382   5.283  13.164  0.00  0.00    +0.000 F 
ATOM      3  F   UNL     1      45.242   4.545  12.319  0.00  0.00    +0.000 F 
ENDROOT
BRANCH   1   4
ATOM      4  C   UNL     1      44.821   6.895  12.146  0.00  0.00    +0.000 A 
ATOM      5  C   UNL     1      44.196   7.917  11.416  0.00  0.00    +0.000 A 
ATOM      6  C   UNL     1      44.695   9.221  11.456  0.00  0.00    +0.000 A 
ATOM      7  C   UNL     1      45.829   9.525  12.216  0.00  0.00    +0.000 A 
ATOM      8  C   UNL     1      46.465   8.518  12.936  0.00  0.00    +0.000 A 
ATOM      9  C   UNL     1      45.960   7.214  12.905  0.00  0.00    +0.000 A 
BRANCH   8  10
ATOM     10  O   UNL     1      47.561   8.697  13.742  0.00  0.00    +0.000 OA
BRANCH  10  11
ATOM     11  C   UNL     1      48.876   8.784  13.153  0.00  0.00    +0.000 C 
ATOM     12  C   UNL     1      48.959   8.870  11.608  0.00  0.00    +0.000 C 
ATOM     13  C   UNL     1      50.094   7.834  11.647  0.00  0.00    +0.000 C 
ATOM     14  C   UNL     1      49.599   7.416  13.037  0.00  0.00    +0.000 C 
ENDBRANCH  10  11
ENDBRANCH   8  10
ENDBRANCH   1   4
BRANCH   1  15
ATOM     15  C   UNL     1      43.550   5.182  10.794  0.00  0.00    +0.000 C 
BRANCH  15  16
ATOM     16  N   UNL     1      43.718   3.786  10.348  0.00  0.00    +0.000 N 
ATOM     17  H   UNL     1      43.516   3.090  11.066  0.00  0.00    +0.000 HD
BRANCH  16  21
ATOM     18  C   UNL     1      46.597   2.530   7.528  0.00  0.00    +0.000 A 
ATOM     19  C   UNL     1      46.307   3.889   7.658  0.00  0.00    +0.000 A 
ATOM     20  C   UNL     1      45.372   4.322   8.608  0.00  0.00    +0.000 A 
ATOM     21  C   UNL     1      44.730   3.421   9.464  0.00  0.00    +0.000 A 
ATOM     22  C   UNL     1      45.028   2.058   9.312  0.00  0.00    +0.000 A 
ATOM     23  C   UNL     1      45.953   1.613   8.358  0.00  0.00    +0.000 A 
BRANCH  18  25
ATOM     24  N   UNL     1      48.290   1.720   5.737  0.00  0.00    +0.000 NA
ATOM     25  C   UNL     1      47.530   2.083   6.535  0.00  0.00    +0.000 C 
ENDBRANCH  18  25
ENDBRANCH  16  21
ENDBRANCH  15  16
ENDBRANCH   1  15
TORSDOF 7
ENDMDL
MODEL 6
REMARK VINA RESULT:    -6.888      3.080      7.370
REMARK INTER + INTRA:         -10.897
REMARK INTER:                  -9.752
REMARK INTRA:                  -1.145
REMARK UNBOUND:                -1.190
REMARK  Name = 
REMARK  7 active torsions:
REMARK  status: ('A' for Active; 'I' for Inactive)
REMARK    1  A    between atoms: C_2  and  C_3
REMARK    2  A    between atoms: C_6  and  N_7
REMARK    3  A    between atoms: N_7  and  C_8
REMARK    4  A    between atoms: C_8  and  C_9
REMARK    5  A    between atoms: C_9  and  C_12
REMARK    6  A    between atoms: C_16  and  O_17
REMARK    7  A    between atoms: O_17  and  C_18
REMARK                            x       y       z     vdW  Elec       q    Type
REMARK                         _______ _______ _______ _____ _____    ______ ____
ROOT
ATOM      1  C   UNL     1      44.816   6.542  11.910  0.00  0.00    +0.000 C 
ATOM      2  F   UNL     1      44.408   6.589  13.213  0.00  0.00    +0.000 F 
ATOM      3  F   UNL     1      44.088   7.511  11.273  0.00  0.00    +0.000 F 
ENDROOT
BRANCH   1   4
ATOM      4  C   UNL     1      44.598   5.173  11.299  0.00  0.00    +0.000 A 
ATOM      5  C   UNL     1      44.048   4.129  12.057  0.00  0.00    +0.000 A 
ATOM      6  C   UNL     1      43.816   2.879  11.477  0.00  0.00    +0.000 A 
ATOM      7  C   UNL     1      44.136   2.649  10.135  0.00  0.00    +0.000 A 
ATOM      8  C   UNL     1      44.693   3.673   9.375  0.00  0.00    +0.000 A 
ATOM      9  C   UNL     1      44.916   4.927   9.952  0.00  0.00    +0.000 A 
BRANCH   8  10
ATOM     10  O   UNL     1      45.018   3.580   8.045  0.00  0.00    +0.000 OA
BRANCH  10  11
ATOM     11  C   UNL     1      46.378   3.290   7.659  0.00  0.00    +0.000 C 
ATOM     12  C   UNL     1      46.703   3.293   6.143  0.00  0.00    +0.000 C 
ATOM     13  C   UNL     1      47.499   1.994   6.348  0.00  0.00    +0.000 C 
ATOM     14  C   UNL     1      46.714   1.775   7.648  0.00  0.00    +0.000 C 
ENDBRANCH  10  11
ENDBRANCH   8  10
ENDBRANCH   1   4
BRANCH   1  15
ATOM     15  C   UNL     1      46.314   6.945  11.837  0.00  0.00    +0.000 C 
BRANCH  15  16
ATOM     16  N   UNL     1      47.226   5.899  12.338  0.00  0.00    +0.000 N 
ATOM     17  H   UNL     1      47.203   5.033  11.799  0.00  0.00    +0.000 HD
BRANCH  16  21
ATOM     18  C   UNL     1      48.041   5.121  16.405  0.00  0.00    +0.000 A 
ATOM     19  C   UNL     1      48.584   6.254  15.798  0.00  0.00    +0.000 A 
ATOM     20  C   UNL     1      48.302   6.538  14.455  0.00  0.00    +0.000 A 
ATOM     21  C   UNL     1      47.453   5.722  13.699  0.00  0.00    +0.000 A 
ATOM     22  C   UNL     1      46.923   4.583  14.325  0.00  0.00    +0.000 A 
ATOM     23  C   UNL     1      47.209   4.283  15.664  0.00  0.00    +0.000 A 
BRANCH  18  25
ATOM     24  N   UNL     1      48.603   4.565  18.877  0.00  0.00    +0.000 NA
ATOM     25  C   UNL     1      48.356   4.812  17.770  0.00  0.00    +0.000 C 
ENDBRANCH  18  25
ENDBRANCH  16  21
ENDBRANCH  15  16
ENDBRANCH   1  15
TORSDOF 7
ENDMDL
MODEL 7
REMARK VINA RESULT:    -6.434      3.800      7.035
REMARK INTER + INTRA:         -10.257
REMARK INTER:                  -9.716
REMARK INTRA:                  -0.541
REMARK UNBOUND:                -1.190
REMARK  Name = 
REMARK  7 active torsions:
REMARK  status: ('A' for Active; 'I' for Inactive)
REMARK    1  A    between atoms: C_2  and  C_3
REMARK    2  A    between atoms: C_6  and  N_7
REMARK    3  A    between atoms: N_7  and  C_8
REMARK    4  A    between atoms: C_8  and  C_9
REMARK    5  A    between atoms: C_9  and  C_12
REMARK    6  A    between atoms: C_16  and  O_17
REMARK    7  A    between atoms: O_17  and  C_18
REMARK                            x       y       z     vdW  Elec       q    Type
REMARK                         _______ _______ _______ _____ _____    ______ ____
ROOT
ATOM      1  C   UNL     1      44.653   5.790  12.533  0.00  0.00    +0.000 C 
ATOM      2  F   UNL     1      45.659   5.546  13.425  0.00  0.00    +0.000 F 
ATOM      3  F   UNL     1      43.513   5.851  13.290  0.00  0.00    +0.000 F 
ENDROOT
BRANCH   1   4
ATOM      4  C   UNL     1      44.570   4.716  11.468  0.00  0.00    +0.000 A 
ATOM      5  C   UNL     1      43.973   3.477  11.743  0.00  0.00    +0.000 A 
ATOM      6  C   UNL     1      43.868   2.505  10.745  0.00  0.00    +0.000 A 
ATOM      7  C   UNL     1      44.364   2.749   9.461  0.00  0.00    +0.000 A 
ATOM      8  C   UNL     1      44.971   3.969   9.178  0.00  0.00    +0.000 A 
ATOM      9  C   UNL     1      45.067   4.947  10.173  0.00  0.00    +0.000 A 
BRANCH   8  10
ATOM     10  O   UNL     1      45.465   4.338   7.952  0.00  0.00    +0.000 OA
BRANCH  10  11
ATOM     11  C   UNL     1      46.646   3.692   7.433  0.00  0.00    +0.000 C 
ATOM     12  C   UNL     1      46.670   3.364   5.918  0.00  0.00    +0.000 C 
ATOM     13  C   UNL     1      47.230   1.975   6.265  0.00  0.00    +0.000 C 
ATOM     14  C   UNL     1      46.682   2.162   7.685  0.00  0.00    +0.000 C 
ENDBRANCH  10  11
ENDBRANCH   8  10
ENDBRANCH   1   4
BRANCH   1  15
ATOM     15  C   UNL     1      44.876   7.187  11.893  0.00  0.00    +0.000 C 
BRANCH  15  16
ATOM     16  N   UNL     1      45.799   8.042  12.663  0.00  0.00    +0.000 N 
ATOM     17  H   UNL     1      45.341   8.796  13.174  0.00  0.00    +0.000 HD
BRANCH  16  21
ATOM     18  C   UNL     1      49.695   9.130  11.458  0.00  0.00    +0.000 A 
ATOM     19  C   UNL     1      49.352   7.780  11.543  0.00  0.00    +0.000 A 
ATOM     20  C   UNL     1      48.055   7.404  11.917  0.00  0.00    +0.000 A 
ATOM     21  C   UNL     1      47.067   8.358  12.185  0.00  0.00    +0.000 A 
ATOM     22  C   UNL     1      47.434   9.711  12.103  0.00  0.00    +0.000 A 
ATOM     23  C   UNL     1      48.731  10.097  11.741  0.00  0.00    +0.000 A 
BRANCH  18  25
ATOM     24  N   UNL     1      52.115   9.822  10.826  0.00  0.00    +0.000 NA
ATOM     25  C   UNL     1      51.031   9.515  11.106  0.00  0.00    +0.000 C 
ENDBRANCH  18  25
ENDBRANCH  16  21
ENDBRANCH  15  16
ENDBRANCH   1  15
TORSDOF 7
ENDMDL
MODEL 8
REMARK VINA RESULT:    -6.423      3.856      7.837
REMARK INTER + INTRA:         -10.242
REMARK INTER:                  -9.603
REMARK INTRA:                  -0.639
REMARK UNBOUND:                -1.190
REMARK  Name = 
REMARK  7 active torsions:
REMARK  status: ('A' for Active; 'I' for Inactive)
REMARK    1  A    between atoms: C_2  and  C_3
REMARK    2  A    between atoms: C_6  and  N_7
REMARK    3  A    between atoms: N_7  and  C_8
REMARK    4  A    between atoms: C_8  and  C_9
REMARK    5  A    between atoms: C_9  and  C_12
REMARK    6  A    between atoms: C_16  and  O_17
REMARK    7  A    between atoms: O_17  and  C_18
REMARK                            x       y       z     vdW  Elec       q    Type
REMARK                         _______ _______ _______ _____ _____    ______ ____
ROOT
ATOM      1  C   UNL     1      46.676   5.314  13.601  0.00  0.00    +0.000 C 
ATOM      2  F   UNL     1      46.721   6.615  14.018  0.00  0.00    +0.000 F 
ATOM      3  F   UNL     1      47.816   5.138  12.862  0.00  0.00    +0.000 F 
ENDROOT
BRANCH   1   4
ATOM      4  C   UNL     1      45.426   5.022  12.796  0.00  0.00    +0.000 A 
ATOM      5  C   UNL     1      44.322   5.884  12.849  0.00  0.00    +0.000 A 
ATOM      6  C   UNL     1      43.186   5.628  12.077  0.00  0.00    +0.000 A 
ATOM      7  C   UNL     1      43.131   4.503  11.248  0.00  0.00    +0.000 A 
ATOM      8  C   UNL     1      44.215   3.632  11.195  0.00  0.00    +0.000 A 
ATOM      9  C   UNL     1      45.357   3.895  11.960  0.00  0.00    +0.000 A 
BRANCH   8  10
ATOM     10  O   UNL     1      44.294   2.518  10.398  0.00  0.00    +0.000 OA
BRANCH  10  11
ATOM     11  C   UNL     1      44.517   2.667   8.980  0.00  0.00    +0.000 C 
ATOM     12  C   UNL     1      45.782   1.999   8.385  0.00  0.00    +0.000 C 
ATOM     13  C   UNL     1      46.045   3.287   7.589  0.00  0.00    +0.000 C 
ATOM     14  C   UNL     1      45.147   4.030   8.588  0.00  0.00    +0.000 C 
ENDBRANCH  10  11
ENDBRANCH   8  10
ENDBRANCH   1   4
BRANCH   1  15
ATOM     15  C   UNL     1      46.764   4.384  14.842  0.00  0.00    +0.000 C 
BRANCH  15  16
ATOM     16  N   UNL     1      47.312   5.055  16.036  0.00  0.00    +0.000 N 
ATOM     17  H   UNL     1      47.200   6.069  16.035  0.00  0.00    +0.000 HD
BRANCH  16  21
ATOM     18  C   UNL     1      50.900   3.546  17.670  0.00  0.00    +0.000 A 
ATOM     19  C   UNL     1      50.764   4.918  17.458  0.00  0.00    +0.000 A 
ATOM     20  C   UNL     1      49.569   5.436  16.940  0.00  0.00    +0.000 A 
ATOM     21  C   UNL     1      48.479   4.608  16.651  0.00  0.00    +0.000 A 
ATOM     22  C   UNL     1      48.638   3.229  16.862  0.00  0.00    +0.000 A 
ATOM     23  C   UNL     1      49.833   2.700  17.370  0.00  0.00    +0.000 A 
BRANCH  18  25
ATOM     24  N   UNL     1      53.134   2.586  18.576  0.00  0.00    +0.000 NA
ATOM     25  C   UNL     1      52.134   3.011  18.170  0.00  0.00    +0.000 C 
ENDBRANCH  18  25
ENDBRANCH  16  21
ENDBRANCH  15  16
ENDBRANCH   1  15
TORSDOF 7
ENDMDL
MODEL 9
REMARK VINA RESULT:    -6.162      4.154      7.898
REMARK INTER + INTRA:          -9.875
REMARK INTER:                  -9.026
REMARK INTRA:                  -0.849
REMARK UNBOUND:                -1.190
REMARK  Name = 
REMARK  7 active torsions:
REMARK  status: ('A' for Active; 'I' for Inactive)
REMARK    1  A    between atoms: C_2  and  C_3
REMARK    2  A    between atoms: C_6  and  N_7
REMARK    3  A    between atoms: N_7  and  C_8
REMARK    4  A    between atoms: C_8  and  C_9
REMARK    5  A    between atoms: C_9  and  C_12
REMARK    6  A    between atoms: C_16  and  O_17
REMARK    7  A    between atoms: O_17  and  C_18
REMARK                            x       y       z     vdW  Elec       q    Type
REMARK                         _______ _______ _______ _____ _____    ______ ____
ROOT
ATOM      1  C   UNL     1      46.551   6.870  11.787  0.00  0.00    +0.000 C 
ATOM      2  F   UNL     1      46.032   8.134  11.780  0.00  0.00    +0.000 F 
ATOM      3  F   UNL     1      47.753   6.975  11.139  0.00  0.00    +0.000 F 
ENDROOT
BRANCH   1   4
ATOM      4  C   UNL     1      45.626   5.877  11.112  0.00  0.00    +0.000 A 
ATOM      5  C   UNL     1      44.505   5.370  11.785  0.00  0.00    +0.000 A 
ATOM      6  C   UNL     1      43.636   4.483  11.145  0.00  0.00    +0.000 A 
ATOM      7  C   UNL     1      43.877   4.080   9.828  0.00  0.00    +0.000 A 
ATOM      8  C   UNL     1      44.993   4.566   9.152  0.00  0.00    +0.000 A 
ATOM      9  C   UNL     1      45.857   5.463   9.789  0.00  0.00    +0.000 A 
BRANCH   8  10
ATOM     10  O   UNL     1      45.317   4.272   7.852  0.00  0.00    +0.000 OA
BRANCH  10  11
ATOM     11  C   UNL     1      46.511   3.513   7.566  0.00  0.00    +0.000 C 
ATOM     12  C   UNL     1      46.727   3.052   6.102  0.00  0.00    +0.000 C 
ATOM     13  C   UNL     1      47.130   1.667   6.635  0.00  0.00    +0.000 C 
ATOM     14  C   UNL     1      46.399   2.011   7.939  0.00  0.00    +0.000 C 
ENDBRANCH  10  11
ENDBRANCH   8  10
ENDBRANCH   1   4
BRANCH   1  15
ATOM     15  C   UNL     1      46.836   6.450  13.254  0.00  0.00    +0.000 C 
BRANCH  15  16
ATOM     16  N   UNL     1      47.341   7.556  14.090  0.00  0.00    +0.000 N 
ATOM     17  H   UNL     1      46.986   8.475  13.827  0.00  0.00    +0.000 HD
BRANCH  16  21
ATOM     18  C   UNL     1      51.303   7.299  15.524  0.00  0.00    +0.000 A 
ATOM     19  C   UNL     1      51.029   8.063  14.390  0.00  0.00    +0.000 A 
ATOM     20  C   UNL     1      49.715   8.178  13.917  0.00  0.00    +0.000 A 
ATOM     21  C   UNL     1      48.646   7.563  14.576  0.00  0.00    +0.000 A 
ATOM     22  C   UNL     1      48.942   6.791  15.711  0.00  0.00    +0.000 A 
ATOM     23  C   UNL     1      50.254   6.660  16.186  0.00  0.00    +0.000 A 
BRANCH  18  25
ATOM     24  N   UNL     1      53.744   7.033  16.362  0.00  0.00    +0.000 NA
ATOM     25  C   UNL     1      52.652   7.155  15.990  0.00  0.00    +0.000 C 
ENDBRANCH  18  25
ENDBRANCH  16  21
ENDBRANCH  15  16
ENDBRANCH   1  15
TORSDOF 7
ENDMDL
