MODEL 1
REMARK VINA RESULT:    -8.078      0.000      0.000
REMARK INTER + INTRA:         -12.146
REMARK INTER:                 -11.147
REMARK INTRA:                  -0.999
REMARK UNBOUND:                -0.999
REMARK  Name = 
REMARK  8 active torsions:
REMARK  status: ('A' for Active; 'I' for Inactive)
REMARK    1  A    between atoms: C_1  and  N_2
REMARK    2  A    between atoms: N_2  and  C_3
REMARK    3  A    between atoms: C_3  and  C_4
REMARK    4  A    between atoms: C_7  and  C_8
REMARK    5  A    between atoms: C_8  and  O_9
REMARK    6  A    between atoms: C_8  and  C_10
REMARK    7  A    between atoms: C_10  and  C_11
REMARK    8  A    between atoms: C_18  and  C_20
REMARK                            x       y       z     vdW  Elec       q    Type
REMARK                         _______ _______ _______ _____ _____    ______ ____
ROOT
ATOM      1  C   UNL     1      47.440   6.158  12.440  0.00  0.00    +0.000 C 
ENDROOT
BRANCH   1   2
ATOM      2  C   UNL     1      47.531   5.551  13.805  0.00  0.00    +0.000 A 
ATOM      3  C   UNL     1      48.093   6.263  14.860  0.00  0.00    +0.000 A 
ATOM      4  C   UNL     1      48.105   5.700  16.127  0.00  0.00    +0.000 A 
ATOM      5  C   UNL     1      47.543   4.438  16.312  0.00  0.00    +0.000 A 
ATOM      6  N   UNL     1      47.021   3.717  15.291  0.00  0.00    +0.000 NA
ATOM      7  C   UNL     1      47.028   4.280  14.065  0.00  0.00    +0.000 A 
BRANCH   5   8
ATOM      8  C   UNL     1      47.430   3.849  17.706  0.00  0.00    +0.000 C 
BRANCH   8   9
ATOM      9  O   UNL     1      46.498   2.763  17.753  0.00  0.00    +0.000 OA
ATOM     10  H   UNL     1      46.627   2.286  18.588  0.00  0.00    +0.000 HD
ENDBRANCH   8   9
BRANCH   8  11
ATOM     11  C   UNL     1      48.774   3.309  18.216  0.00  0.00    +0.000 C 
BRANCH  11  12
ATOM     12  C   UNL     1      49.913   3.300  17.184  0.00  0.00    +0.000 C 
ATOM     13  C   UNL     1      50.189   1.876  16.702  0.00  0.00    +0.000 C 
ATOM     14  C   UNL     1      51.193   1.365  17.713  0.00  0.00    +0.000 C 
ATOM     15  N   UNL     1      52.082   2.509  17.932  0.00  0.00    +0.000 NA
ATOM     16  C   UNL     1      51.261   3.723  17.788  0.00  0.00    +0.000 C 
ATOM     17  H   UNL     1      52.790   2.513  17.199  0.00  0.00    +0.000 HD
ENDBRANCH  11  12
ENDBRANCH   8  11
ENDBRANCH   5   8
ENDBRANCH   1   2
BRANCH   1  19
ATOM     18  C   UNL     1      46.745   8.603  12.303  0.00  0.00    +0.000 C 
ATOM     19  N   UNL     1      46.409   7.181  12.224  0.00  0.00    +0.000 N 
ATOM     20  C   UNL     1      45.123   6.889  11.739  0.00  0.00    +0.000 C 
ATOM     21  O   UNL     1      44.350   7.792  11.418  0.00  0.00    +0.000 OA
BRANCH  20  22
ATOM     22  C   UNL     1      44.687   5.490  11.653  0.00  0.00    +0.000 A 
ATOM     23  C   UNL     1      43.935   4.838  12.615  0.00  0.00    +0.000 A 
ATOM     24  S   UNL     1      43.540   3.226  12.215  0.00  0.00    +0.000 S 
ATOM     25  C   UNL     1      44.227   3.396  10.671  0.00  0.00    +0.000 A 
ATOM     26  N   UNL     1      44.127   2.392   9.754  0.00  0.00    +0.000 NA
ATOM     27  C   UNL     1      44.630   2.686   8.601  0.00  0.00    +0.000 A 
ATOM     28  N   UNL     1      45.255   3.867   8.296  0.00  0.00    +0.000 N 
ATOM     29  C   UNL     1      45.502   4.845   9.234  0.00  0.00    +0.000 A 
ATOM     30  O   UNL     1      46.281   5.766   8.991  0.00  0.00    +0.000 OA
ATOM     31  C   UNL     1      44.842   4.624  10.504  0.00  0.00    +0.000 A 
ATOM     32  H   UNL     1      45.690   3.998   7.394  0.00  0.00    +0.000 HD
ENDBRANCH  20  22
ENDBRANCH   1  19
TORSDOF 7
ENDMDL
MODEL 2
REMARK VINA RESULT:    -7.828      1.414      1.948
REMARK INTER + INTRA:         -11.801
REMARK INTER:                 -10.618
REMARK INTRA:                  -1.183
REMARK UNBOUND:                -0.999
REMARK  Name = 
REMARK  8 active torsions:
REMARK  status: ('A' for Active; 'I' for Inactive)
REMARK    1  A    between atoms: C_1  and  N_2
REMARK    2  A    between atoms: N_2  and  C_3
REMARK    3  A    between atoms: C_3  and  C_4
REMARK    4  A    between atoms: C_7  and  C_8
REMARK    5  A    between atoms: C_8  and  O_9
REMARK    6  A    between atoms: C_8  and  C_10
REMARK    7  A    between atoms: C_10  and  C_11
REMARK    8  A    between atoms: C_18  and  C_20
REMARK                            x       y       z     vdW  Elec       q    Type
REMARK                         _______ _______ _______ _____ _____    ______ ____
ROOT
ATOM      1  C   UNL     1      47.293   6.208  12.321  0.00  0.00    +0.000 C 
ENDROOT
BRANCH   1   2
ATOM      2  C   UNL     1      47.397   5.628  13.696  0.00  0.00    +0.000 A 
ATOM      3  C   UNL     1      48.119   6.283  14.688  0.00  0.00    +0.000 A 
ATOM      4  C   UNL     1      48.144   5.756  15.969  0.00  0.00    +0.000 A 
ATOM      5  C   UNL     1      47.435   4.585  16.233  0.00  0.00    +0.000 A 
ATOM      6  N   UNL     1      46.753   3.916  15.273  0.00  0.00    +0.000 NA
ATOM      7  C   UNL     1      46.750   4.443  14.031  0.00  0.00    +0.000 A 
BRANCH   5   8
ATOM      8  C   UNL     1      47.341   4.051  17.650  0.00  0.00    +0.000 C 
BRANCH   8   9
ATOM      9  O   UNL     1      46.716   2.764  17.696  0.00  0.00    +0.000 OA
ATOM     10  H   UNL     1      45.761   2.883  17.574  0.00  0.00    +0.000 HD
ENDBRANCH   8   9
BRANCH   8  11
ATOM     11  C   UNL     1      48.723   3.902  18.303  0.00  0.00    +0.000 C 
BRANCH  11  12
ATOM     12  C   UNL     1      48.837   4.451  19.734  0.00  0.00    +0.000 C 
ATOM     13  C   UNL     1      47.943   5.678  19.911  0.00  0.00    +0.000 C 
ATOM     14  C   UNL     1      48.841   6.817  19.476  0.00  0.00    +0.000 C 
ATOM     15  N   UNL     1      50.145   6.471  20.046  0.00  0.00    +0.000 NA
ATOM     16  C   UNL     1      50.238   5.001  20.047  0.00  0.00    +0.000 C 
ATOM     17  H   UNL     1      50.170   6.792  21.014  0.00  0.00    +0.000 HD
ENDBRANCH  11  12
ENDBRANCH   8  11
ENDBRANCH   5   8
ENDBRANCH   1   2
BRANCH   1  19
ATOM     18  C   UNL     1      46.559   8.639  12.147  0.00  0.00    +0.000 C 
ATOM     19  N   UNL     1      46.247   7.211  12.089  0.00  0.00    +0.000 N 
ATOM     20  C   UNL     1      44.965   6.892  11.607  0.00  0.00    +0.000 C 
ATOM     21  O   UNL     1      44.179   7.777  11.272  0.00  0.00    +0.000 OA
BRANCH  20  22
ATOM     22  C   UNL     1      44.552   5.484  11.541  0.00  0.00    +0.000 A 
ATOM     23  C   UNL     1      43.767   4.849  12.487  0.00  0.00    +0.000 A 
ATOM     24  S   UNL     1      43.410   3.221  12.115  0.00  0.00    +0.000 S 
ATOM     25  C   UNL     1      44.163   3.358  10.599  0.00  0.00    +0.000 A 
ATOM     26  N   UNL     1      44.118   2.328   9.706  0.00  0.00    +0.000 NA
ATOM     27  C   UNL     1      44.668   2.597   8.569  0.00  0.00    +0.000 A 
ATOM     28  N   UNL     1      45.290   3.778   8.259  0.00  0.00    +0.000 N 
ATOM     29  C   UNL     1      45.483   4.785   9.179  0.00  0.00    +0.000 A 
ATOM     30  O   UNL     1      46.259   5.710   8.945  0.00  0.00    +0.000 OA
ATOM     31  C   UNL     1      44.769   4.590  10.425  0.00  0.00    +0.000 A 
ATOM     32  H   UNL     1      45.763   3.891   7.374  0.00  0.00    +0.000 HD
ENDBRANCH  20  22
ENDBRANCH   1  19
TORSDOF 7
ENDMDL
MODEL 3
REMARK VINA RESULT:    -7.668      1.883      2.762
REMARK INTER + INTRA:         -11.580
REMARK INTER:                 -10.225
REMARK INTRA:                  -1.355
REMARK UNBOUND:                -0.999
REMARK  Name = 
REMARK  8 active torsions:
REMARK  status: ('A' for Active; 'I' for Inactive)
REMARK    1  A    between atoms: C_1  and  N_2
REMARK    2  A    between atoms: N_2  and  C_3
REMARK    3  A    between atoms: C_3  and  C_4
REMARK    4  A    between atoms: C_7  and  C_8
REMARK    5  A    between atoms: C_8  and  O_9
REMARK    6  A    between atoms: C_8  and  C_10
REMARK    7  A    between atoms: C_10  and  C_11
REMARK    8  A    between atoms: C_18  and  C_20
REMARK                            x       y       z     vdW  Elec       q    Type
REMARK                         _______ _______ _______ _____ _____    ______ ____
ROOT
ATOM      1  C   UNL     1      47.405   6.321  12.537  0.00  0.00    +0.000 C 
ENDROOT
BRANCH   1   2
ATOM      2  C   UNL     1      47.486   5.680  13.887  0.00  0.00    +0.000 A 
ATOM      3  C   UNL     1      48.265   6.243  14.893  0.00  0.00    +0.000 A 
ATOM      4  C   UNL     1      48.269   5.664  16.151  0.00  0.00    +0.000 A 
ATOM      5  C   UNL     1      47.484   4.534  16.379  0.00  0.00    +0.000 A 
ATOM      6  N   UNL     1      46.744   3.954  15.404  0.00  0.00    +0.000 NA
ATOM      7  C   UNL     1      46.763   4.530  14.185  0.00  0.00    +0.000 A 
BRANCH   5   8
ATOM      8  C   UNL     1      47.371   3.951  17.776  0.00  0.00    +0.000 C 
BRANCH   8   9
ATOM      9  O   UNL     1      46.788   2.644  17.763  0.00  0.00    +0.000 OA
ATOM     10  H   UNL     1      46.509   2.426  18.666  0.00  0.00    +0.000 HD
ENDBRANCH   8   9
BRANCH   8  11
ATOM     11  C   UNL     1      48.740   3.825  18.461  0.00  0.00    +0.000 C 
BRANCH  11  12
ATOM     12  C   UNL     1      48.821   4.407  19.880  0.00  0.00    +0.000 C 
ATOM     13  C   UNL     1      47.963   5.667  19.994  0.00  0.00    +0.000 C 
ATOM     14  C   UNL     1      48.912   6.764  19.564  0.00  0.00    +0.000 C 
ATOM     15  N   UNL     1      50.184   6.391  20.190  0.00  0.00    +0.000 NA
ATOM     16  C   UNL     1      50.227   4.920  20.230  0.00  0.00    +0.000 C 
ATOM     17  H   UNL     1      50.184   6.736  21.150  0.00  0.00    +0.000 HD
ENDBRANCH  11  12
ENDBRANCH   8  11
ENDBRANCH   5   8
ENDBRANCH   1   2
BRANCH   1  19
ATOM     18  C   UNL     1      46.546   8.675  12.984  0.00  0.00    +0.000 C 
ATOM     19  N   UNL     1      46.393   7.368  12.347  0.00  0.00    +0.000 N 
ATOM     20  C   UNL     1      45.350   7.270  11.410  0.00  0.00    +0.000 C 
ATOM     21  O   UNL     1      44.626   8.236  11.169  0.00  0.00    +0.000 OA
BRANCH  20  22
ATOM     22  C   UNL     1      45.102   5.987  10.741  0.00  0.00    +0.000 A 
ATOM     23  C   UNL     1      45.644   5.618   9.521  0.00  0.00    +0.000 A 
ATOM     24  S   UNL     1      45.213   4.045   9.016  0.00  0.00    +0.000 S 
ATOM     25  C   UNL     1      44.415   3.746  10.486  0.00  0.00    +0.000 A 
ATOM     26  N   UNL     1      43.902   2.513  10.758  0.00  0.00    +0.000 NA
ATOM     27  C   UNL     1      43.389   2.409  11.938  0.00  0.00    +0.000 A 
ATOM     28  N   UNL     1      43.306   3.429  12.850  0.00  0.00    +0.000 N 
ATOM     29  C   UNL     1      43.681   4.722  12.560  0.00  0.00    +0.000 A 
ATOM     30  O   UNL     1      43.359   5.651  13.300  0.00  0.00    +0.000 OA
ATOM     31  C   UNL     1      44.386   4.863  11.302  0.00  0.00    +0.000 A 
ATOM     32  H   UNL     1      42.824   3.294  13.728  0.00  0.00    +0.000 HD
ENDBRANCH  20  22
ENDBRANCH   1  19
TORSDOF 7
ENDMDL
MODEL 4
REMARK VINA RESULT:    -6.964      2.430      7.835
REMARK INTER + INTRA:         -10.608
REMARK INTER:                  -9.379
REMARK INTRA:                  -1.229
REMARK UNBOUND:                -0.999
REMARK  Name = 
REMARK  8 active torsions:
REMARK  status: ('A' for Active; 'I' for Inactive)
REMARK    1  A    between atoms: C_1  and  N_2
REMARK    2  A    between atoms: N_2  and  C_3
REMARK    3  A    between atoms: C_3  and  C_4
REMARK    4  A    between atoms: C_7  and  C_8
REMARK    5  A    between atoms: C_8  and  O_9
REMARK    6  A    between atoms: C_8  and  C_10
REMARK    7  A    between atoms: C_10  and  C_11
REMARK    8  A    between atoms: C_18  and  C_20
REMARK                            x       y       z     vdW  Elec       q    Type
REMARK                         _______ _______ _______ _____ _____    ______ ____
ROOT
ATOM      1  C   UNL     1      49.255   6.961  15.352  0.00  0.00    +0.000 C 
ENDROOT
BRANCH   1   2
ATOM      2  C   UNL     1      48.169   6.792  14.337  0.00  0.00    +0.000 A 
ATOM      3  C   UNL     1      47.648   5.532  14.061  0.00  0.00    +0.000 A 
ATOM      4  C   UNL     1      46.599   5.414  13.163  0.00  0.00    +0.000 A 
ATOM      5  C   UNL     1      46.087   6.565  12.566  0.00  0.00    +0.000 A 
ATOM      6  N   UNL     1      46.602   7.796  12.798  0.00  0.00    +0.000 NA
ATOM      7  C   UNL     1      47.629   7.886  13.668  0.00  0.00    +0.000 A 
BRANCH   5   8
ATOM      8  C   UNL     1      44.861   6.483  11.676  0.00  0.00    +0.000 C 
BRANCH   8   9
ATOM      9  O   UNL     1      44.579   7.734  11.038  0.00  0.00    +0.000 OA
ATOM     10  H   UNL     1      44.979   7.724  10.154  0.00  0.00    +0.000 HD
ENDBRANCH   8   9
BRANCH   8  11
ATOM     11  C   UNL     1      45.026   5.439  10.561  0.00  0.00    +0.000 C 
BRANCH  11  12
ATOM     12  C   UNL     1      43.773   4.606  10.251  0.00  0.00    +0.000 C 
ATOM     13  C   UNL     1      42.946   4.387  11.518  0.00  0.00    +0.000 C 
ATOM     14  C   UNL     1      43.552   3.132  12.107  0.00  0.00    +0.000 C 
ATOM     15  N   UNL     1      43.790   2.278  10.939  0.00  0.00    +0.000 NA
ATOM     16  C   UNL     1      44.110   3.171   9.813  0.00  0.00    +0.000 C 
ATOM     17  H   UNL     1      42.926   1.784  10.719  0.00  0.00    +0.000 HD
ENDBRANCH  11  12
ENDBRANCH   8  11
ENDBRANCH   5   8
ENDBRANCH   1   2
BRANCH   1  19
ATOM     18  C   UNL     1      48.861   9.020  16.795  0.00  0.00    +0.000 C 
ATOM     19  N   UNL     1      48.887   7.567  16.638  0.00  0.00    +0.000 N 
ATOM     20  C   UNL     1      48.352   6.833  17.712  0.00  0.00    +0.000 C 
ATOM     21  O   UNL     1      47.906   7.404  18.706  0.00  0.00    +0.000 OA
BRANCH  20  22
ATOM     22  C   UNL     1      48.363   5.366  17.656  0.00  0.00    +0.000 A 
ATOM     23  C   UNL     1      47.246   4.578  17.432  0.00  0.00    +0.000 A 
ATOM     24  S   UNL     1      47.576   2.904  17.373  0.00  0.00    +0.000 S 
ATOM     25  C   UNL     1      49.247   3.186  17.489  0.00  0.00    +0.000 A 
ATOM     26  N   UNL     1      50.133   2.155  17.385  0.00  0.00    +0.000 NA
ATOM     27  C   UNL     1      51.370   2.524  17.418  0.00  0.00    +0.000 A 
ATOM     28  N   UNL     1      51.800   3.815  17.585  0.00  0.00    +0.000 N 
ATOM     29  C   UNL     1      50.940   4.861  17.838  0.00  0.00    +0.000 A 
ATOM     30  O   UNL     1      51.368   5.944  18.234  0.00  0.00    +0.000 OA
ATOM     31  C   UNL     1      49.540   4.526  17.677  0.00  0.00    +0.000 A 
ATOM     32  H   UNL     1      52.785   4.019  17.675  0.00  0.00    +0.000 HD
ENDBRANCH  20  22
ENDBRANCH   1  19
TORSDOF 7
ENDMDL
MODEL 5
REMARK VINA RESULT:    -6.726      3.254      8.321
REMARK INTER + INTRA:         -10.280
REMARK INTER:                  -9.114
REMARK INTRA:                  -1.167
REMARK UNBOUND:                -0.999
REMARK  Name = 
REMARK  8 active torsions:
REMARK  status: ('A' for Active; 'I' for Inactive)
REMARK    1  A    between atoms: C_1  and  N_2
REMARK    2  A    between atoms: N_2  and  C_3
REMARK    3  A    between atoms: C_3  and  C_4
REMARK    4  A    between atoms: C_7  and  C_8
REMARK    5  A    between atoms: C_8  and  O_9
REMARK    6  A    between atoms: C_8  and  C_10
REMARK    7  A    between atoms: C_10  and  C_11
REMARK    8  A    between atoms: C_18  and  C_20
REMARK                            x       y       z     vdW  Elec       q    Type
REMARK                         _______ _______ _______ _____ _____    ______ ____
ROOT
ATOM      1  C   UNL     1      48.032   7.625  14.431  0.00  0.00    +0.000 C 
ENDROOT
BRANCH   1   2
ATOM      2  C   UNL     1      47.294   6.838  13.393  0.00  0.00    +0.000 A 
ATOM      3  C   UNL     1      46.710   5.617  13.715  0.00  0.00    +0.000 A 
ATOM      4  C   UNL     1      45.979   4.941  12.751  0.00  0.00    +0.000 A 
ATOM      5  C   UNL     1      45.840   5.509  11.485  0.00  0.00    +0.000 A 
ATOM      6  N   UNL     1      46.428   6.681  11.145  0.00  0.00    +0.000 NA
ATOM      7  C   UNL     1      47.143   7.316  12.096  0.00  0.00    +0.000 A 
BRANCH   5   8
ATOM      8  C   UNL     1      44.945   4.856  10.449  0.00  0.00    +0.000 C 
BRANCH   8   9
ATOM      9  O   UNL     1      43.682   5.520  10.338  0.00  0.00    +0.000 OA
ATOM     10  H   UNL     1      43.345   5.687  11.232  0.00  0.00    +0.000 HD
ENDBRANCH   8   9
BRANCH   8  11
ATOM     11  C   UNL     1      45.579   4.863   9.050  0.00  0.00    +0.000 C 
BRANCH  11  12
ATOM     12  C   UNL     1      44.977   3.864   8.050  0.00  0.00    +0.000 C 
ATOM     13  C   UNL     1      44.547   2.583   8.763  0.00  0.00    +0.000 C 
ATOM     14  C   UNL     1      45.806   1.743   8.741  0.00  0.00    +0.000 C 
ATOM     15  N   UNL     1      46.356   1.975   7.403  0.00  0.00    +0.000 NA
ATOM     16  C   UNL     1      46.008   3.356   7.029  0.00  0.00    +0.000 C 
ATOM     17  H   UNL     1      45.896   1.342   6.750  0.00  0.00    +0.000 HD
ENDBRANCH  11  12
ENDBRANCH   8  11
ENDBRANCH   5   8
ENDBRANCH   1   2
BRANCH   1  19
ATOM     18  C   UNL     1      50.464   7.866  13.723  0.00  0.00    +0.000 C 
ATOM     19  N   UNL     1      49.454   7.317  14.626  0.00  0.00    +0.000 N 
ATOM     20  C   UNL     1      49.953   6.671  15.770  0.00  0.00    +0.000 C 
ATOM     21  O   UNL     1      51.164   6.582  15.966  0.00  0.00    +0.000 OA
BRANCH  20  22
ATOM     22  C   UNL     1      49.013   6.063  16.720  0.00  0.00    +0.000 A 
ATOM     23  C   UNL     1      48.564   4.755  16.656  0.00  0.00    +0.000 A 
ATOM     24  S   UNL     1      47.512   4.317  17.928  0.00  0.00    +0.000 S 
ATOM     25  C   UNL     1      47.747   5.815  18.694  0.00  0.00    +0.000 A 
ATOM     26  N   UNL     1      47.204   6.059  19.921  0.00  0.00    +0.000 NA
ATOM     27  C   UNL     1      47.523   7.209  20.414  0.00  0.00    +0.000 A 
ATOM     28  N   UNL     1      48.297   8.147  19.781  0.00  0.00    +0.000 N 
ATOM     29  C   UNL     1      48.743   7.997  18.487  0.00  0.00    +0.000 A 
ATOM     30  O   UNL     1      49.209   8.952  17.868  0.00  0.00    +0.000 OA
ATOM     31  C   UNL     1      48.527   6.673  17.939  0.00  0.00    +0.000 A 
ATOM     32  H   UNL     1      48.445   9.055  20.198  0.00  0.00    +0.000 HD
ENDBRANCH  20  22
ENDBRANCH   1  19
TORSDOF 7
ENDMDL
MODEL 6
REMARK VINA RESULT:    -6.701      3.366      7.982
REMARK INTER + INTRA:         -10.245
REMARK INTER:                  -9.051
REMARK INTRA:                  -1.195
REMARK UNBOUND:                -0.999
REMARK  Name = 
REMARK  8 active torsions:
REMARK  status: ('A' for Active; 'I' for Inactive)
REMARK    1  A    between atoms: C_1  and  N_2
REMARK    2  A    between atoms: N_2  and  C_3
REMARK    3  A    between atoms: C_3  and  C_4
REMARK    4  A    between atoms: C_7  and  C_8
REMARK    5  A    between atoms: C_8  and  O_9
REMARK    6  A    between atoms: C_8  and  C_10
REMARK    7  A    between atoms: C_10  and  C_11
REMARK    8  A    between atoms: C_18  and  C_20
REMARK                            x       y       z     vdW  Elec       q    Type
REMARK                         _______ _______ _______ _____ _____    ______ ____
ROOT
ATOM      1  C   UNL     1      47.736   8.470  13.921  0.00  0.00    +0.000 C 
ENDROOT
BRANCH   1   2
ATOM      2  C   UNL     1      46.883   7.474  13.201  0.00  0.00    +0.000 A 
ATOM      3  C   UNL     1      46.961   6.120  13.511  0.00  0.00    +0.000 A 
ATOM      4  C   UNL     1      46.113   5.228  12.874  0.00  0.00    +0.000 A 
ATOM      5  C   UNL     1      45.194   5.714  11.945  0.00  0.00    +0.000 A 
ATOM      6  N   UNL     1      45.125   7.024  11.607  0.00  0.00    +0.000 NA
ATOM      7  C   UNL     1      45.967   7.872  12.233  0.00  0.00    +0.000 A 
BRANCH   5   8
ATOM      8  C   UNL     1      44.171   4.783  11.323  0.00  0.00    +0.000 C 
BRANCH   8   9
ATOM      9  O   UNL     1      43.394   5.438  10.315  0.00  0.00    +0.000 OA
ATOM     10  H   UNL     1      43.978   5.651   9.570  0.00  0.00    +0.000 HD
ENDBRANCH   8   9
BRANCH   8  11
ATOM     11  C   UNL     1      44.827   3.562  10.661  0.00  0.00    +0.000 C 
BRANCH  11  12
ATOM     12  C   UNL     1      44.486   3.358   9.177  0.00  0.00    +0.000 C 
ATOM     13  C   UNL     1      44.513   1.872   8.819  0.00  0.00    +0.000 C 
ATOM     14  C   UNL     1      45.961   1.638   8.449  0.00  0.00    +0.000 C 
ATOM     15  N   UNL     1      46.323   2.832   7.679  0.00  0.00    +0.000 NA
ATOM     16  C   UNL     1      45.549   3.953   8.239  0.00  0.00    +0.000 C 
ATOM     17  H   UNL     1      46.030   2.694   6.713  0.00  0.00    +0.000 HD
ENDBRANCH  11  12
ENDBRANCH   8  11
ENDBRANCH   5   8
ENDBRANCH   1   2
BRANCH   1  19
ATOM     18  C   UNL     1      49.911   8.045  12.668  0.00  0.00    +0.000 C 
ATOM     19  N   UNL     1      49.186   8.238  13.924  0.00  0.00    +0.000 N 
ATOM     20  C   UNL     1      49.988   8.386  15.069  0.00  0.00    +0.000 C 
ATOM     21  O   UNL     1      51.216   8.343  14.989  0.00  0.00    +0.000 OA
BRANCH  20  22
ATOM     22  C   UNL     1      49.348   8.555  16.379  0.00  0.00    +0.000 A 
ATOM     23  C   UNL     1      49.121   9.776  16.992  0.00  0.00    +0.000 A 
ATOM     24  S   UNL     1      48.313   9.661  18.492  0.00  0.00    +0.000 S 
ATOM     25  C   UNL     1      48.099   7.987  18.296  0.00  0.00    +0.000 A 
ATOM     26  N   UNL     1      47.366   7.272  19.196  0.00  0.00    +0.000 NA
ATOM     27  C   UNL     1      47.225   6.027  18.884  0.00  0.00    +0.000 A 
ATOM     28  N   UNL     1      47.780   5.426  17.785  0.00  0.00    +0.000 N 
ATOM     29  C   UNL     1      48.643   6.080  16.933  0.00  0.00    +0.000 A 
ATOM     30  O   UNL     1      49.316   5.452  16.117  0.00  0.00    +0.000 OA
ATOM     31  C   UNL     1      48.727   7.508  17.160  0.00  0.00    +0.000 A 
ATOM     32  H   UNL     1      47.688   4.430  17.644  0.00  0.00    +0.000 HD
ENDBRANCH  20  22
ENDBRANCH   1  19
TORSDOF 7
ENDMDL
MODEL 7
REMARK VINA RESULT:    -6.698      3.065      8.596
REMARK INTER + INTRA:         -10.241
REMARK INTER:                  -9.252
REMARK INTRA:                  -0.989
REMARK UNBOUND:                -0.999
REMARK  Name = 
REMARK  8 active torsions:
REMARK  status: ('A' for Active; 'I' for Inactive)
REMARK    1  A    between atoms: C_1  and  N_2
REMARK    2  A    between atoms: N_2  and  C_3
REMARK    3  A    between atoms: C_3  and  C_4
REMARK    4  A    between atoms: C_7  and  C_8
REMARK    5  A    between atoms: C_8  and  O_9
REMARK    6  A    between atoms: C_8  and  C_10
REMARK    7  A    between atoms: C_10  and  C_11
REMARK    8  A    between atoms: C_18  and  C_20
REMARK                            x       y       z     vdW  Elec       q    Type
REMARK                         _______ _______ _______ _____ _____    ______ ____
ROOT
ATOM      1  C   UNL     1      49.439   6.169  17.040  0.00  0.00    +0.000 C 
ENDROOT
BRANCH   1   2
ATOM      2  C   UNL     1      48.486   5.735  15.972  0.00  0.00    +0.000 A 
ATOM      3  C   UNL     1      48.338   6.484  14.809  0.00  0.00    +0.000 A 
ATOM      4  C   UNL     1      47.496   6.024  13.809  0.00  0.00    +0.000 A 
ATOM      5  C   UNL     1      46.826   4.815  13.991  0.00  0.00    +0.000 A 
ATOM      6  N   UNL     1      46.933   4.089  15.129  0.00  0.00    +0.000 NA
ATOM      7  C   UNL     1      47.750   4.560  16.093  0.00  0.00    +0.000 A 
BRANCH   5   8
ATOM      8  C   UNL     1      45.996   4.225  12.867  0.00  0.00    +0.000 C 
BRANCH   8   9
ATOM      9  O   UNL     1      45.862   2.805  12.990  0.00  0.00    +0.000 OA
ATOM     10  H   UNL     1      46.150   2.397  12.159  0.00  0.00    +0.000 HD
ENDBRANCH   8   9
BRANCH   8  11
ATOM     11  C   UNL     1      44.575   4.808  12.830  0.00  0.00    +0.000 C 
BRANCH  11  12
ATOM     12  C   UNL     1      44.261   5.696  11.616  0.00  0.00    +0.000 C 
ATOM     13  C   UNL     1      43.233   5.021  10.709  0.00  0.00    +0.000 C 
ATOM     14  C   UNL     1      44.093   4.183   9.787  0.00  0.00    +0.000 C 
ATOM     15  N   UNL     1      45.235   5.051   9.488  0.00  0.00    +0.000 NA
ATOM     16  C   UNL     1      45.472   5.875  10.685  0.00  0.00    +0.000 C 
ATOM     17  H   UNL     1      44.977   5.671   8.721  0.00  0.00    +0.000 HD
ENDBRANCH  11  12
ENDBRANCH   8  11
ENDBRANCH   5   8
ENDBRANCH   1   2
BRANCH   1  19
ATOM     18  C   UNL     1      47.743   6.366  18.928  0.00  0.00    +0.000 C 
ATOM     19  N   UNL     1      49.047   5.925  18.434  0.00  0.00    +0.000 N 
ATOM     20  C   UNL     1      49.776   5.099  19.307  0.00  0.00    +0.000 C 
ATOM     21  O   UNL     1      49.323   4.792  20.410  0.00  0.00    +0.000 OA
BRANCH  20  22
ATOM     22  C   UNL     1      51.109   4.630  18.909  0.00  0.00    +0.000 A 
ATOM     23  C   UNL     1      52.294   5.283  19.204  0.00  0.00    +0.000 A 
ATOM     24  S   UNL     1      53.691   4.472  18.650  0.00  0.00    +0.000 S 
ATOM     25  C   UNL     1      52.767   3.143  18.134  0.00  0.00    +0.000 A 
ATOM     26  N   UNL     1      53.375   2.022  17.652  0.00  0.00    +0.000 NA
ATOM     27  C   UNL     1      52.555   1.066  17.366  0.00  0.00    +0.000 A 
ATOM     28  N   UNL     1      51.192   1.141  17.479  0.00  0.00    +0.000 N 
ATOM     29  C   UNL     1      50.534   2.301  17.824  0.00  0.00    +0.000 A 
ATOM     30  O   UNL     1      49.318   2.404  17.667  0.00  0.00    +0.000 OA
ATOM     31  C   UNL     1      51.408   3.361  18.284  0.00  0.00    +0.000 A 
ATOM     32  H   UNL     1      50.608   0.377  17.167  0.00  0.00    +0.000 HD
ENDBRANCH  20  22
ENDBRANCH   1  19
TORSDOF 7
ENDMDL
MODEL 8
REMARK VINA RESULT:    -6.359      3.339      8.283
REMARK INTER + INTRA:          -9.773
REMARK INTER:                  -8.579
REMARK INTRA:                  -1.194
REMARK UNBOUND:                -0.999
REMARK  Name = 
REMARK  8 active torsions:
REMARK  status: ('A' for Active; 'I' for Inactive)
REMARK    1  A    between atoms: C_1  and  N_2
REMARK    2  A    between atoms: N_2  and  C_3
REMARK    3  A    between atoms: C_3  and  C_4
REMARK    4  A    between atoms: C_7  and  C_8
REMARK    5  A    between atoms: C_8  and  O_9
REMARK    6  A    between atoms: C_8  and  C_10
REMARK    7  A    between atoms: C_10  and  C_11
REMARK    8  A    between atoms: C_18  and  C_20
REMARK                            x       y       z     vdW  Elec       q    Type
REMARK                         _______ _______ _______ _____ _____    ______ ____
ROOT
ATOM      1  C   UNL     1      49.202   8.347  15.204  0.00  0.00    +0.000 C 
ENDROOT
BRANCH   1   2
ATOM      2  C   UNL     1      48.151   7.905  14.235  0.00  0.00    +0.000 A 
ATOM      3  C   UNL     1      48.255   6.676  13.591  0.00  0.00    +0.000 A 
ATOM      4  C   UNL     1      47.235   6.265  12.748  0.00  0.00    +0.000 A 
ATOM      5  C   UNL     1      46.124   7.090  12.576  0.00  0.00    +0.000 A 
ATOM      6  N   UNL     1      46.020   8.303  13.170  0.00  0.00    +0.000 NA
ATOM      7  C   UNL     1      47.030   8.687  13.979  0.00  0.00    +0.000 A 
BRANCH   5   8
ATOM      8  C   UNL     1      44.938   6.614  11.759  0.00  0.00    +0.000 C 
BRANCH   8   9
ATOM      9  O   UNL     1      44.459   7.628  10.870  0.00  0.00    +0.000 OA
ATOM     10  H   UNL     1      43.535   7.819  11.092  0.00  0.00    +0.000 HD
ENDBRANCH   8   9
BRANCH   8  11
ATOM     11  C   UNL     1      45.283   5.390  10.898  0.00  0.00    +0.000 C 
BRANCH  11  12
ATOM     12  C   UNL     1      44.079   4.644  10.303  0.00  0.00    +0.000 C 
ATOM     13  C   UNL     1      43.039   4.353  11.384  0.00  0.00    +0.000 C 
ATOM     14  C   UNL     1      43.497   3.024  11.946  0.00  0.00    +0.000 C 
ATOM     15  N   UNL     1      43.909   2.267  10.761  0.00  0.00    +0.000 NA
ATOM     16  C   UNL     1      44.445   3.240   9.795  0.00  0.00    +0.000 C 
ATOM     17  H   UNL     1      43.082   1.834  10.351  0.00  0.00    +0.000 HD
ENDBRANCH  11  12
ENDBRANCH   8  11
ENDBRANCH   5   8
ENDBRANCH   1   2
BRANCH   1  19
ATOM     18  C   UNL     1      51.630   7.849  14.627  0.00  0.00    +0.000 C 
ATOM     19  N   UNL     1      50.397   7.504  15.334  0.00  0.00    +0.000 N 
ATOM     20  C   UNL     1      50.509   6.463  16.271  0.00  0.00    +0.000 C 
ATOM     21  O   UNL     1      51.584   5.894  16.456  0.00  0.00    +0.000 OA
BRANCH  20  22
ATOM     22  C   UNL     1      49.316   6.028  17.008  0.00  0.00    +0.000 A 
ATOM     23  C   UNL     1      48.526   4.946  16.659  0.00  0.00    +0.000 A 
ATOM     24  S   UNL     1      47.233   4.654  17.735  0.00  0.00    +0.000 S 
ATOM     25  C   UNL     1      47.779   5.868  18.789  0.00  0.00    +0.000 A 
ATOM     26  N   UNL     1      47.169   6.069  19.992  0.00  0.00    +0.000 NA
ATOM     27  C   UNL     1      47.734   6.973  20.720  0.00  0.00    +0.000 A 
ATOM     28  N   UNL     1      48.820   7.719  20.343  0.00  0.00    +0.000 N 
ATOM     29  C   UNL     1      49.374   7.647  19.084  0.00  0.00    +0.000 A 
ATOM     30  O   UNL     1      50.172   8.500  18.698  0.00  0.00    +0.000 OA
ATOM     31  C   UNL     1      48.866   6.556  18.277  0.00  0.00    +0.000 A 
ATOM     32  H   UNL     1      49.163   8.461  20.936  0.00  0.00    +0.000 HD
ENDBRANCH  20  22
ENDBRANCH   1  19
TORSDOF 7
ENDMDL
MODEL 9
REMARK VINA RESULT:    -6.277      1.798      2.080
REMARK INTER + INTRA:          -9.661
REMARK INTER:                  -8.699
REMARK INTRA:                  -0.962
REMARK UNBOUND:                -0.999
REMARK  Name = 
REMARK  8 active torsions:
REMARK  status: ('A' for Active; 'I' for Inactive)
REMARK    1  A    between atoms: C_1  and  N_2
REMARK    2  A    between atoms: N_2  and  C_3
REMARK    3  A    between atoms: C_3  and  C_4
REMARK    4  A    between atoms: C_7  and  C_8
REMARK    5  A    between atoms: C_8  and  O_9
REMARK    6  A    between atoms: C_8  and  C_10
REMARK    7  A    between atoms: C_10  and  C_11
REMARK    8  A    between atoms: C_18  and  C_20
REMARK                            x       y       z     vdW  Elec       q    Type
REMARK                         _______ _______ _______ _____ _____    ______ ____
ROOT
ATOM      1  C   UNL     1      47.034   6.020  12.325  0.00  0.00    +0.000 C 
ENDROOT
BRANCH   1   2
ATOM      2  C   UNL     1      47.682   6.001  13.673  0.00  0.00    +0.000 A 
ATOM      3  C   UNL     1      48.643   6.949  14.009  0.00  0.00    +0.000 A 
ATOM      4  C   UNL     1      49.179   6.947  15.288  0.00  0.00    +0.000 A 
ATOM      5  C   UNL     1      48.732   6.000  16.208  0.00  0.00    +0.000 A 
ATOM      6  N   UNL     1      47.820   5.050  15.889  0.00  0.00    +0.000 NA
ATOM      7  C   UNL     1      47.319   5.065  14.636  0.00  0.00    +0.000 A 
BRANCH   5   8
ATOM      8  C   UNL     1      49.207   6.050  17.647  0.00  0.00    +0.000 C 
BRANCH   8   9
ATOM      9  O   UNL     1      48.325   5.342  18.526  0.00  0.00    +0.000 OA
ATOM     10  H   UNL     1      48.861   4.790  19.117  0.00  0.00    +0.000 HD
ENDBRANCH   8   9
BRANCH   8  11
ATOM     11  C   UNL     1      50.602   5.430  17.817  0.00  0.00    +0.000 C 
BRANCH  11  12
ATOM     12  C   UNL     1      51.774   6.421  17.749  0.00  0.00    +0.000 C 
ATOM     13  C   UNL     1      52.769   6.002  16.667  0.00  0.00    +0.000 C 
ATOM     14  C   UNL     1      53.697   5.061  17.406  0.00  0.00    +0.000 C 
ATOM     15  N   UNL     1      53.887   5.708  18.707  0.00  0.00    +0.000 NA
ATOM     16  C   UNL     1      52.632   6.410  19.024  0.00  0.00    +0.000 C 
ATOM     17  H   UNL     1      54.627   6.403  18.617  0.00  0.00    +0.000 HD
ENDBRANCH  11  12
ENDBRANCH   8  11
ENDBRANCH   5   8
ENDBRANCH   1   2
BRANCH   1  19
ATOM     18  C   UNL     1      46.087   8.382  12.285  0.00  0.00    +0.000 C 
ATOM     19  N   UNL     1      45.906   6.939  12.131  0.00  0.00    +0.000 N 
ATOM     20  C   UNL     1      44.668   6.539  11.599  0.00  0.00    +0.000 C 
ATOM     21  O   UNL     1      43.811   7.371  11.301  0.00  0.00    +0.000 OA
BRANCH  20  22
ATOM     22  C   UNL     1      44.384   5.108  11.435  0.00  0.00    +0.000 A 
ATOM     23  C   UNL     1      43.618   4.352  12.306  0.00  0.00    +0.000 A 
ATOM     24  S   UNL     1      43.424   2.724  11.827  0.00  0.00    +0.000 S 
ATOM     25  C   UNL     1      44.226   3.016  10.359  0.00  0.00    +0.000 A 
ATOM     26  N   UNL     1      44.310   2.041   9.409  0.00  0.00    +0.000 NA
ATOM     27  C   UNL     1      44.882   2.423   8.317  0.00  0.00    +0.000 A 
ATOM     28  N   UNL     1      45.410   3.670   8.102  0.00  0.00    +0.000 N 
ATOM     29  C   UNL     1      45.473   4.633   9.085  0.00  0.00    +0.000 A 
ATOM     30  O   UNL     1      46.174   5.634   8.940  0.00  0.00    +0.000 OA
ATOM     31  C   UNL     1      44.727   4.304  10.283  0.00  0.00    +0.000 A 
ATOM     32  H   UNL     1      45.909   3.875   7.248  0.00  0.00    +0.000 HD
ENDBRANCH  20  22
ENDBRANCH   1  19
TORSDOF 7
ENDMDL
