MODEL 1
REMARK VINA RESULT:    -8.323      0.000      0.000
REMARK INTER + INTRA:         -13.445
REMARK INTER:                 -12.216
REMARK INTRA:                  -1.229
REMARK UNBOUND:                -1.229
REMARK  Name = 
REMARK  9 active torsions:
REMARK  status: ('A' for Active; 'I' for Inactive)
REMARK    1  A    between atoms: C_1  and  O_2
REMARK    2  A    between atoms: O_2  and  C_3
REMARK    3  A    between atoms: C_10  and  C_11
REMARK    4  A    between atoms: N_13  and  C_14
REMARK    5  A    between atoms: C_14  and  C_15
REMARK    6  A    between atoms: C_18  and  C_19
REMARK    7  A    between atoms: C_19  and  O_20
REMARK    8  A    between atoms: O_20  and  C_21
REMARK    9  A    between atoms: C_21  and  C_22
REMARK                            x       y       z     vdW  Elec       q    Type
REMARK                         _______ _______ _______ _____ _____    ______ ____
ROOT
ATOM      1  C   UNL     1      47.965   6.866  13.258  0.00  0.00    +0.000 C 
ENDROOT
BRANCH   1   2
ATOM      2  C   UNL     1      46.850   6.023  12.691  0.00  0.00    +0.000 A 
ATOM      3  C   UNL     1      46.338   4.929  13.404  0.00  0.00    +0.000 A 
ATOM      4  C   UNL     1      45.286   4.165  12.883  0.00  0.00    +0.000 A 
ATOM      5  C   UNL     1      44.729   4.469  11.634  0.00  0.00    +0.000 A 
ATOM      6  C   UNL     1      45.261   5.546  10.910  0.00  0.00    +0.000 A 
ATOM      7  C   UNL     1      46.313   6.308  11.428  0.00  0.00    +0.000 A 
BRANCH   5   8
ATOM      8  C   UNL     1      43.589   3.655  11.070  0.00  0.00    +0.000 C 
BRANCH   8   9
ATOM      9  O   UNL     1      43.847   3.369   9.698  0.00  0.00    +0.000 OA
BRANCH   9  10
ATOM     10  C   UNL     1      44.579   2.153   9.534  0.00  0.00    +0.000 C 
BRANCH  10  11
ATOM     11  C   UNL     1      45.580   2.284   8.411  0.00  0.00    +0.000 A 
ATOM     12  C   UNL     1      45.784   3.506   7.754  0.00  0.00    +0.000 A 
ATOM     13  C   UNL     1      46.745   3.625   6.748  0.00  0.00    +0.000 A 
ATOM     14  C   UNL     1      47.527   2.527   6.396  0.00  0.00    +0.000 A 
ATOM     15  C   UNL     1      47.343   1.309   7.044  0.00  0.00    +0.000 A 
ATOM     16  C   UNL     1      46.379   1.188   8.049  0.00  0.00    +0.000 A 
ENDBRANCH  10  11
ENDBRANCH   9  10
ENDBRANCH   8   9
ENDBRANCH   5   8
ENDBRANCH   1   2
BRANCH   1  19
ATOM     17  C   UNL     1      49.053   6.890  15.473  0.00  0.00    +0.000 C 
ATOM     18  O   UNL     1      50.176   6.860  14.967  0.00  0.00    +0.000 OA
ATOM     19  N   UNL     1      47.925   6.887  14.698  0.00  0.00    +0.000 N 
ATOM     20  H   UNL     1      47.019   6.792  15.135  0.00  0.00    +0.000 HD
BRANCH  17  28
ATOM     21  C   UNL     1      48.946   4.479  17.927  0.00  0.00    +0.000 A 
ATOM     22  N   UNL     1      48.800   3.754  19.054  0.00  0.00    +0.000 NA
ATOM     23  C   UNL     1      48.525   4.401  20.188  0.00  0.00    +0.000 A 
ATOM     24  N   UNL     1      48.381   5.713  20.343  0.00  0.00    +0.000 NA
ATOM     25  C   UNL     1      48.533   6.400  19.198  0.00  0.00    +0.000 A 
ATOM     26  S   UNL     1      48.398   8.092  19.212  0.00  0.00    +0.000 S 
ATOM     27  C   UNL     1      48.674   8.178  17.538  0.00  0.00    +0.000 A 
ATOM     28  C   UNL     1      48.867   6.941  16.934  0.00  0.00    +0.000 A 
ATOM     29  C   UNL     1      48.809   5.879  17.938  0.00  0.00    +0.000 A 
BRANCH  21  31
ATOM     30  C   UNL     1      48.710   2.525  16.669  0.00  0.00    +0.000 C 
ATOM     31  O   UNL     1      49.314   3.811  16.778  0.00  0.00    +0.000 OA
ENDBRANCH  21  31
ENDBRANCH  17  28
ENDBRANCH   1  19
TORSDOF 8
ENDMDL
MODEL 2
REMARK VINA RESULT:    -7.969      1.630      2.678
REMARK INTER + INTRA:         -12.926
REMARK INTER:                 -11.590
REMARK INTRA:                  -1.336
REMARK UNBOUND:                -1.229
REMARK  Name = 
REMARK  9 active torsions:
REMARK  status: ('A' for Active; 'I' for Inactive)
REMARK    1  A    between atoms: C_1  and  O_2
REMARK    2  A    between atoms: O_2  and  C_3
REMARK    3  A    between atoms: C_10  and  C_11
REMARK    4  A    between atoms: N_13  and  C_14
REMARK    5  A    between atoms: C_14  and  C_15
REMARK    6  A    between atoms: C_18  and  C_19
REMARK    7  A    between atoms: C_19  and  O_20
REMARK    8  A    between atoms: O_20  and  C_21
REMARK    9  A    between atoms: C_21  and  C_22
REMARK                            x       y       z     vdW  Elec       q    Type
REMARK                         _______ _______ _______ _____ _____    ______ ____
ROOT
ATOM      1  C   UNL     1      48.321   6.511  13.890  0.00  0.00    +0.000 C 
ENDROOT
BRANCH   1   2
ATOM      2  C   UNL     1      47.115   6.042  13.114  0.00  0.00    +0.000 A 
ATOM      3  C   UNL     1      46.300   5.010  13.601  0.00  0.00    +0.000 A 
ATOM      4  C   UNL     1      45.168   4.596  12.888  0.00  0.00    +0.000 A 
ATOM      5  C   UNL     1      44.831   5.195  11.667  0.00  0.00    +0.000 A 
ATOM      6  C   UNL     1      45.663   6.207  11.168  0.00  0.00    +0.000 A 
ATOM      7  C   UNL     1      46.795   6.620  11.878  0.00  0.00    +0.000 A 
BRANCH   5   8
ATOM      8  C   UNL     1      43.607   4.759  10.896  0.00  0.00    +0.000 C 
BRANCH   8   9
ATOM      9  O   UNL     1      44.001   4.295   9.608  0.00  0.00    +0.000 OA
BRANCH   9  10
ATOM     10  C   UNL     1      44.487   2.952   9.649  0.00  0.00    +0.000 C 
BRANCH  10  11
ATOM     11  C   UNL     1      45.452   2.703   8.513  0.00  0.00    +0.000 A 
ATOM     12  C   UNL     1      45.836   3.732   7.642  0.00  0.00    +0.000 A 
ATOM     13  C   UNL     1      46.762   3.499   6.624  0.00  0.00    +0.000 A 
ATOM     14  C   UNL     1      47.330   2.236   6.473  0.00  0.00    +0.000 A 
ATOM     15  C   UNL     1      46.966   1.205   7.335  0.00  0.00    +0.000 A 
ATOM     16  C   UNL     1      46.036   1.437   8.352  0.00  0.00    +0.000 A 
ENDBRANCH  10  11
ENDBRANCH   9  10
ENDBRANCH   8   9
ENDBRANCH   5   8
ENDBRANCH   1   2
BRANCH   1  19
ATOM     17  C   UNL     1      48.960   6.304  16.265  0.00  0.00    +0.000 C 
ATOM     18  O   UNL     1      50.096   5.931  15.969  0.00  0.00    +0.000 OA
ATOM     19  N   UNL     1      48.035   6.598  15.299  0.00  0.00    +0.000 N 
ATOM     20  H   UNL     1      47.079   6.786  15.564  0.00  0.00    +0.000 HD
BRANCH  17  28
ATOM     21  C   UNL     1      47.812   8.980  18.101  0.00  0.00    +0.000 A 
ATOM     22  N   UNL     1      47.412   9.850  19.049  0.00  0.00    +0.000 NA
ATOM     23  C   UNL     1      47.270   9.400  20.297  0.00  0.00    +0.000 A 
ATOM     24  N   UNL     1      47.474   8.159  20.727  0.00  0.00    +0.000 NA
ATOM     25  C   UNL     1      47.871   7.323  19.753  0.00  0.00    +0.000 A 
ATOM     26  S   UNL     1      48.165   5.691  20.118  0.00  0.00    +0.000 S 
ATOM     27  C   UNL     1      48.601   5.358  18.510  0.00  0.00    +0.000 A 
ATOM     28  C   UNL     1      48.542   6.463  17.669  0.00  0.00    +0.000 A 
ATOM     29  C   UNL     1      48.077   7.634  18.412  0.00  0.00    +0.000 A 
BRANCH  21  31
ATOM     30  C   UNL     1      49.156   9.954  16.457  0.00  0.00    +0.000 C 
ATOM     31  O   UNL     1      47.874   9.432  16.800  0.00  0.00    +0.000 OA
ENDBRANCH  21  31
ENDBRANCH  17  28
ENDBRANCH   1  19
TORSDOF 8
ENDMDL
MODEL 3
REMARK VINA RESULT:    -7.602      1.664      3.232
REMARK INTER + INTRA:         -12.387
REMARK INTER:                 -10.884
REMARK INTRA:                  -1.502
REMARK UNBOUND:                -1.229
REMARK  Name = 
REMARK  9 active torsions:
REMARK  status: ('A' for Active; 'I' for Inactive)
REMARK    1  A    between atoms: C_1  and  O_2
REMARK    2  A    between atoms: O_2  and  C_3
REMARK    3  A    between atoms: C_10  and  C_11
REMARK    4  A    between atoms: N_13  and  C_14
REMARK    5  A    between atoms: C_14  and  C_15
REMARK    6  A    between atoms: C_18  and  C_19
REMARK    7  A    between atoms: C_19  and  O_20
REMARK    8  A    between atoms: O_20  and  C_21
REMARK    9  A    between atoms: C_21  and  C_22
REMARK                            x       y       z     vdW  Elec       q    Type
REMARK                         _______ _______ _______ _____ _____    ______ ____
ROOT
ATOM      1  C   UNL     1      47.468   3.994  14.922  0.00  0.00    +0.000 C 
ENDROOT
BRANCH   1   2
ATOM      2  C   UNL     1      46.496   4.219  13.790  0.00  0.00    +0.000 A 
ATOM      3  C   UNL     1      46.086   5.513  13.438  0.00  0.00    +0.000 A 
ATOM      4  C   UNL     1      45.203   5.718  12.371  0.00  0.00    +0.000 A 
ATOM      5  C   UNL     1      44.701   4.635  11.637  0.00  0.00    +0.000 A 
ATOM      6  C   UNL     1      45.091   3.340  12.008  0.00  0.00    +0.000 A 
ATOM      7  C   UNL     1      45.970   3.134  13.076  0.00  0.00    +0.000 A 
BRANCH   5   8
ATOM      8  C   UNL     1      43.755   4.848  10.480  0.00  0.00    +0.000 C 
BRANCH   8   9
ATOM      9  O   UNL     1      44.005   3.866   9.478  0.00  0.00    +0.000 OA
BRANCH   9  10
ATOM     10  C   UNL     1      44.864   4.360   8.448  0.00  0.00    +0.000 C 
BRANCH  10  11
ATOM     11  C   UNL     1      45.772   3.262   7.945  0.00  0.00    +0.000 A 
ATOM     12  C   UNL     1      45.706   1.963   8.467  0.00  0.00    +0.000 A 
ATOM     13  C   UNL     1      46.520   0.947   7.962  0.00  0.00    +0.000 A 
ATOM     14  C   UNL     1      47.401   1.213   6.916  0.00  0.00    +0.000 A 
ATOM     15  C   UNL     1      47.473   2.497   6.380  0.00  0.00    +0.000 A 
ATOM     16  C   UNL     1      46.661   3.515   6.888  0.00  0.00    +0.000 A 
ENDBRANCH  10  11
ENDBRANCH   9  10
ENDBRANCH   8   9
ENDBRANCH   5   8
ENDBRANCH   1   2
BRANCH   1  19
ATOM     17  C   UNL     1      48.620   5.346  16.634  0.00  0.00    +0.000 C 
ATOM     18  O   UNL     1      49.489   4.487  16.786  0.00  0.00    +0.000 OA
ATOM     19  N   UNL     1      47.595   5.170  15.745  0.00  0.00    +0.000 N 
ATOM     20  H   UNL     1      46.831   5.830  15.724  0.00  0.00    +0.000 HD
BRANCH  17  28
ATOM     21  C   UNL     1      48.663   8.661  15.706  0.00  0.00    +0.000 A 
ATOM     22  N   UNL     1      48.747  10.004  15.625  0.00  0.00    +0.000 NA
ATOM     23  C   UNL     1      48.845  10.698  16.760  0.00  0.00    +0.000 A 
ATOM     24  N   UNL     1      48.862  10.209  17.996  0.00  0.00    +0.000 NA
ATOM     25  C   UNL     1      48.777   8.869  18.034  0.00  0.00    +0.000 A 
ATOM     26  S   UNL     1      48.769   8.072  19.533  0.00  0.00    +0.000 S 
ATOM     27  C   UNL     1      48.668   6.552  18.782  0.00  0.00    +0.000 A 
ATOM     28  C   UNL     1      48.643   6.609  17.393  0.00  0.00    +0.000 A 
ATOM     29  C   UNL     1      48.682   8.003  16.949  0.00  0.00    +0.000 A 
BRANCH  21  31
ATOM     30  C   UNL     1      49.704   7.620  13.891  0.00  0.00    +0.000 C 
ATOM     31  O   UNL     1      48.477   7.958  14.534  0.00  0.00    +0.000 OA
ENDBRANCH  21  31
ENDBRANCH  17  28
ENDBRANCH   1  19
TORSDOF 8
ENDMDL
MODEL 4
REMARK VINA RESULT:    -7.599      1.589      2.358
REMARK INTER + INTRA:         -12.381
REMARK INTER:                 -11.234
REMARK INTRA:                  -1.148
REMARK UNBOUND:                -1.229
REMARK  Name = 
REMARK  9 active torsions:
REMARK  status: ('A' for Active; 'I' for Inactive)
REMARK    1  A    between atoms: C_1  and  O_2
REMARK    2  A    between atoms: O_2  and  C_3
REMARK    3  A    between atoms: C_10  and  C_11
REMARK    4  A    between atoms: N_13  and  C_14
REMARK    5  A    between atoms: C_14  and  C_15
REMARK    6  A    between atoms: C_18  and  C_19
REMARK    7  A    between atoms: C_19  and  O_20
REMARK    8  A    between atoms: O_20  and  C_21
REMARK    9  A    between atoms: C_21  and  C_22
REMARK                            x       y       z     vdW  Elec       q    Type
REMARK                         _______ _______ _______ _____ _____    ______ ____
ROOT
ATOM      1  C   UNL     1      47.429   4.254  14.957  0.00  0.00    +0.000 C 
ENDROOT
BRANCH   1   2
ATOM      2  C   UNL     1      46.467   4.381  13.801  0.00  0.00    +0.000 A 
ATOM      3  C   UNL     1      46.018   3.248  13.108  0.00  0.00    +0.000 A 
ATOM      4  C   UNL     1      45.106   3.370  12.052  0.00  0.00    +0.000 A 
ATOM      5  C   UNL     1      44.631   4.627  11.657  0.00  0.00    +0.000 A 
ATOM      6  C   UNL     1      45.103   5.761  12.332  0.00  0.00    +0.000 A 
ATOM      7  C   UNL     1      46.016   5.641  13.385  0.00  0.00    +0.000 A 
BRANCH   5   8
ATOM      8  C   UNL     1      43.642   4.766  10.524  0.00  0.00    +0.000 C 
BRANCH   8   9
ATOM      9  O   UNL     1      44.014   3.894   9.462  0.00  0.00    +0.000 OA
BRANCH   9  10
ATOM     10  C   UNL     1      45.098   4.419   8.692  0.00  0.00    +0.000 C 
BRANCH  10  11
ATOM     11  C   UNL     1      45.862   3.302   8.021  0.00  0.00    +0.000 A 
ATOM     12  C   UNL     1      46.729   3.552   6.948  0.00  0.00    +0.000 A 
ATOM     13  C   UNL     1      47.464   2.518   6.366  0.00  0.00    +0.000 A 
ATOM     14  C   UNL     1      47.353   1.220   6.860  0.00  0.00    +0.000 A 
ATOM     15  C   UNL     1      46.503   0.955   7.930  0.00  0.00    +0.000 A 
ATOM     16  C   UNL     1      45.764   1.990   8.511  0.00  0.00    +0.000 A 
ENDBRANCH  10  11
ENDBRANCH   9  10
ENDBRANCH   8   9
ENDBRANCH   5   8
ENDBRANCH   1   2
BRANCH   1  19
ATOM     17  C   UNL     1      48.624   5.816  16.446  0.00  0.00    +0.000 C 
ATOM     18  O   UNL     1      49.585   5.051  16.545  0.00  0.00    +0.000 OA
ATOM     19  N   UNL     1      47.530   5.489  15.692  0.00  0.00    +0.000 N 
ATOM     20  H   UNL     1      46.708   6.075  15.722  0.00  0.00    +0.000 HD
BRANCH  17  28
ATOM     21  C   UNL     1      47.791   6.814  19.634  0.00  0.00    +0.000 A 
ATOM     22  N   UNL     1      47.472   7.474  20.765  0.00  0.00    +0.000 NA
ATOM     23  C   UNL     1      47.580   8.804  20.769  0.00  0.00    +0.000 A 
ATOM     24  N   UNL     1      47.984   9.576  19.765  0.00  0.00    +0.000 NA
ATOM     25  C   UNL     1      48.293   8.881  18.657  0.00  0.00    +0.000 A 
ATOM     26  S   UNL     1      48.843   9.704  17.278  0.00  0.00    +0.000 S 
ATOM     27  C   UNL     1      48.977   8.253  16.404  0.00  0.00    +0.000 A 
ATOM     28  C   UNL     1      48.607   7.124  17.125  0.00  0.00    +0.000 A 
ATOM     29  C   UNL     1      48.223   7.502  18.486  0.00  0.00    +0.000 A 
BRANCH  21  31
ATOM     30  C   UNL     1      48.982   4.863  20.117  0.00  0.00    +0.000 C 
ATOM     31  O   UNL     1      47.757   5.436  19.664  0.00  0.00    +0.000 OA
ENDBRANCH  21  31
ENDBRANCH  17  28
ENDBRANCH   1  19
TORSDOF 8
ENDMDL
MODEL 5
REMARK VINA RESULT:    -7.203      1.805      2.285
REMARK INTER + INTRA:         -11.801
REMARK INTER:                 -10.714
REMARK INTRA:                  -1.087
REMARK UNBOUND:                -1.229
REMARK  Name = 
REMARK  9 active torsions:
REMARK  status: ('A' for Active; 'I' for Inactive)
REMARK    1  A    between atoms: C_1  and  O_2
REMARK    2  A    between atoms: O_2  and  C_3
REMARK    3  A    between atoms: C_10  and  C_11
REMARK    4  A    between atoms: N_13  and  C_14
REMARK    5  A    between atoms: C_14  and  C_15
REMARK    6  A    between atoms: C_18  and  C_19
REMARK    7  A    between atoms: C_19  and  O_20
REMARK    8  A    between atoms: O_20  and  C_21
REMARK    9  A    between atoms: C_21  and  C_22
REMARK                            x       y       z     vdW  Elec       q    Type
REMARK                         _______ _______ _______ _____ _____    ______ ____
ROOT
ATOM      1  C   UNL     1      47.550   8.088  13.418  0.00  0.00    +0.000 C 
ENDROOT
BRANCH   1   2
ATOM      2  C   UNL     1      46.697   7.058  12.718  0.00  0.00    +0.000 A 
ATOM      3  C   UNL     1      46.685   6.961  11.320  0.00  0.00    +0.000 A 
ATOM      4  C   UNL     1      45.910   5.988  10.677  0.00  0.00    +0.000 A 
ATOM      5  C   UNL     1      45.122   5.096  11.416  0.00  0.00    +0.000 A 
ATOM      6  C   UNL     1      45.115   5.211  12.813  0.00  0.00    +0.000 A 
ATOM      7  C   UNL     1      45.885   6.185  13.456  0.00  0.00    +0.000 A 
BRANCH   5   8
ATOM      8  C   UNL     1      44.291   4.038  10.730  0.00  0.00    +0.000 C 
BRANCH   8   9
ATOM      9  O   UNL     1      45.088   2.878  10.512  0.00  0.00    +0.000 OA
BRANCH   9  10
ATOM     10  C   UNL     1      44.659   2.142   9.364  0.00  0.00    +0.000 C 
BRANCH  10  11
ATOM     11  C   UNL     1      45.684   2.240   8.259  0.00  0.00    +0.000 A 
ATOM     12  C   UNL     1      45.892   3.438   7.560  0.00  0.00    +0.000 A 
ATOM     13  C   UNL     1      46.874   3.528   6.571  0.00  0.00    +0.000 A 
ATOM     14  C   UNL     1      47.672   2.425   6.278  0.00  0.00    +0.000 A 
ATOM     15  C   UNL     1      47.484   1.230   6.968  0.00  0.00    +0.000 A 
ATOM     16  C   UNL     1      46.499   1.138   7.956  0.00  0.00    +0.000 A 
ENDBRANCH  10  11
ENDBRANCH   9  10
ENDBRANCH   8   9
ENDBRANCH   5   8
ENDBRANCH   1   2
BRANCH   1  19
ATOM     17  C   UNL     1      49.018   7.662  15.355  0.00  0.00    +0.000 C 
ATOM     18  O   UNL     1      48.330   8.375  16.085  0.00  0.00    +0.000 OA
ATOM     19  N   UNL     1      48.702   7.481  14.035  0.00  0.00    +0.000 N 
ATOM     20  H   UNL     1      49.345   6.992  13.430  0.00  0.00    +0.000 HD
BRANCH  17  28
ATOM     21  C   UNL     1      49.458   4.884  17.339  0.00  0.00    +0.000 A 
ATOM     22  N   UNL     1      49.908   3.890  18.130  0.00  0.00    +0.000 NA
ATOM     23  C   UNL     1      51.224   3.781  18.317  0.00  0.00    +0.000 A 
ATOM     24  N   UNL     1      52.172   4.552  17.794  0.00  0.00    +0.000 NA
ATOM     25  C   UNL     1      51.683   5.530  17.012  0.00  0.00    +0.000 A 
ATOM     26  S   UNL     1      52.752   6.605  16.247  0.00  0.00    +0.000 S 
ATOM     27  C   UNL     1      51.466   7.459  15.538  0.00  0.00    +0.000 A 
ATOM     28  C   UNL     1      50.210   6.960  15.864  0.00  0.00    +0.000 A 
ATOM     29  C   UNL     1      50.345   5.786  16.727  0.00  0.00    +0.000 A 
BRANCH  21  31
ATOM     30  C   UNL     1      47.337   5.277  18.237  0.00  0.00    +0.000 C 
ATOM     31  O   UNL     1      48.104   4.937  17.084  0.00  0.00    +0.000 OA
ENDBRANCH  21  31
ENDBRANCH  17  28
ENDBRANCH   1  19
TORSDOF 8
ENDMDL
MODEL 6
REMARK VINA RESULT:    -7.141      1.878      2.544
REMARK INTER + INTRA:         -11.710
REMARK INTER:                 -11.262
REMARK INTRA:                  -0.448
REMARK UNBOUND:                -1.229
REMARK  Name = 
REMARK  9 active torsions:
REMARK  status: ('A' for Active; 'I' for Inactive)
REMARK    1  A    between atoms: C_1  and  O_2
REMARK    2  A    between atoms: O_2  and  C_3
REMARK    3  A    between atoms: C_10  and  C_11
REMARK    4  A    between atoms: N_13  and  C_14
REMARK    5  A    between atoms: C_14  and  C_15
REMARK    6  A    between atoms: C_18  and  C_19
REMARK    7  A    between atoms: C_19  and  O_20
REMARK    8  A    between atoms: O_20  and  C_21
REMARK    9  A    between atoms: C_21  and  C_22
REMARK                            x       y       z     vdW  Elec       q    Type
REMARK                         _______ _______ _______ _____ _____    ______ ____
ROOT
ATOM      1  C   UNL     1      45.466   8.632  12.569  0.00  0.00    +0.000 C 
ENDROOT
BRANCH   1   2
ATOM      2  C   UNL     1      45.104   7.222  12.172  0.00  0.00    +0.000 A 
ATOM      3  C   UNL     1      43.870   6.936  11.572  0.00  0.00    +0.000 A 
ATOM      4  C   UNL     1      43.549   5.629  11.184  0.00  0.00    +0.000 A 
ATOM      5  C   UNL     1      44.450   4.577  11.394  0.00  0.00    +0.000 A 
ATOM      6  C   UNL     1      45.673   4.860  12.019  0.00  0.00    +0.000 A 
ATOM      7  C   UNL     1      45.993   6.164  12.411  0.00  0.00    +0.000 A 
BRANCH   5   8
ATOM      8  C   UNL     1      44.116   3.167  10.970  0.00  0.00    +0.000 C 
BRANCH   8   9
ATOM      9  O   UNL     1      43.856   3.143   9.570  0.00  0.00    +0.000 OA
BRANCH   9  10
ATOM     10  C   UNL     1      44.813   3.909   8.835  0.00  0.00    +0.000 C 
BRANCH  10  11
ATOM     11  C   UNL     1      45.744   2.998   8.069  0.00  0.00    +0.000 A 
ATOM     12  C   UNL     1      45.919   1.656   8.436  0.00  0.00    +0.000 A 
ATOM     13  C   UNL     1      46.748   0.814   7.693  0.00  0.00    +0.000 A 
ATOM     14  C   UNL     1      47.402   1.298   6.562  0.00  0.00    +0.000 A 
ATOM     15  C   UNL     1      47.233   2.626   6.179  0.00  0.00    +0.000 A 
ATOM     16  C   UNL     1      46.406   3.471   6.925  0.00  0.00    +0.000 A 
ENDBRANCH  10  11
ENDBRANCH   9  10
ENDBRANCH   8   9
ENDBRANCH   5   8
ENDBRANCH   1   2
BRANCH   1  19
ATOM     17  C   UNL     1      47.702   8.750  13.606  0.00  0.00    +0.000 C 
ATOM     18  O   UNL     1      48.252   8.824  12.507  0.00  0.00    +0.000 OA
ATOM     19  N   UNL     1      46.341   8.645  13.713  0.00  0.00    +0.000 N 
ATOM     20  H   UNL     1      45.923   8.466  14.615  0.00  0.00    +0.000 HD
BRANCH  17  28
ATOM     21  C   UNL     1      48.592   6.334  15.891  0.00  0.00    +0.000 A 
ATOM     22  N   UNL     1      49.014   5.619  16.953  0.00  0.00    +0.000 NA
ATOM     23  C   UNL     1      49.654   6.262  17.931  0.00  0.00    +0.000 A 
ATOM     24  N   UNL     1      49.939   7.559  17.981  0.00  0.00    +0.000 NA
ATOM     25  C   UNL     1      49.501   8.237  16.906  0.00  0.00    +0.000 A 
ATOM     26  S   UNL     1      49.791   9.905  16.792  0.00  0.00    +0.000 S 
ATOM     27  C   UNL     1      48.984   9.996  15.300  0.00  0.00    +0.000 A 
ATOM     28  C   UNL     1      48.476   8.779  14.859  0.00  0.00    +0.000 A 
ATOM     29  C   UNL     1      48.813   7.721  15.812  0.00  0.00    +0.000 A 
BRANCH  21  31
ATOM     30  C   UNL     1      47.381   4.437  15.263  0.00  0.00    +0.000 C 
ATOM     31  O   UNL     1      48.007   5.649  14.847  0.00  0.00    +0.000 OA
ENDBRANCH  21  31
ENDBRANCH  17  28
ENDBRANCH   1  19
TORSDOF 8
ENDMDL
MODEL 7
REMARK VINA RESULT:    -6.744      3.387      5.441
REMARK INTER + INTRA:         -11.127
REMARK INTER:                  -9.396
REMARK INTRA:                  -1.731
REMARK UNBOUND:                -1.229
REMARK  Name = 
REMARK  9 active torsions:
REMARK  status: ('A' for Active; 'I' for Inactive)
REMARK    1  A    between atoms: C_1  and  O_2
REMARK    2  A    between atoms: O_2  and  C_3
REMARK    3  A    between atoms: C_10  and  C_11
REMARK    4  A    between atoms: N_13  and  C_14
REMARK    5  A    between atoms: C_14  and  C_15
REMARK    6  A    between atoms: C_18  and  C_19
REMARK    7  A    between atoms: C_19  and  O_20
REMARK    8  A    between atoms: O_20  and  C_21
REMARK    9  A    between atoms: C_21  and  C_22
REMARK                            x       y       z     vdW  Elec       q    Type
REMARK                         _______ _______ _______ _____ _____    ______ ____
ROOT
ATOM      1  C   UNL     1      47.787   3.278  17.330  0.00  0.00    +0.000 C 
ENDROOT
BRANCH   1   2
ATOM      2  C   UNL     1      47.698   4.182  16.125  0.00  0.00    +0.000 A 
ATOM      3  C   UNL     1      47.051   3.761  14.954  0.00  0.00    +0.000 A 
ATOM      4  C   UNL     1      46.950   4.614  13.847  0.00  0.00    +0.000 A 
ATOM      5  C   UNL     1      47.502   5.901  13.882  0.00  0.00    +0.000 A 
ATOM      6  C   UNL     1      48.173   6.309  15.043  0.00  0.00    +0.000 A 
ATOM      7  C   UNL     1      48.277   5.458  16.148  0.00  0.00    +0.000 A 
BRANCH   5   8
ATOM      8  C   UNL     1      47.390   6.829  12.695  0.00  0.00    +0.000 C 
BRANCH   8   9
ATOM      9  O   UNL     1      46.133   7.498  12.735  0.00  0.00    +0.000 OA
BRANCH   9  10
ATOM     10  C   UNL     1      45.374   7.282  11.544  0.00  0.00    +0.000 C 
BRANCH  10  11
ATOM     11  C   UNL     1      44.650   5.957  11.610  0.00  0.00    +0.000 A 
ATOM     12  C   UNL     1      44.888   4.947  10.667  0.00  0.00    +0.000 A 
ATOM     13  C   UNL     1      44.247   3.711  10.765  0.00  0.00    +0.000 A 
ATOM     14  C   UNL     1      43.369   3.463  11.818  0.00  0.00    +0.000 A 
ATOM     15  C   UNL     1      43.128   4.452  12.768  0.00  0.00    +0.000 A 
ATOM     16  C   UNL     1      43.767   5.691  12.668  0.00  0.00    +0.000 A 
ENDBRANCH  10  11
ENDBRANCH   9  10
ENDBRANCH   8   9
ENDBRANCH   5   8
ENDBRANCH   1   2
BRANCH   1  19
ATOM     17  C   UNL     1      50.011   2.250  17.041  0.00  0.00    +0.000 C 
ATOM     18  O   UNL     1      49.641   1.632  16.043  0.00  0.00    +0.000 OA
ATOM     19  N   UNL     1      49.156   3.069  17.728  0.00  0.00    +0.000 N 
ATOM     20  H   UNL     1      49.446   3.470  18.608  0.00  0.00    +0.000 HD
BRANCH  17  28
ATOM     21  C   UNL     1      52.259   4.556  18.259  0.00  0.00    +0.000 A 
ATOM     22  N   UNL     1      53.333   5.240  18.703  0.00  0.00    +0.000 NA
ATOM     23  C   UNL     1      54.460   4.564  18.928  0.00  0.00    +0.000 A 
ATOM     24  N   UNL     1      54.655   3.258  18.769  0.00  0.00    +0.000 NA
ATOM     25  C   UNL     1      53.562   2.613  18.326  0.00  0.00    +0.000 A 
ATOM     26  S   UNL     1      53.623   0.935  18.081  0.00  0.00    +0.000 S 
ATOM     27  C   UNL     1      52.009   0.903  17.552  0.00  0.00    +0.000 A 
ATOM     28  C   UNL     1      51.394   2.149  17.542  0.00  0.00    +0.000 A 
ATOM     29  C   UNL     1      52.321   3.169  18.034  0.00  0.00    +0.000 A 
BRANCH  21  31
ATOM     30  C   UNL     1      50.861   6.206  19.144  0.00  0.00    +0.000 C 
ATOM     31  O   UNL     1      51.075   5.247  18.110  0.00  0.00    +0.000 OA
ENDBRANCH  21  31
ENDBRANCH  17  28
ENDBRANCH   1  19
TORSDOF 8
ENDMDL
MODEL 8
REMARK VINA RESULT:    -6.744      4.363      9.383
REMARK INTER + INTRA:         -11.127
REMARK INTER:                 -10.088
REMARK INTRA:                  -1.039
REMARK UNBOUND:                -1.229
REMARK  Name = 
REMARK  9 active torsions:
REMARK  status: ('A' for Active; 'I' for Inactive)
REMARK    1  A    between atoms: C_1  and  O_2
REMARK    2  A    between atoms: O_2  and  C_3
REMARK    3  A    between atoms: C_10  and  C_11
REMARK    4  A    between atoms: N_13  and  C_14
REMARK    5  A    between atoms: C_14  and  C_15
REMARK    6  A    between atoms: C_18  and  C_19
REMARK    7  A    between atoms: C_19  and  O_20
REMARK    8  A    between atoms: O_20  and  C_21
REMARK    9  A    between atoms: C_21  and  C_22
REMARK                            x       y       z     vdW  Elec       q    Type
REMARK                         _______ _______ _______ _____ _____    ______ ____
ROOT
ATOM      1  C   UNL     1      47.237   3.345  16.777  0.00  0.00    +0.000 C 
ENDROOT
BRANCH   1   2
ATOM      2  C   UNL     1      48.710   3.327  17.104  0.00  0.00    +0.000 A 
ATOM      3  C   UNL     1      49.369   4.489  17.531  0.00  0.00    +0.000 A 
ATOM      4  C   UNL     1      50.731   4.460  17.856  0.00  0.00    +0.000 A 
ATOM      5  C   UNL     1      51.468   3.273  17.752  0.00  0.00    +0.000 A 
ATOM      6  C   UNL     1      50.814   2.119  17.298  0.00  0.00    +0.000 A 
ATOM      7  C   UNL     1      49.455   2.147  16.970  0.00  0.00    +0.000 A 
BRANCH   5   8
ATOM      8  C   UNL     1      52.935   3.233  18.108  0.00  0.00    +0.000 C 
BRANCH   8   9
ATOM      9  O   UNL     1      53.213   2.036  18.830  0.00  0.00    +0.000 OA
BRANCH   9  10
ATOM     10  C   UNL     1      54.600   1.696  18.788  0.00  0.00    +0.000 C 
BRANCH  10  11
ATOM     11  C   UNL     1      54.794   0.343  18.143  0.00  0.00    +0.000 A 
ATOM     12  C   UNL     1      54.958  -0.817  18.915  0.00  0.00    +0.000 A 
ATOM     13  C   UNL     1      55.091  -2.066  18.307  0.00  0.00    +0.000 A 
ATOM     14  C   UNL     1      55.046  -2.176  16.919  0.00  0.00    +0.000 A 
ATOM     15  C   UNL     1      54.875  -1.035  16.139  0.00  0.00    +0.000 A 
ATOM     16  C   UNL     1      54.745   0.217  16.746  0.00  0.00    +0.000 A 
ENDBRANCH  10  11
ENDBRANCH   9  10
ENDBRANCH   8   9
ENDBRANCH   5   8
ENDBRANCH   1   2
BRANCH   1  19
ATOM     17  C   UNL     1      46.931   4.257  14.506  0.00  0.00    +0.000 C 
ATOM     18  O   UNL     1      47.238   3.183  13.988  0.00  0.00    +0.000 OA
ATOM     19  N   UNL     1      46.916   4.413  15.866  0.00  0.00    +0.000 N 
ATOM     20  H   UNL     1      46.779   5.331  16.262  0.00  0.00    +0.000 HD
BRANCH  17  28
ATOM     21  C   UNL     1      44.128   5.058  12.674  0.00  0.00    +0.000 A 
ATOM     22  N   UNL     1      43.202   5.584  11.848  0.00  0.00    +0.000 NA
ATOM     23  C   UNL     1      43.474   6.750  11.259  0.00  0.00    +0.000 A 
ATOM     24  N   UNL     1      44.577   7.478  11.399  0.00  0.00    +0.000 NA
ATOM     25  C   UNL     1      45.475   6.920  12.229  0.00  0.00    +0.000 A 
ATOM     26  S   UNL     1      46.940   7.719  12.539  0.00  0.00    +0.000 S 
ATOM     27  C   UNL     1      47.464   6.470  13.564  0.00  0.00    +0.000 A 
ATOM     28  C   UNL     1      46.555   5.426  13.690  0.00  0.00    +0.000 A 
ATOM     29  C   UNL     1      45.351   5.712  12.909  0.00  0.00    +0.000 A 
BRANCH  21  31
ATOM     30  C   UNL     1      43.671   2.775  12.474  0.00  0.00    +0.000 C 
ATOM     31  O   UNL     1      43.805   3.897  13.344  0.00  0.00    +0.000 OA
ENDBRANCH  21  31
ENDBRANCH  17  28
ENDBRANCH   1  19
TORSDOF 8
ENDMDL
MODEL 9
REMARK VINA RESULT:    -6.383      3.884      8.532
REMARK INTER + INTRA:         -10.597
REMARK INTER:                  -8.453
REMARK INTRA:                  -2.144
REMARK UNBOUND:                -1.229
REMARK  Name = 
REMARK  9 active torsions:
REMARK  status: ('A' for Active; 'I' for Inactive)
REMARK    1  A    between atoms: C_1  and  O_2
REMARK    2  A    between atoms: O_2  and  C_3
REMARK    3  A    between atoms: C_10  and  C_11
REMARK    4  A    between atoms: N_13  and  C_14
REMARK    5  A    between atoms: C_14  and  C_15
REMARK    6  A    between atoms: C_18  and  C_19
REMARK    7  A    between atoms: C_19  and  O_20
REMARK    8  A    between atoms: O_20  and  C_21
REMARK    9  A    between atoms: C_21  and  C_22
REMARK                            x       y       z     vdW  Elec       q    Type
REMARK                         _______ _______ _______ _____ _____    ______ ____
ROOT
ATOM      1  C   UNL     1      48.549   8.326  14.484  0.00  0.00    +0.000 C 
ENDROOT
BRANCH   1   2
ATOM      2  C   UNL     1      48.988   7.977  15.885  0.00  0.00    +0.000 A 
ATOM      3  C   UNL     1      48.297   8.471  17.001  0.00  0.00    +0.000 A 
ATOM      4  C   UNL     1      48.693   8.125  18.299  0.00  0.00    +0.000 A 
ATOM      5  C   UNL     1      49.796   7.286  18.511  0.00  0.00    +0.000 A 
ATOM      6  C   UNL     1      50.502   6.816  17.396  0.00  0.00    +0.000 A 
ATOM      7  C   UNL     1      50.109   7.164  16.099  0.00  0.00    +0.000 A 
BRANCH   5   8
ATOM      8  C   UNL     1      50.225   6.902  19.907  0.00  0.00    +0.000 C 
BRANCH   8   9
ATOM      9  O   UNL     1      50.291   5.482  20.007  0.00  0.00    +0.000 OA
BRANCH   9  10
ATOM     10  C   UNL     1      48.993   4.888  20.066  0.00  0.00    +0.000 C 
BRANCH  10  11
ATOM     11  C   UNL     1      48.641   4.253  18.741  0.00  0.00    +0.000 A 
ATOM     12  C   UNL     1      49.435   3.241  18.182  0.00  0.00    +0.000 A 
ATOM     13  C   UNL     1      49.074   2.631  16.980  0.00  0.00    +0.000 A 
ATOM     14  C   UNL     1      47.904   3.012  16.328  0.00  0.00    +0.000 A 
ATOM     15  C   UNL     1      47.099   4.009  16.874  0.00  0.00    +0.000 A 
ATOM     16  C   UNL     1      47.462   4.623  18.076  0.00  0.00    +0.000 A 
ENDBRANCH  10  11
ENDBRANCH   9  10
ENDBRANCH   8   9
ENDBRANCH   5   8
ENDBRANCH   1   2
BRANCH   1  19
ATOM     17  C   UNL     1      47.758   6.339  13.253  0.00  0.00    +0.000 C 
ATOM     18  O   UNL     1      48.901   6.055  12.895  0.00  0.00    +0.000 OA
ATOM     19  N   UNL     1      47.509   7.441  14.026  0.00  0.00    +0.000 N 
ATOM     20  H   UNL     1      46.555   7.720  14.207  0.00  0.00    +0.000 HD
BRANCH  17  28
ATOM     21  C   UNL     1      44.721   7.028  11.786  0.00  0.00    +0.000 A 
ATOM     22  N   UNL     1      43.464   7.026  11.298  0.00  0.00    +0.000 NA
ATOM     23  C   UNL     1      42.798   5.870  11.283  0.00  0.00    +0.000 A 
ATOM     24  N   UNL     1      43.240   4.687  11.696  0.00  0.00    +0.000 NA
ATOM     25  C   UNL     1      44.495   4.732  12.175  0.00  0.00    +0.000 A 
ATOM     26  S   UNL     1      45.230   3.307  12.734  0.00  0.00    +0.000 S 
ATOM     27  C   UNL     1      46.651   4.141  13.145  0.00  0.00    +0.000 A 
ATOM     28  C   UNL     1      46.603   5.505  12.878  0.00  0.00    +0.000 A 
ATOM     29  C   UNL     1      45.317   5.850  12.270  0.00  0.00    +0.000 A 
BRANCH  21  31
ATOM     30  C   UNL     1      44.603   9.340  11.469  0.00  0.00    +0.000 C 
ATOM     31  O   UNL     1      45.432   8.208  11.719  0.00  0.00    +0.000 OA
ENDBRANCH  21  31
ENDBRANCH  17  28
ENDBRANCH   1  19
TORSDOF 8
ENDMDL
