MODEL 1
REMARK VINA RESULT:    -7.644      0.000      0.000
REMARK INTER + INTRA:         -11.993
REMARK INTER:                 -10.771
REMARK INTRA:                  -1.221
REMARK UNBOUND:                -1.221
REMARK  Name = 
REMARK  7 active torsions:
REMARK  status: ('A' for Active; 'I' for Inactive)
REMARK    1  A    between atoms: C_2  and  C_19
REMARK    2  A    between atoms: N_3  and  C_4
REMARK    3  A    between atoms: C_4  and  C_5
REMARK    4  A    between atoms: C_8  and  C_9
REMARK    5  A    between atoms: C_9  and  N_10
REMARK    6  A    between atoms: N_10  and  C_11
REMARK    7  A    between atoms: C_11  and  C_12
REMARK                            x       y       z     vdW  Elec       q    Type
REMARK                         _______ _______ _______ _____ _____    ______ ____
ROOT
ATOM      1  C   UNL     1      46.587   7.640  12.993  0.00  0.00    +0.000 C 
ENDROOT
BRANCH   1   2
ATOM      2  C   UNL     1      45.885   6.474  12.351  0.00  0.00    +0.000 A 
ATOM      3  C   UNL     1      45.931   6.303  10.963  0.00  0.00    +0.000 A 
ATOM      4  C   UNL     1      45.337   5.190  10.360  0.00  0.00    +0.000 A 
ATOM      5  C   UNL     1      44.694   4.210  11.130  0.00  0.00    +0.000 A 
ATOM      6  C   UNL     1      44.605   4.412  12.516  0.00  0.00    +0.000 A 
ATOM      7  C   UNL     1      45.188   5.533  13.119  0.00  0.00    +0.000 A 
BRANCH   5   8
ATOM      8  C   UNL     1      44.045   2.991  10.497  0.00  0.00    +0.000 C 
BRANCH   8   9
ATOM      9  N   UNL     1      44.073   3.039   9.032  0.00  0.00    +0.000 NA
ATOM     10  H   UNL     1      44.514   3.912   8.745  0.00  0.00    +0.000 HD
BRANCH   9  11
ATOM     11  C   UNL     1      44.773   1.897   8.441  0.00  0.00    +0.000 C 
BRANCH  11  12
ATOM     12  C   UNL     1      46.274   2.220   8.298  0.00  0.00    +0.000 C 
ATOM     13  C   UNL     1      46.555   3.385   7.366  0.00  0.00    +0.000 C 
ATOM     14  C   UNL     1      46.635   2.733   6.003  0.00  0.00    +0.000 C 
ATOM     15  O   UNL     1      47.042   1.375   6.204  0.00  0.00    +0.000 OA
ATOM     16  C   UNL     1      47.042   1.099   7.612  0.00  0.00    +0.000 C 
ENDBRANCH  11  12
ENDBRANCH   9  11
ENDBRANCH   8   9
ENDBRANCH   5   8
ENDBRANCH   1   2
BRANCH   1  19
ATOM     17  O   UNL     1      49.032   6.282  13.337  0.00  0.00    +0.000 OA
ATOM     18  C   UNL     1      48.414   6.660  14.327  0.00  0.00    +0.000 C 
ATOM     19  N   UNL     1      47.201   7.293  14.247  0.00  0.00    +0.000 N 
ATOM     20  H   UNL     1      46.803   7.721  15.075  0.00  0.00    +0.000 HD
BRANCH  18  21
ATOM     21  C   UNL     1      48.920   6.410  15.681  0.00  0.00    +0.000 A 
ATOM     22  C   UNL     1      49.737   7.343  16.305  0.00  0.00    +0.000 A 
ATOM     23  S   UNL     1      50.181   6.905  17.894  0.00  0.00    +0.000 S 
ATOM     24  C   UNL     1      49.280   5.464  17.807  0.00  0.00    +0.000 A 
ATOM     25  N   UNL     1      49.192   4.624  18.874  0.00  0.00    +0.000 NA
ATOM     26  C   UNL     1      48.441   3.590  18.674  0.00  0.00    +0.000 A 
ATOM     27  N   UNL     1      47.790   3.310  17.504  0.00  0.00    +0.000 N 
ATOM     28  C   UNL     1      47.931   4.077  16.378  0.00  0.00    +0.000 A 
ATOM     29  O   UNL     1      47.479   3.698  15.297  0.00  0.00    +0.000 OA
ATOM     30  C   UNL     1      48.689   5.296  16.566  0.00  0.00    +0.000 A 
ATOM     31  H   UNL     1      47.261   2.457  17.397  0.00  0.00    +0.000 HD
ENDBRANCH  18  21
ENDBRANCH   1  19
TORSDOF 7
ENDMDL
MODEL 2
REMARK VINA RESULT:    -7.151      2.033      2.618
REMARK INTER + INTRA:         -11.298
REMARK INTER:                 -10.336
REMARK INTRA:                  -0.962
REMARK UNBOUND:                -1.221
REMARK  Name = 
REMARK  7 active torsions:
REMARK  status: ('A' for Active; 'I' for Inactive)
REMARK    1  A    between atoms: C_2  and  C_19
REMARK    2  A    between atoms: N_3  and  C_4
REMARK    3  A    between atoms: C_4  and  C_5
REMARK    4  A    between atoms: C_8  and  C_9
REMARK    5  A    between atoms: C_9  and  N_10
REMARK    6  A    between atoms: N_10  and  C_11
REMARK    7  A    between atoms: C_11  and  C_12
REMARK                            x       y       z     vdW  Elec       q    Type
REMARK                         _______ _______ _______ _____ _____    ______ ____
ROOT
ATOM      1  C   UNL     1      47.911   6.789  13.621  0.00  0.00    +0.000 C 
ENDROOT
BRANCH   1   2
ATOM      2  C   UNL     1      46.935   6.067  12.730  0.00  0.00    +0.000 A 
ATOM      3  C   UNL     1      46.309   4.897  13.175  0.00  0.00    +0.000 A 
ATOM      4  C   UNL     1      45.354   4.253  12.383  0.00  0.00    +0.000 A 
ATOM      5  C   UNL     1      44.989   4.769  11.130  0.00  0.00    +0.000 A 
ATOM      6  C   UNL     1      45.657   5.912  10.666  0.00  0.00    +0.000 A 
ATOM      7  C   UNL     1      46.623   6.550  11.453  0.00  0.00    +0.000 A 
BRANCH   5   8
ATOM      8  C   UNL     1      43.950   4.088  10.254  0.00  0.00    +0.000 C 
BRANCH   8   9
ATOM      9  N   UNL     1      44.129   4.398   8.832  0.00  0.00    +0.000 NA
ATOM     10  H   UNL     1      44.815   5.148   8.748  0.00  0.00    +0.000 HD
BRANCH   9  11
ATOM     11  C   UNL     1      44.548   3.235   8.047  0.00  0.00    +0.000 C 
BRANCH  11  12
ATOM     12  C   UNL     1      46.070   3.033   8.184  0.00  0.00    +0.000 C 
ATOM     13  C   UNL     1      46.874   3.761   7.122  0.00  0.00    +0.000 C 
ATOM     14  C   UNL     1      46.914   2.775   5.974  0.00  0.00    +0.000 C 
ATOM     15  O   UNL     1      46.783   1.463   6.535  0.00  0.00    +0.000 OA
ATOM     16  C   UNL     1      46.484   1.589   7.932  0.00  0.00    +0.000 C 
ENDBRANCH  11  12
ENDBRANCH   9  11
ENDBRANCH   8   9
ENDBRANCH   5   8
ENDBRANCH   1   2
BRANCH   1  19
ATOM     17  O   UNL     1      50.062   6.661  15.436  0.00  0.00    +0.000 OA
ATOM     18  C   UNL     1      48.940   6.340  15.815  0.00  0.00    +0.000 C 
ATOM     19  N   UNL     1      47.850   6.338  14.986  0.00  0.00    +0.000 N 
ATOM     20  H   UNL     1      46.923   6.215  15.376  0.00  0.00    +0.000 HD
BRANCH  18  21
ATOM     21  C   UNL     1      48.704   5.886  17.189  0.00  0.00    +0.000 A 
ATOM     22  C   UNL     1      48.883   4.550  17.524  0.00  0.00    +0.000 A 
ATOM     23  S   UNL     1      48.615   4.221  19.177  0.00  0.00    +0.000 S 
ATOM     24  C   UNL     1      48.269   5.855  19.503  0.00  0.00    +0.000 A 
ATOM     25  N   UNL     1      47.997   6.278  20.768  0.00  0.00    +0.000 NA
ATOM     26  C   UNL     1      47.793   7.551  20.869  0.00  0.00    +0.000 A 
ATOM     27  N   UNL     1      47.815   8.432  19.823  0.00  0.00    +0.000 N 
ATOM     28  C   UNL     1      47.989   8.034  18.523  0.00  0.00    +0.000 A 
ATOM     29  O   UNL     1      47.824   8.825  17.594  0.00  0.00    +0.000 OA
ATOM     30  C   UNL     1      48.309   6.631  18.358  0.00  0.00    +0.000 A 
ATOM     31  H   UNL     1      47.596   9.407  19.962  0.00  0.00    +0.000 HD
ENDBRANCH  18  21
ENDBRANCH   1  19
TORSDOF 7
ENDMDL
MODEL 3
REMARK VINA RESULT:    -6.909      2.431      3.303
REMARK INTER + INTRA:         -10.957
REMARK INTER:                  -9.227
REMARK INTRA:                  -1.730
REMARK UNBOUND:                -1.221
REMARK  Name = 
REMARK  7 active torsions:
REMARK  status: ('A' for Active; 'I' for Inactive)
REMARK    1  A    between atoms: C_2  and  C_19
REMARK    2  A    between atoms: N_3  and  C_4
REMARK    3  A    between atoms: C_4  and  C_5
REMARK    4  A    between atoms: C_8  and  C_9
REMARK    5  A    between atoms: C_9  and  N_10
REMARK    6  A    between atoms: N_10  and  C_11
REMARK    7  A    between atoms: C_11  and  C_12
REMARK                            x       y       z     vdW  Elec       q    Type
REMARK                         _______ _______ _______ _____ _____    ______ ____
ROOT
ATOM      1  C   UNL     1      49.065   8.026  13.224  0.00  0.00    +0.000 C 
ENDROOT
BRANCH   1   2
ATOM      2  C   UNL     1      47.685   7.900  12.636  0.00  0.00    +0.000 A 
ATOM      3  C   UNL     1      47.355   6.790  11.850  0.00  0.00    +0.000 A 
ATOM      4  C   UNL     1      46.059   6.629  11.351  0.00  0.00    +0.000 A 
ATOM      5  C   UNL     1      45.054   7.566  11.636  0.00  0.00    +0.000 A 
ATOM      6  C   UNL     1      45.403   8.703  12.380  0.00  0.00    +0.000 A 
ATOM      7  C   UNL     1      46.705   8.872  12.869  0.00  0.00    +0.000 A 
BRANCH   5   8
ATOM      8  C   UNL     1      43.638   7.410  11.108  0.00  0.00    +0.000 C 
BRANCH   8   9
ATOM      9  N   UNL     1      43.354   6.042  10.664  0.00  0.00    +0.000 NA
ATOM     10  H   UNL     1      44.225   5.617  10.347  0.00  0.00    +0.000 HD
BRANCH   9  11
ATOM     11  C   UNL     1      42.741   5.222  11.712  0.00  0.00    +0.000 C 
BRANCH  11  12
ATOM     12  C   UNL     1      43.000   3.729  11.427  0.00  0.00    +0.000 C 
ATOM     13  C   UNL     1      43.735   3.018  12.549  0.00  0.00    +0.000 C 
ATOM     14  C   UNL     1      45.193   3.264  12.224  0.00  0.00    +0.000 C 
ATOM     15  O   UNL     1      45.287   3.455  10.808  0.00  0.00    +0.000 OA
ATOM     16  C   UNL     1      43.961   3.523  10.264  0.00  0.00    +0.000 C 
ENDBRANCH  11  12
ENDBRANCH   9  11
ENDBRANCH   8   9
ENDBRANCH   5   8
ENDBRANCH   1   2
BRANCH   1  19
ATOM     17  O   UNL     1      48.589   8.600  15.941  0.00  0.00    +0.000 OA
ATOM     18  C   UNL     1      48.985   7.482  15.627  0.00  0.00    +0.000 C 
ATOM     19  N   UNL     1      49.276   7.135  14.334  0.00  0.00    +0.000 N 
ATOM     20  H   UNL     1      49.451   6.164  14.102  0.00  0.00    +0.000 HD
BRANCH  18  21
ATOM     21  C   UNL     1      49.222   6.447  16.639  0.00  0.00    +0.000 A 
ATOM     22  C   UNL     1      50.155   6.654  17.646  0.00  0.00    +0.000 A 
ATOM     23  S   UNL     1      50.252   5.365  18.760  0.00  0.00    +0.000 S 
ATOM     24  C   UNL     1      49.037   4.497  17.945  0.00  0.00    +0.000 A 
ATOM     25  N   UNL     1      48.594   3.298  18.413  0.00  0.00    +0.000 NA
ATOM     26  C   UNL     1      47.641   2.774  17.714  0.00  0.00    +0.000 A 
ATOM     27  N   UNL     1      47.107   3.327  16.581  0.00  0.00    +0.000 N 
ATOM     28  C   UNL     1      47.589   4.482  16.024  0.00  0.00    +0.000 A 
ATOM     29  O   UNL     1      47.208   4.852  14.913  0.00  0.00    +0.000 OA
ATOM     30  C   UNL     1      48.598   5.158  16.811  0.00  0.00    +0.000 A 
ATOM     31  H   UNL     1      46.399   2.840  16.052  0.00  0.00    +0.000 HD
ENDBRANCH  18  21
ENDBRANCH   1  19
TORSDOF 7
ENDMDL
MODEL 4
REMARK VINA RESULT:    -6.873      1.526      1.710
REMARK INTER + INTRA:         -10.907
REMARK INTER:                  -9.805
REMARK INTRA:                  -1.102
REMARK UNBOUND:                -1.221
REMARK  Name = 
REMARK  7 active torsions:
REMARK  status: ('A' for Active; 'I' for Inactive)
REMARK    1  A    between atoms: C_2  and  C_19
REMARK    2  A    between atoms: N_3  and  C_4
REMARK    3  A    between atoms: C_4  and  C_5
REMARK    4  A    between atoms: C_8  and  C_9
REMARK    5  A    between atoms: C_9  and  N_10
REMARK    6  A    between atoms: N_10  and  C_11
REMARK    7  A    between atoms: C_11  and  C_12
REMARK                            x       y       z     vdW  Elec       q    Type
REMARK                         _______ _______ _______ _____ _____    ______ ____
ROOT
ATOM      1  C   UNL     1      48.159   7.154  13.502  0.00  0.00    +0.000 C 
ENDROOT
BRANCH   1   2
ATOM      2  C   UNL     1      47.080   6.398  12.774  0.00  0.00    +0.000 A 
ATOM      3  C   UNL     1      46.796   6.691  11.435  0.00  0.00    +0.000 A 
ATOM      4  C   UNL     1      45.841   5.954  10.729  0.00  0.00    +0.000 A 
ATOM      5  C   UNL     1      45.153   4.894  11.339  0.00  0.00    +0.000 A 
ATOM      6  C   UNL     1      45.401   4.638  12.696  0.00  0.00    +0.000 A 
ATOM      7  C   UNL     1      46.349   5.385  13.407  0.00  0.00    +0.000 A 
BRANCH   5   8
ATOM      8  C   UNL     1      44.113   4.077  10.591  0.00  0.00    +0.000 C 
BRANCH   8   9
ATOM      9  N   UNL     1      44.091   4.379   9.156  0.00  0.00    +0.000 NA
ATOM     10  H   UNL     1      44.712   5.168   8.981  0.00  0.00    +0.000 HD
BRANCH   9  11
ATOM     11  C   UNL     1      44.481   3.234   8.330  0.00  0.00    +0.000 C 
BRANCH  11  12
ATOM     12  C   UNL     1      46.013   3.067   8.355  0.00  0.00    +0.000 C 
ATOM     13  C   UNL     1      46.727   3.878   7.288  0.00  0.00    +0.000 C 
ATOM     14  C   UNL     1      46.714   2.961   6.084  0.00  0.00    +0.000 C 
ATOM     15  O   UNL     1      46.654   1.616   6.574  0.00  0.00    +0.000 OA
ATOM     16  C   UNL     1      46.445   1.653   7.992  0.00  0.00    +0.000 C 
ENDBRANCH  11  12
ENDBRANCH   9  11
ENDBRANCH   8   9
ENDBRANCH   5   8
ENDBRANCH   1   2
BRANCH   1  19
ATOM     17  O   UNL     1      49.665   8.562  15.423  0.00  0.00    +0.000 OA
ATOM     18  C   UNL     1      48.808   7.768  15.800  0.00  0.00    +0.000 C 
ATOM     19  N   UNL     1      48.060   7.017  14.931  0.00  0.00    +0.000 N 
ATOM     20  H   UNL     1      47.265   6.493  15.277  0.00  0.00    +0.000 HD
BRANCH  18  21
ATOM     21  C   UNL     1      48.562   7.535  17.226  0.00  0.00    +0.000 A 
ATOM     22  C   UNL     1      48.066   8.557  18.027  0.00  0.00    +0.000 A 
ATOM     23  S   UNL     1      47.792   8.083  19.643  0.00  0.00    +0.000 S 
ATOM     24  C   UNL     1      48.308   6.494  19.323  0.00  0.00    +0.000 A 
ATOM     25  N   UNL     1      48.278   5.536  20.290  0.00  0.00    +0.000 NA
ATOM     26  C   UNL     1      48.662   4.367  19.891  0.00  0.00    +0.000 A 
ATOM     27  N   UNL     1      49.091   4.075  18.625  0.00  0.00    +0.000 N 
ATOM     28  C   UNL     1      49.227   5.029  17.651  0.00  0.00    +0.000 A 
ATOM     29  O   UNL     1      49.784   4.766  16.584  0.00  0.00    +0.000 OA
ATOM     30  C   UNL     1      48.730   6.339  18.014  0.00  0.00    +0.000 A 
ATOM     31  H   UNL     1      49.427   3.152  18.392  0.00  0.00    +0.000 HD
ENDBRANCH  18  21
ENDBRANCH   1  19
TORSDOF 7
ENDMDL
MODEL 5
REMARK VINA RESULT:    -6.856      2.647      3.624
REMARK INTER + INTRA:         -10.882
REMARK INTER:                  -9.913
REMARK INTRA:                  -0.969
REMARK UNBOUND:                -1.221
REMARK  Name = 
REMARK  7 active torsions:
REMARK  status: ('A' for Active; 'I' for Inactive)
REMARK    1  A    between atoms: C_2  and  C_19
REMARK    2  A    between atoms: N_3  and  C_4
REMARK    3  A    between atoms: C_4  and  C_5
REMARK    4  A    between atoms: C_8  and  C_9
REMARK    5  A    between atoms: C_9  and  N_10
REMARK    6  A    between atoms: N_10  and  C_11
REMARK    7  A    between atoms: C_11  and  C_12
REMARK                            x       y       z     vdW  Elec       q    Type
REMARK                         _______ _______ _______ _____ _____    ______ ____
ROOT
ATOM      1  C   UNL     1      47.124   4.051  16.073  0.00  0.00    +0.000 C 
ENDROOT
BRANCH   1   2
ATOM      2  C   UNL     1      46.879   4.625  14.703  0.00  0.00    +0.000 A 
ATOM      3  C   UNL     1      45.978   4.003  13.830  0.00  0.00    +0.000 A 
ATOM      4  C   UNL     1      45.694   4.561  12.581  0.00  0.00    +0.000 A 
ATOM      5  C   UNL     1      46.292   5.763  12.174  0.00  0.00    +0.000 A 
ATOM      6  C   UNL     1      47.233   6.355  13.030  0.00  0.00    +0.000 A 
ATOM      7  C   UNL     1      47.528   5.790  14.277  0.00  0.00    +0.000 A 
BRANCH   5   8
ATOM      8  C   UNL     1      45.995   6.390  10.822  0.00  0.00    +0.000 C 
BRANCH   8   9
ATOM      9  N   UNL     1      45.214   5.504   9.954  0.00  0.00    +0.000 NA
ATOM     10  H   UNL     1      44.414   6.024   9.595  0.00  0.00    +0.000 HD
BRANCH   9  11
ATOM     11  C   UNL     1      46.002   4.955   8.848  0.00  0.00    +0.000 C 
BRANCH  11  12
ATOM     12  C   UNL     1      45.138   3.981   8.023  0.00  0.00    +0.000 C 
ATOM     13  C   UNL     1      44.574   2.833   8.839  0.00  0.00    +0.000 C 
ATOM     14  C   UNL     1      45.674   1.794   8.790  0.00  0.00    +0.000 C 
ATOM     15  O   UNL     1      46.413   2.014   7.583  0.00  0.00    +0.000 OA
ATOM     16  C   UNL     1      45.954   3.231   6.979  0.00  0.00    +0.000 C 
ENDBRANCH  11  12
ENDBRANCH   9  11
ENDBRANCH   8   9
ENDBRANCH   5   8
ENDBRANCH   1   2
BRANCH   1  19
ATOM     17  O   UNL     1      48.409   5.122  18.340  0.00  0.00    +0.000 OA
ATOM     18  C   UNL     1      49.065   4.472  17.533  0.00  0.00    +0.000 C 
ATOM     19  N   UNL     1      48.524   3.950  16.387  0.00  0.00    +0.000 N 
ATOM     20  H   UNL     1      49.062   3.295  15.831  0.00  0.00    +0.000 HD
BRANCH  18  21
ATOM     21  C   UNL     1      50.502   4.251  17.723  0.00  0.00    +0.000 A 
ATOM     22  C   UNL     1      51.324   5.298  18.120  0.00  0.00    +0.000 A 
ATOM     23  S   UNL     1      52.952   4.838  18.343  0.00  0.00    +0.000 S 
ATOM     24  C   UNL     1      52.610   3.223  17.935  0.00  0.00    +0.000 A 
ATOM     25  N   UNL     1      53.578   2.267  17.973  0.00  0.00    +0.000 NA
ATOM     26  C   UNL     1      53.162   1.079  17.677  0.00  0.00    +0.000 A 
ATOM     27  N   UNL     1      51.878   0.764  17.327  0.00  0.00    +0.000 N 
ATOM     28  C   UNL     1      50.897   1.710  17.183  0.00  0.00    +0.000 A 
ATOM     29  O   UNL     1      49.806   1.417  16.694  0.00  0.00    +0.000 OA
ATOM     30  C   UNL     1      51.282   3.046  17.586  0.00  0.00    +0.000 A 
ATOM     31  H   UNL     1      51.630  -0.176  17.056  0.00  0.00    +0.000 HD
ENDBRANCH  18  21
ENDBRANCH   1  19
TORSDOF 7
ENDMDL
MODEL 6
REMARK VINA RESULT:    -6.737      1.934      3.433
REMARK INTER + INTRA:         -10.715
REMARK INTER:                  -9.517
REMARK INTRA:                  -1.198
REMARK UNBOUND:                -1.221
REMARK  Name = 
REMARK  7 active torsions:
REMARK  status: ('A' for Active; 'I' for Inactive)
REMARK    1  A    between atoms: C_2  and  C_19
REMARK    2  A    between atoms: N_3  and  C_4
REMARK    3  A    between atoms: C_4  and  C_5
REMARK    4  A    between atoms: C_8  and  C_9
REMARK    5  A    between atoms: C_9  and  N_10
REMARK    6  A    between atoms: N_10  and  C_11
REMARK    7  A    between atoms: C_11  and  C_12
REMARK                            x       y       z     vdW  Elec       q    Type
REMARK                         _______ _______ _______ _____ _____    ______ ____
ROOT
ATOM      1  C   UNL     1      46.788   4.575  14.527  0.00  0.00    +0.000 C 
ENDROOT
BRANCH   1   2
ATOM      2  C   UNL     1      46.127   4.570  13.175  0.00  0.00    +0.000 A 
ATOM      3  C   UNL     1      46.110   5.733  12.396  0.00  0.00    +0.000 A 
ATOM      4  C   UNL     1      45.556   5.725  11.113  0.00  0.00    +0.000 A 
ATOM      5  C   UNL     1      45.017   4.551  10.567  0.00  0.00    +0.000 A 
ATOM      6  C   UNL     1      44.988   3.401  11.370  0.00  0.00    +0.000 A 
ATOM      7  C   UNL     1      45.531   3.411  12.661  0.00  0.00    +0.000 A 
BRANCH   5   8
ATOM      8  C   UNL     1      44.413   4.517   9.173  0.00  0.00    +0.000 C 
BRANCH   8   9
ATOM      9  N   UNL     1      44.164   3.151   8.704  0.00  0.00    +0.000 NA
ATOM     10  H   UNL     1      43.168   3.051   8.511  0.00  0.00    +0.000 HD
BRANCH   9  11
ATOM     11  C   UNL     1      44.949   2.808   7.516  0.00  0.00    +0.000 C 
BRANCH  11  12
ATOM     12  C   UNL     1      46.405   2.505   7.920  0.00  0.00    +0.000 C 
ATOM     13  C   UNL     1      47.433   3.166   7.019  0.00  0.00    +0.000 C 
ATOM     14  C   UNL     1      47.607   2.168   5.894  0.00  0.00    +0.000 C 
ATOM     15  O   UNL     1      47.290   0.874   6.421  0.00  0.00    +0.000 OA
ATOM     16  C   UNL     1      46.758   1.034   7.743  0.00  0.00    +0.000 C 
ENDBRANCH  11  12
ENDBRANCH   9  11
ENDBRANCH   8   9
ENDBRANCH   5   8
ENDBRANCH   1   2
BRANCH   1  19
ATOM     17  O   UNL     1      48.906   4.971  16.343  0.00  0.00    +0.000 OA
ATOM     18  C   UNL     1      48.489   5.925  15.694  0.00  0.00    +0.000 C 
ATOM     19  N   UNL     1      47.438   5.824  14.820  0.00  0.00    +0.000 N 
ATOM     20  H   UNL     1      47.228   6.595  14.196  0.00  0.00    +0.000 HD
BRANCH  18  21
ATOM     21  C   UNL     1      49.066   7.263  15.853  0.00  0.00    +0.000 A 
ATOM     22  C   UNL     1      49.070   7.880  17.098  0.00  0.00    +0.000 A 
ATOM     23  S   UNL     1      49.832   9.407  17.099  0.00  0.00    +0.000 S 
ATOM     24  C   UNL     1      50.198   9.286  15.442  0.00  0.00    +0.000 A 
ATOM     25  N   UNL     1      50.903  10.261  14.805  0.00  0.00    +0.000 NA
ATOM     26  C   UNL     1      51.140  10.015  13.557  0.00  0.00    +0.000 A 
ATOM     27  N   UNL     1      50.721   8.898  12.887  0.00  0.00    +0.000 N 
ATOM     28  C   UNL     1      49.928   7.942  13.466  0.00  0.00    +0.000 A 
ATOM     29  O   UNL     1      49.422   7.048  12.786  0.00  0.00    +0.000 OA
ATOM     30  C   UNL     1      49.703   8.120  14.884  0.00  0.00    +0.000 A 
ATOM     31  H   UNL     1      50.895   8.792  11.899  0.00  0.00    +0.000 HD
ENDBRANCH  18  21
ENDBRANCH   1  19
TORSDOF 7
ENDMDL
MODEL 7
REMARK VINA RESULT:    -6.703      3.370      7.930
REMARK INTER + INTRA:         -10.667
REMARK INTER:                  -9.299
REMARK INTRA:                  -1.369
REMARK UNBOUND:                -1.221
REMARK  Name = 
REMARK  7 active torsions:
REMARK  status: ('A' for Active; 'I' for Inactive)
REMARK    1  A    between atoms: C_2  and  C_19
REMARK    2  A    between atoms: N_3  and  C_4
REMARK    3  A    between atoms: C_4  and  C_5
REMARK    4  A    between atoms: C_8  and  C_9
REMARK    5  A    between atoms: C_9  and  N_10
REMARK    6  A    between atoms: N_10  and  C_11
REMARK    7  A    between atoms: C_11  and  C_12
REMARK                            x       y       z     vdW  Elec       q    Type
REMARK                         _______ _______ _______ _____ _____    ______ ____
ROOT
ATOM      1  C   UNL     1      48.254   7.874  12.365  0.00  0.00    +0.000 C 
ENDROOT
BRANCH   1   2
ATOM      2  C   UNL     1      48.899   7.461  13.661  0.00  0.00    +0.000 A 
ATOM      3  C   UNL     1      50.235   7.789  13.918  0.00  0.00    +0.000 A 
ATOM      4  C   UNL     1      50.827   7.468  15.143  0.00  0.00    +0.000 A 
ATOM      5  C   UNL     1      50.095   6.820  16.150  0.00  0.00    +0.000 A 
ATOM      6  C   UNL     1      48.773   6.446  15.869  0.00  0.00    +0.000 A 
ATOM      7  C   UNL     1      48.183   6.756  14.637  0.00  0.00    +0.000 A 
BRANCH   5   8
ATOM      8  C   UNL     1      50.716   6.464  17.490  0.00  0.00    +0.000 C 
BRANCH   8   9
ATOM      9  N   UNL     1      50.117   5.264  18.082  0.00  0.00    +0.000 NA
ATOM     10  H   UNL     1      49.106   5.311  17.958  0.00  0.00    +0.000 HD
BRANCH   9  11
ATOM     11  C   UNL     1      50.642   4.025  17.504  0.00  0.00    +0.000 C 
BRANCH  11  12
ATOM     12  C   UNL     1      49.684   2.857  17.812  0.00  0.00    +0.000 C 
ATOM     13  C   UNL     1      49.081   2.226  16.569  0.00  0.00    +0.000 C 
ATOM     14  C   UNL     1      47.856   3.074  16.305  0.00  0.00    +0.000 C 
ATOM     15  O   UNL     1      47.439   3.623  17.561  0.00  0.00    +0.000 OA
ATOM     16  C   UNL     1      48.433   3.317  18.548  0.00  0.00    +0.000 C 
ENDBRANCH  11  12
ENDBRANCH   9  11
ENDBRANCH   8   9
ENDBRANCH   5   8
ENDBRANCH   1   2
BRANCH   1  19
ATOM     17  O   UNL     1      45.503   7.879  11.759  0.00  0.00    +0.000 OA
ATOM     18  C   UNL     1      46.179   6.901  11.457  0.00  0.00    +0.000 C 
ATOM     19  N   UNL     1      47.514   6.804  11.751  0.00  0.00    +0.000 N 
ATOM     20  H   UNL     1      48.063   6.051  11.351  0.00  0.00    +0.000 HD
BRANCH  18  21
ATOM     21  C   UNL     1      45.580   5.736  10.798  0.00  0.00    +0.000 A 
ATOM     22  C   UNL     1      45.820   5.495   9.451  0.00  0.00    +0.000 A 
ATOM     23  S   UNL     1      45.086   4.066   8.874  0.00  0.00    +0.000 S 
ATOM     24  C   UNL     1      44.440   3.713  10.408  0.00  0.00    +0.000 A 
ATOM     25  N   UNL     1      43.726   2.575  10.626  0.00  0.00    +0.000 NA
ATOM     26  C   UNL     1      43.333   2.421  11.849  0.00  0.00    +0.000 A 
ATOM     27  N   UNL     1      43.570   3.307  12.864  0.00  0.00    +0.000 N 
ATOM     28  C   UNL     1      44.200   4.508  12.666  0.00  0.00    +0.000 A 
ATOM     29  O   UNL     1      44.235   5.355  13.559  0.00  0.00    +0.000 OA
ATOM     30  C   UNL     1      44.739   4.696  11.336  0.00  0.00    +0.000 A 
ATOM     31  H   UNL     1      43.190   3.152  13.786  0.00  0.00    +0.000 HD
ENDBRANCH  18  21
ENDBRANCH   1  19
TORSDOF 7
ENDMDL
MODEL 8
REMARK VINA RESULT:    -6.517      2.273      3.165
REMARK INTER + INTRA:         -10.405
REMARK INTER:                  -9.458
REMARK INTRA:                  -0.947
REMARK UNBOUND:                -1.221
REMARK  Name = 
REMARK  7 active torsions:
REMARK  status: ('A' for Active; 'I' for Inactive)
REMARK    1  A    between atoms: C_2  and  C_19
REMARK    2  A    between atoms: N_3  and  C_4
REMARK    3  A    between atoms: C_4  and  C_5
REMARK    4  A    between atoms: C_8  and  C_9
REMARK    5  A    between atoms: C_9  and  N_10
REMARK    6  A    between atoms: N_10  and  C_11
REMARK    7  A    between atoms: C_11  and  C_12
REMARK                            x       y       z     vdW  Elec       q    Type
REMARK                         _______ _______ _______ _____ _____    ______ ____
ROOT
ATOM      1  C   UNL     1      46.790   4.422  14.811  0.00  0.00    +0.000 C 
ENDROOT
BRANCH   1   2
ATOM      2  C   UNL     1      46.171   4.438  13.438  0.00  0.00    +0.000 A 
ATOM      3  C   UNL     1      46.045   5.644  12.738  0.00  0.00    +0.000 A 
ATOM      4  C   UNL     1      45.532   5.664  11.438  0.00  0.00    +0.000 A 
ATOM      5  C   UNL     1      45.142   4.479  10.798  0.00  0.00    +0.000 A 
ATOM      6  C   UNL     1      45.220   3.279  11.522  0.00  0.00    +0.000 A 
ATOM      7  C   UNL     1      45.723   3.260  12.829  0.00  0.00    +0.000 A 
BRANCH   5   8
ATOM      8  C   UNL     1      44.584   4.476   9.384  0.00  0.00    +0.000 C 
BRANCH   8   9
ATOM      9  N   UNL     1      45.509   5.075   8.417  0.00  0.00    +0.000 NA
ATOM     10  H   UNL     1      45.906   5.920   8.829  0.00  0.00    +0.000 HD
BRANCH   9  11
ATOM     11  C   UNL     1      46.576   4.158   8.010  0.00  0.00    +0.000 C 
BRANCH  11  12
ATOM     12  C   UNL     1      45.980   2.988   7.203  0.00  0.00    +0.000 C 
ATOM     13  C   UNL     1      46.203   1.632   7.849  0.00  0.00    +0.000 C 
ATOM     14  C   UNL     1      47.561   1.214   7.327  0.00  0.00    +0.000 C 
ATOM     15  O   UNL     1      47.751   1.865   6.065  0.00  0.00    +0.000 OA
ATOM     16  C   UNL     1      46.679   2.797   5.864  0.00  0.00    +0.000 C 
ENDBRANCH  11  12
ENDBRANCH   9  11
ENDBRANCH   8   9
ENDBRANCH   5   8
ENDBRANCH   1   2
BRANCH   1  19
ATOM     17  O   UNL     1      48.964   4.712  16.580  0.00  0.00    +0.000 OA
ATOM     18  C   UNL     1      48.555   5.695  15.968  0.00  0.00    +0.000 C 
ATOM     19  N   UNL     1      47.480   5.645  15.120  0.00  0.00    +0.000 N 
ATOM     20  H   UNL     1      47.275   6.439  14.523  0.00  0.00    +0.000 HD
BRANCH  18  21
ATOM     21  C   UNL     1      49.171   7.013  16.149  0.00  0.00    +0.000 A 
ATOM     22  C   UNL     1      50.095   7.486  15.225  0.00  0.00    +0.000 A 
ATOM     23  S   UNL     1      50.660   9.058  15.572  0.00  0.00    +0.000 S 
ATOM     24  C   UNL     1      49.675   9.167  16.956  0.00  0.00    +0.000 A 
ATOM     25  N   UNL     1      49.641  10.301  17.708  0.00  0.00    +0.000 NA
ATOM     26  C   UNL     1      48.818  10.252  18.704  0.00  0.00    +0.000 A 
ATOM     27  N   UNL     1      48.046   9.170  19.029  0.00  0.00    +0.000 N 
ATOM     28  C   UNL     1      48.123   7.978  18.357  0.00  0.00    +0.000 A 
ATOM     29  O   UNL     1      47.551   6.975  18.786  0.00  0.00    +0.000 OA
ATOM     30  C   UNL     1      48.963   8.001  17.178  0.00  0.00    +0.000 A 
ATOM     31  H   UNL     1      47.462   9.178  19.852  0.00  0.00    +0.000 HD
ENDBRANCH  18  21
ENDBRANCH   1  19
TORSDOF 7
ENDMDL
MODEL 9
REMARK VINA RESULT:    -6.295      4.747      7.555
REMARK INTER + INTRA:         -10.093
REMARK INTER:                  -9.059
REMARK INTRA:                  -1.033
REMARK UNBOUND:                -1.221
REMARK  Name = 
REMARK  7 active torsions:
REMARK  status: ('A' for Active; 'I' for Inactive)
REMARK    1  A    between atoms: C_2  and  C_19
REMARK    2  A    between atoms: N_3  and  C_4
REMARK    3  A    between atoms: C_4  and  C_5
REMARK    4  A    between atoms: C_8  and  C_9
REMARK    5  A    between atoms: C_9  and  N_10
REMARK    6  A    between atoms: N_10  and  C_11
REMARK    7  A    between atoms: C_11  and  C_12
REMARK                            x       y       z     vdW  Elec       q    Type
REMARK                         _______ _______ _______ _____ _____    ______ ____
ROOT
ATOM      1  C   UNL     1      46.667   8.471  12.599  0.00  0.00    +0.000 C 
ENDROOT
BRANCH   1   2
ATOM      2  C   UNL     1      48.090   8.576  12.120  0.00  0.00    +0.000 A 
ATOM      3  C   UNL     1      48.630   9.822  11.784  0.00  0.00    +0.000 A 
ATOM      4  C   UNL     1      49.969   9.941  11.400  0.00  0.00    +0.000 A 
ATOM      5  C   UNL     1      50.808   8.818  11.353  0.00  0.00    +0.000 A 
ATOM      6  C   UNL     1      50.250   7.563  11.639  0.00  0.00    +0.000 A 
ATOM      7  C   UNL     1      48.905   7.442  12.012  0.00  0.00    +0.000 A 
BRANCH   5   8
ATOM      8  C   UNL     1      52.267   8.923  10.941  0.00  0.00    +0.000 C 
BRANCH   8   9
ATOM      9  N   UNL     1      52.428   9.119   9.497  0.00  0.00    +0.000 NA
ATOM     10  H   UNL     1      52.767  10.067   9.335  0.00  0.00    +0.000 HD
BRANCH   9  11
ATOM     11  C   UNL     1      53.336   8.143   8.891  0.00  0.00    +0.000 C 
BRANCH  11  12
ATOM     12  C   UNL     1      52.647   6.766   8.811  0.00  0.00    +0.000 C 
ATOM     13  C   UNL     1      53.585   5.604   9.084  0.00  0.00    +0.000 C 
ATOM     14  C   UNL     1      54.182   5.309   7.725  0.00  0.00    +0.000 C 
ATOM     15  O   UNL     1      53.233   5.736   6.741  0.00  0.00    +0.000 OA
ATOM     16  C   UNL     1      52.172   6.440   7.402  0.00  0.00    +0.000 C 
ENDBRANCH  11  12
ENDBRANCH   9  11
ENDBRANCH   8   9
ENDBRANCH   5   8
ENDBRANCH   1   2
BRANCH   1  19
ATOM     17  O   UNL     1      44.483   7.714  10.987  0.00  0.00    +0.000 OA
ATOM     18  C   UNL     1      45.086   6.853  11.621  0.00  0.00    +0.000 C 
ATOM     19  N   UNL     1      46.132   7.143  12.456  0.00  0.00    +0.000 N 
ATOM     20  H   UNL     1      46.694   6.391  12.837  0.00  0.00    +0.000 HD
BRANCH  18  21
ATOM     21  C   UNL     1      44.684   5.444  11.560  0.00  0.00    +0.000 A 
ATOM     22  C   UNL     1      44.071   4.843  12.652  0.00  0.00    +0.000 A 
ATOM     23  S   UNL     1      43.627   3.219  12.376  0.00  0.00    +0.000 S 
ATOM     24  C   UNL     1      44.221   3.270  10.782  0.00  0.00    +0.000 A 
ATOM     25  N   UNL     1      44.107   2.196   9.954  0.00  0.00    +0.000 NA
ATOM     26  C   UNL     1      44.567   2.394   8.762  0.00  0.00    +0.000 A 
ATOM     27  N   UNL     1      45.146   3.556   8.330  0.00  0.00    +0.000 N 
ATOM     28  C   UNL     1      45.366   4.625   9.158  0.00  0.00    +0.000 A 
ATOM     29  O   UNL     1      46.049   5.580   8.786  0.00  0.00    +0.000 OA
ATOM     30  C   UNL     1      44.794   4.493  10.482  0.00  0.00    +0.000 A 
ATOM     31  H   UNL     1      45.532   3.628   7.400  0.00  0.00    +0.000 HD
ENDBRANCH  18  21
ENDBRANCH   1  19
TORSDOF 7
ENDMDL
