MODEL 1
REMARK VINA RESULT:    -7.126      0.000      0.000
REMARK INTER + INTRA:          -9.407
REMARK INTER:                  -9.001
REMARK INTRA:                  -0.406
REMARK UNBOUND:                -0.406
REMARK  Name = 
REMARK  5 active torsions:
REMARK  status: ('A' for Active; 'I' for Inactive)
REMARK    1  A    between atoms: N_1  and  C_2
REMARK    2  A    between atoms: C_2  and  C_3
REMARK    3  A    between atoms: C_6  and  O_7
REMARK    4  A    between atoms: O_7  and  C_8
REMARK    5  A    between atoms: C_8  and  C_9
REMARK                            x       y       z     vdW  Elec       q    Type
REMARK                         _______ _______ _______ _____ _____    ______ ____
ROOT
ATOM      1  C   UNL     1      46.548   2.628   6.894  0.00  0.00    +0.000 A 
ATOM      2  C   UNL     1      45.740   3.702   7.286  0.00  0.00    +0.000 A 
ATOM      3  C   UNL     1      44.890   3.571   8.382  0.00  0.00    +0.000 A 
ATOM      4  C   UNL     1      44.886   2.369   9.069  0.00  0.00    +0.000 A 
ATOM      5  N   UNL     1      45.655   1.313   8.725  0.00  0.00    +0.000 NA
ATOM      6  C   UNL     1      46.456   1.465   7.649  0.00  0.00    +0.000 A 
ENDROOT
BRANCH   1   7
ATOM      7  C   UNL     1      47.437   2.697   5.686  0.00  0.00    +0.000 C 
BRANCH   7   8
ATOM      8  N   UNL     1      48.575   1.792   5.792  0.00  0.00    +0.000 NA
ATOM      9  H   UNL     1      48.849   1.492   4.858  0.00  0.00    +0.000 HD
ATOM     10  H   UNL     1      48.288   0.949   6.289  0.00  0.00    +0.000 HD
ENDBRANCH   7   8
ENDBRANCH   1   7
BRANCH   4  11
ATOM     11  O   UNL     1      44.006   2.247  10.129  0.00  0.00    +0.000 OA
BRANCH  11  12
ATOM     12  C   UNL     1      43.789   3.494  10.796  0.00  0.00    +0.000 C 
BRANCH  12  13
ATOM     13  C   UNL     1      44.074   3.349  12.304  0.00  0.00    +0.000 C 
ATOM     14  C   UNL     1      43.282   4.391  13.112  0.00  0.00    +0.000 C 
ATOM     15  C   UNL     1      43.855   5.803  12.967  0.00  0.00    +0.000 C 
ATOM     16  N   UNL     1      45.279   5.859  13.301  0.00  0.00    +0.000 NA
ATOM     17  C   UNL     1      46.059   4.928  12.480  0.00  0.00    +0.000 C 
ATOM     18  C   UNL     1      45.568   3.489  12.641  0.00  0.00    +0.000 C 
ATOM     19  H   UNL     1      45.400   5.610  14.284  0.00  0.00    +0.000 HD
ENDBRANCH  12  13
ENDBRANCH  11  12
ENDBRANCH   4  11
TORSDOF 5
ENDMDL
MODEL 2
REMARK VINA RESULT:    -7.025      1.400      1.949
REMARK INTER + INTRA:          -9.279
REMARK INTER:                  -8.815
REMARK INTRA:                  -0.464
REMARK UNBOUND:                -0.406
REMARK  Name = 
REMARK  5 active torsions:
REMARK  status: ('A' for Active; 'I' for Inactive)
REMARK    1  A    between atoms: N_1  and  C_2
REMARK    2  A    between atoms: C_2  and  C_3
REMARK    3  A    between atoms: C_6  and  O_7
REMARK    4  A    between atoms: O_7  and  C_8
REMARK    5  A    between atoms: C_8  and  C_9
REMARK                            x       y       z     vdW  Elec       q    Type
REMARK                         _______ _______ _______ _____ _____    ______ ____
ROOT
ATOM      1  C   UNL     1      46.611   2.290   7.492  0.00  0.00    +0.000 A 
ATOM      2  C   UNL     1      45.792   1.614   8.404  0.00  0.00    +0.000 A 
ATOM      3  C   UNL     1      44.847   2.319   9.147  0.00  0.00    +0.000 A 
ATOM      4  C   UNL     1      44.736   3.683   8.943  0.00  0.00    +0.000 A 
ATOM      5  N   UNL     1      45.503   4.369   8.068  0.00  0.00    +0.000 NA
ATOM      6  C   UNL     1      46.420   3.662   7.375  0.00  0.00    +0.000 A 
ENDROOT
BRANCH   1   7
ATOM      7  C   UNL     1      47.683   1.590   6.709  0.00  0.00    +0.000 C 
BRANCH   7   8
ATOM      8  N   UNL     1      48.671   2.521   6.179  0.00  0.00    +0.000 NA
ATOM      9  H   UNL     1      49.323   2.012   5.584  0.00  0.00    +0.000 HD
ATOM     10  H   UNL     1      49.223   2.899   6.948  0.00  0.00    +0.000 HD
ENDBRANCH   7   8
ENDBRANCH   1   7
BRANCH   4  11
ATOM     11  O   UNL     1      43.819   4.369   9.720  0.00  0.00    +0.000 OA
BRANCH  11  12
ATOM     12  C   UNL     1      44.448   5.336  10.566  0.00  0.00    +0.000 C 
BRANCH  12  13
ATOM     13  C   UNL     1      43.965   5.166  12.020  0.00  0.00    +0.000 C 
ATOM     14  C   UNL     1      44.820   6.008  12.981  0.00  0.00    +0.000 C 
ATOM     15  C   UNL     1      46.215   5.414  13.198  0.00  0.00    +0.000 C 
ATOM     16  N   UNL     1      46.159   4.019  13.637  0.00  0.00    +0.000 NA
ATOM     17  C   UNL     1      45.415   3.187  12.686  0.00  0.00    +0.000 C 
ATOM     18  C   UNL     1      43.989   3.701  12.486  0.00  0.00    +0.000 C 
ATOM     19  H   UNL     1      45.696   3.975  14.545  0.00  0.00    +0.000 HD
ENDBRANCH  12  13
ENDBRANCH  11  12
ENDBRANCH   4  11
TORSDOF 5
ENDMDL
MODEL 3
REMARK VINA RESULT:    -7.008      1.360      1.790
REMARK INTER + INTRA:          -9.258
REMARK INTER:                  -8.978
REMARK INTRA:                  -0.280
REMARK UNBOUND:                -0.406
REMARK  Name = 
REMARK  5 active torsions:
REMARK  status: ('A' for Active; 'I' for Inactive)
REMARK    1  A    between atoms: N_1  and  C_2
REMARK    2  A    between atoms: C_2  and  C_3
REMARK    3  A    between atoms: C_6  and  O_7
REMARK    4  A    between atoms: O_7  and  C_8
REMARK    5  A    between atoms: C_8  and  C_9
REMARK                            x       y       z     vdW  Elec       q    Type
REMARK                         _______ _______ _______ _____ _____    ______ ____
ROOT
ATOM      1  C   UNL     1      47.069   2.546   7.295  0.00  0.00    +0.000 A 
ATOM      2  C   UNL     1      46.302   1.671   8.073  0.00  0.00    +0.000 A 
ATOM      3  C   UNL     1      45.220   2.157   8.805  0.00  0.00    +0.000 A 
ATOM      4  C   UNL     1      44.924   3.506   8.722  0.00  0.00    +0.000 A 
ATOM      5  N   UNL     1      45.637   4.380   7.978  0.00  0.00    +0.000 NA
ATOM      6  C   UNL     1      46.689   3.883   7.294  0.00  0.00    +0.000 A 
ENDROOT
BRANCH   1   7
ATOM      7  C   UNL     1      48.280   2.087   6.535  0.00  0.00    +0.000 C 
BRANCH   7   8
ATOM      8  N   UNL     1      48.232   2.487   5.135  0.00  0.00    +0.000 NA
ATOM      9  H   UNL     1      48.774   1.825   4.581  0.00  0.00    +0.000 HD
ATOM     10  H   UNL     1      48.692   3.390   5.028  0.00  0.00    +0.000 HD
ENDBRANCH   7   8
ENDBRANCH   1   7
BRANCH   4  11
ATOM     11  O   UNL     1      43.870   3.974   9.487  0.00  0.00    +0.000 OA
BRANCH  11  12
ATOM     12  C   UNL     1      43.912   3.470  10.825  0.00  0.00    +0.000 C 
BRANCH  12  13
ATOM     13  C   UNL     1      43.005   4.315  11.742  0.00  0.00    +0.000 C 
ATOM     14  C   UNL     1      42.904   5.761  11.227  0.00  0.00    +0.000 C 
ATOM     15  C   UNL     1      44.186   6.561  11.474  0.00  0.00    +0.000 C 
ATOM     16  N   UNL     1      44.591   6.537  12.880  0.00  0.00    +0.000 NA
ATOM     17  C   UNL     1      44.771   5.164  13.363  0.00  0.00    +0.000 C 
ATOM     18  C   UNL     1      43.494   4.339  13.200  0.00  0.00    +0.000 C 
ATOM     19  H   UNL     1      43.869   6.990  13.442  0.00  0.00    +0.000 HD
ENDBRANCH  12  13
ENDBRANCH  11  12
ENDBRANCH   4  11
TORSDOF 5
ENDMDL
MODEL 4
REMARK VINA RESULT:    -5.735      4.263      6.327
REMARK INTER + INTRA:          -7.650
REMARK INTER:                  -7.268
REMARK INTRA:                  -0.382
REMARK UNBOUND:                -0.406
REMARK  Name = 
REMARK  5 active torsions:
REMARK  status: ('A' for Active; 'I' for Inactive)
REMARK    1  A    between atoms: N_1  and  C_2
REMARK    2  A    between atoms: C_2  and  C_3
REMARK    3  A    between atoms: C_6  and  O_7
REMARK    4  A    between atoms: O_7  and  C_8
REMARK    5  A    between atoms: C_8  and  C_9
REMARK                            x       y       z     vdW  Elec       q    Type
REMARK                         _______ _______ _______ _____ _____    ______ ____
ROOT
ATOM      1  C   UNL     1      44.383   4.892  11.936  0.00  0.00    +0.000 A 
ATOM      2  C   UNL     1      45.102   5.822  12.697  0.00  0.00    +0.000 A 
ATOM      3  C   UNL     1      46.093   5.386  13.574  0.00  0.00    +0.000 A 
ATOM      4  C   UNL     1      46.351   4.028  13.651  0.00  0.00    +0.000 A 
ATOM      5  N   UNL     1      45.682   3.102  12.930  0.00  0.00    +0.000 NA
ATOM      6  C   UNL     1      44.717   3.553  12.101  0.00  0.00    +0.000 A 
ENDROOT
BRANCH   1   7
ATOM      7  C   UNL     1      43.265   5.302  11.022  0.00  0.00    +0.000 C 
BRANCH   7   8
ATOM      8  N   UNL     1      42.216   6.025  11.729  0.00  0.00    +0.000 NA
ATOM      9  H   UNL     1      41.312   5.621  11.486  0.00  0.00    +0.000 HD
ATOM     10  H   UNL     1      42.193   6.990  11.401  0.00  0.00    +0.000 HD
ENDBRANCH   7   8
ENDBRANCH   1   7
BRANCH   4  11
ATOM     11  O   UNL     1      47.311   3.615  14.557  0.00  0.00    +0.000 OA
BRANCH  11  12
ATOM     12  C   UNL     1      47.515   4.571  15.601  0.00  0.00    +0.000 C 
BRANCH  12  13
ATOM     13  C   UNL     1      47.134   3.962  16.964  0.00  0.00    +0.000 C 
ATOM     14  C   UNL     1      47.409   4.958  18.103  0.00  0.00    +0.000 C 
ATOM     15  C   UNL     1      48.904   5.110  18.399  0.00  0.00    +0.000 C 
ATOM     16  N   UNL     1      49.549   3.823  18.666  0.00  0.00    +0.000 NA
ATOM     17  C   UNL     1      49.364   2.890  17.551  0.00  0.00    +0.000 C 
ATOM     18  C   UNL     1      47.882   2.651  17.257  0.00  0.00    +0.000 C 
ATOM     19  H   UNL     1      49.140   3.415  19.507  0.00  0.00    +0.000 HD
ENDBRANCH  12  13
ENDBRANCH  11  12
ENDBRANCH   4  11
TORSDOF 5
ENDMDL
MODEL 5
REMARK VINA RESULT:    -5.603      1.766      6.191
REMARK INTER + INTRA:          -7.483
REMARK INTER:                  -7.088
REMARK INTRA:                  -0.395
REMARK UNBOUND:                -0.406
REMARK  Name = 
REMARK  5 active torsions:
REMARK  status: ('A' for Active; 'I' for Inactive)
REMARK    1  A    between atoms: N_1  and  C_2
REMARK    2  A    between atoms: C_2  and  C_3
REMARK    3  A    between atoms: C_6  and  O_7
REMARK    4  A    between atoms: O_7  and  C_8
REMARK    5  A    between atoms: C_8  and  C_9
REMARK                            x       y       z     vdW  Elec       q    Type
REMARK                         _______ _______ _______ _____ _____    ______ ____
ROOT
ATOM      1  C   UNL     1      45.896   4.685  12.790  0.00  0.00    +0.000 A 
ATOM      2  C   UNL     1      46.258   5.815  12.047  0.00  0.00    +0.000 A 
ATOM      3  C   UNL     1      45.986   5.867  10.681  0.00  0.00    +0.000 A 
ATOM      4  C   UNL     1      45.341   4.790  10.099  0.00  0.00    +0.000 A 
ATOM      5  N   UNL     1      44.971   3.685  10.784  0.00  0.00    +0.000 NA
ATOM      6  C   UNL     1      45.262   3.658  12.101  0.00  0.00    +0.000 A 
ENDROOT
BRANCH   1   7
ATOM      7  C   UNL     1      46.218   4.552  14.251  0.00  0.00    +0.000 C 
BRANCH   7   8
ATOM      8  N   UNL     1      47.160   5.571  14.698  0.00  0.00    +0.000 NA
ATOM      9  H   UNL     1      46.716   6.486  14.632  0.00  0.00    +0.000 HD
ATOM     10  H   UNL     1      47.956   5.594  14.061  0.00  0.00    +0.000 HD
ENDBRANCH   7   8
ENDBRANCH   1   7
BRANCH   4  11
ATOM     11  O   UNL     1      45.116   4.845   8.735  0.00  0.00    +0.000 OA
BRANCH  11  12
ATOM     12  C   UNL     1      46.231   4.354   7.986  0.00  0.00    +0.000 C 
BRANCH  12  13
ATOM     13  C   UNL     1      45.759   3.324   6.940  0.00  0.00    +0.000 C 
ATOM     14  C   UNL     1      45.454   1.972   7.605  0.00  0.00    +0.000 C 
ATOM     15  C   UNL     1      46.723   1.222   8.018  0.00  0.00    +0.000 C 
ATOM     16  N   UNL     1      47.654   1.054   6.901  0.00  0.00    +0.000 NA
ATOM     17  C   UNL     1      48.019   2.344   6.308  0.00  0.00    +0.000 C 
ATOM     18  C   UNL     1      46.787   3.106   5.817  0.00  0.00    +0.000 C 
ATOM     19  H   UNL     1      47.212   0.477   6.185  0.00  0.00    +0.000 HD
ENDBRANCH  12  13
ENDBRANCH  11  12
ENDBRANCH   4  11
TORSDOF 5
ENDMDL
MODEL 6
REMARK VINA RESULT:    -5.412      3.884      7.389
REMARK INTER + INTRA:          -7.241
REMARK INTER:                  -6.880
REMARK INTRA:                  -0.361
REMARK UNBOUND:                -0.406
REMARK  Name = 
REMARK  5 active torsions:
REMARK  status: ('A' for Active; 'I' for Inactive)
REMARK    1  A    between atoms: N_1  and  C_2
REMARK    2  A    between atoms: C_2  and  C_3
REMARK    3  A    between atoms: C_6  and  O_7
REMARK    4  A    between atoms: O_7  and  C_8
REMARK    5  A    between atoms: C_8  and  C_9
REMARK                            x       y       z     vdW  Elec       q    Type
REMARK                         _______ _______ _______ _____ _____    ______ ____
ROOT
ATOM      1  C   UNL     1      48.425   4.518  17.054  0.00  0.00    +0.000 A 
ATOM      2  C   UNL     1      48.509   5.743  16.381  0.00  0.00    +0.000 A 
ATOM      3  C   UNL     1      47.948   5.881  15.113  0.00  0.00    +0.000 A 
ATOM      4  C   UNL     1      47.299   4.792  14.560  0.00  0.00    +0.000 A 
ATOM      5  N   UNL     1      47.192   3.596  15.180  0.00  0.00    +0.000 NA
ATOM      6  C   UNL     1      47.759   3.488  16.400  0.00  0.00    +0.000 A 
ENDROOT
BRANCH   1   7
ATOM      7  C   UNL     1      49.063   4.297  18.395  0.00  0.00    +0.000 C 
BRANCH   7   8
ATOM      8  N   UNL     1      48.412   3.227  19.141  0.00  0.00    +0.000 NA
ATOM      9  H   UNL     1      48.637   3.327  20.129  0.00  0.00    +0.000 HD
ATOM     10  H   UNL     1      48.801   2.331  18.850  0.00  0.00    +0.000 HD
ENDBRANCH   7   8
ENDBRANCH   1   7
BRANCH   4  11
ATOM     11  O   UNL     1      46.784   4.939  13.284  0.00  0.00    +0.000 OA
BRANCH  11  12
ATOM     12  C   UNL     1      45.465   5.493  13.297  0.00  0.00    +0.000 C 
BRANCH  12  13
ATOM     13  C   UNL     1      44.434   4.424  12.886  0.00  0.00    +0.000 C 
ATOM     14  C   UNL     1      44.896   3.677  11.623  0.00  0.00    +0.000 C 
ATOM     15  C   UNL     1      44.767   4.530  10.358  0.00  0.00    +0.000 C 
ATOM     16  N   UNL     1      43.414   5.060  10.183  0.00  0.00    +0.000 NA
ATOM     17  C   UNL     1      42.991   5.844  11.347  0.00  0.00    +0.000 C 
ATOM     18  C   UNL     1      43.037   5.015  12.631  0.00  0.00    +0.000 C 
ATOM     19  H   UNL     1      42.766   4.281  10.059  0.00  0.00    +0.000 HD
ENDBRANCH  12  13
ENDBRANCH  11  12
ENDBRANCH   4  11
TORSDOF 5
ENDMDL
MODEL 7
REMARK VINA RESULT:    -5.236      4.172      7.506
REMARK INTER + INTRA:          -7.019
REMARK INTER:                  -6.651
REMARK INTRA:                  -0.368
REMARK UNBOUND:                -0.406
REMARK  Name = 
REMARK  5 active torsions:
REMARK  status: ('A' for Active; 'I' for Inactive)
REMARK    1  A    between atoms: N_1  and  C_2
REMARK    2  A    between atoms: C_2  and  C_3
REMARK    3  A    between atoms: C_6  and  O_7
REMARK    4  A    between atoms: O_7  and  C_8
REMARK    5  A    between atoms: C_8  and  C_9
REMARK                            x       y       z     vdW  Elec       q    Type
REMARK                         _______ _______ _______ _____ _____    ______ ____
ROOT
ATOM      1  C   UNL     1      48.458   4.555  17.102  0.00  0.00    +0.000 A 
ATOM      2  C   UNL     1      47.586   3.722  16.392  0.00  0.00    +0.000 A 
ATOM      3  C   UNL     1      47.100   4.121  15.148  0.00  0.00    +0.000 A 
ATOM      4  C   UNL     1      47.519   5.338  14.639  0.00  0.00    +0.000 A 
ATOM      5  N   UNL     1      48.364   6.166  15.292  0.00  0.00    +0.000 NA
ATOM      6  C   UNL     1      48.804   5.759  16.501  0.00  0.00    +0.000 A 
ENDROOT
BRANCH   1   7
ATOM      7  C   UNL     1      48.963   4.201  18.471  0.00  0.00    +0.000 C 
BRANCH   7   8
ATOM      8  N   UNL     1      48.193   3.122  19.076  0.00  0.00    +0.000 NA
ATOM      9  H   UNL     1      48.825   2.363  19.327  0.00  0.00    +0.000 HD
ATOM     10  H   UNL     1      47.550   2.739  18.384  0.00  0.00    +0.000 HD
ENDBRANCH   7   8
ENDBRANCH   1   7
BRANCH   4  11
ATOM     11  O   UNL     1      46.994   5.731  13.421  0.00  0.00    +0.000 OA
BRANCH  11  12
ATOM     12  C   UNL     1      45.642   5.295  13.251  0.00  0.00    +0.000 C 
BRANCH  12  13
ATOM     13  C   UNL     1      45.398   4.873  11.789  0.00  0.00    +0.000 C 
ATOM     14  C   UNL     1      44.264   5.701  11.163  0.00  0.00    +0.000 C 
ATOM     15  C   UNL     1      42.884   5.293  11.688  0.00  0.00    +0.000 C 
ATOM     16  N   UNL     1      42.632   3.860  11.527  0.00  0.00    +0.000 NA
ATOM     17  C   UNL     1      43.664   3.057  12.189  0.00  0.00    +0.000 C 
ATOM     18  C   UNL     1      45.059   3.379  11.652  0.00  0.00    +0.000 C 
ATOM     19  H   UNL     1      42.628   3.634  10.532  0.00  0.00    +0.000 HD
ENDBRANCH  12  13
ENDBRANCH  11  12
ENDBRANCH   4  11
TORSDOF 5
ENDMDL
MODEL 8
REMARK VINA RESULT:    -4.834      2.968      4.655
REMARK INTER + INTRA:          -6.511
REMARK INTER:                  -6.129
REMARK INTRA:                  -0.382
REMARK UNBOUND:                -0.406
REMARK  Name = 
REMARK  5 active torsions:
REMARK  status: ('A' for Active; 'I' for Inactive)
REMARK    1  A    between atoms: N_1  and  C_2
REMARK    2  A    between atoms: C_2  and  C_3
REMARK    3  A    between atoms: C_6  and  O_7
REMARK    4  A    between atoms: O_7  and  C_8
REMARK    5  A    between atoms: C_8  and  C_9
REMARK                            x       y       z     vdW  Elec       q    Type
REMARK                         _______ _______ _______ _____ _____    ______ ____
ROOT
ATOM      1  C   UNL     1      44.807   3.423  10.161  0.00  0.00    +0.000 A 
ATOM      2  C   UNL     1      45.299   4.642   9.679  0.00  0.00    +0.000 A 
ATOM      3  C   UNL     1      45.479   5.714  10.550  0.00  0.00    +0.000 A 
ATOM      4  C   UNL     1      45.177   5.530  11.888  0.00  0.00    +0.000 A 
ATOM      5  N   UNL     1      44.706   4.368  12.392  0.00  0.00    +0.000 NA
ATOM      6  C   UNL     1      44.528   3.353  11.521  0.00  0.00    +0.000 A 
ENDROOT
BRANCH   1   7
ATOM      7  C   UNL     1      44.539   2.255   9.256  0.00  0.00    +0.000 C 
BRANCH   7   8
ATOM      8  N   UNL     1      45.770   1.637   8.781  0.00  0.00    +0.000 NA
ATOM      9  H   UNL     1      46.565   2.188   9.103  0.00  0.00    +0.000 HD
ATOM     10  H   UNL     1      45.793   1.674   7.763  0.00  0.00    +0.000 HD
ENDBRANCH   7   8
ENDBRANCH   1   7
BRANCH   4  11
ATOM     11  O   UNL     1      45.326   6.619  12.728  0.00  0.00    +0.000 OA
BRANCH  11  12
ATOM     12  C   UNL     1      45.956   7.723  12.072  0.00  0.00    +0.000 C 
BRANCH  12  13
ATOM     13  C   UNL     1      47.047   8.329  12.977  0.00  0.00    +0.000 C 
ATOM     14  C   UNL     1      48.202   8.896  12.135  0.00  0.00    +0.000 C 
ATOM     15  C   UNL     1      49.079   7.797  11.528  0.00  0.00    +0.000 C 
ATOM     16  N   UNL     1      49.581   6.868  12.541  0.00  0.00    +0.000 NA
ATOM     17  C   UNL     1      48.485   6.256  13.298  0.00  0.00    +0.000 C 
ATOM     18  C   UNL     1      47.616   7.313  13.981  0.00  0.00    +0.000 C 
ATOM     19  H   UNL     1      50.184   7.377  13.189  0.00  0.00    +0.000 HD
ENDBRANCH  12  13
ENDBRANCH  11  12
ENDBRANCH   4  11
TORSDOF 5
ENDMDL
MODEL 9
REMARK VINA RESULT:    -4.647      3.966      6.021
REMARK INTER + INTRA:          -6.276
REMARK INTER:                  -5.860
REMARK INTRA:                  -0.416
REMARK UNBOUND:                -0.406
REMARK  Name = 
REMARK  5 active torsions:
REMARK  status: ('A' for Active; 'I' for Inactive)
REMARK    1  A    between atoms: N_1  and  C_2
REMARK    2  A    between atoms: C_2  and  C_3
REMARK    3  A    between atoms: C_6  and  O_7
REMARK    4  A    between atoms: O_7  and  C_8
REMARK    5  A    between atoms: C_8  and  C_9
REMARK                            x       y       z     vdW  Elec       q    Type
REMARK                         _______ _______ _______ _____ _____    ______ ____
ROOT
ATOM      1  C   UNL     1      44.700   3.970  11.303  0.00  0.00    +0.000 A 
ATOM      2  C   UNL     1      44.939   5.177  10.636  0.00  0.00    +0.000 A 
ATOM      3  C   UNL     1      45.638   6.199  11.274  0.00  0.00    +0.000 A 
ATOM      4  C   UNL     1      46.097   5.976  12.561  0.00  0.00    +0.000 A 
ATOM      5  N   UNL     1      45.891   4.824  13.235  0.00  0.00    +0.000 NA
ATOM      6  C   UNL     1      45.197   3.859  12.596  0.00  0.00    +0.000 A 
ENDROOT
BRANCH   1   7
ATOM      7  C   UNL     1      43.901   2.859  10.684  0.00  0.00    +0.000 C 
BRANCH   7   8
ATOM      8  N   UNL     1      43.033   2.203  11.654  0.00  0.00    +0.000 NA
ATOM      9  H   UNL     1      42.437   2.902  12.094  0.00  0.00    +0.000 HD
ATOM     10  H   UNL     1      43.604   1.806  12.400  0.00  0.00    +0.000 HD
ENDBRANCH   7   8
ENDBRANCH   1   7
BRANCH   4  11
ATOM     11  O   UNL     1      46.754   7.018  13.190  0.00  0.00    +0.000 OA
BRANCH  11  12
ATOM     12  C   UNL     1      47.493   7.825  12.267  0.00  0.00    +0.000 C 
BRANCH  12  13
ATOM     13  C   UNL     1      48.989   7.460  12.319  0.00  0.00    +0.000 C 
ATOM     14  C   UNL     1      49.474   7.346  13.774  0.00  0.00    +0.000 C 
ATOM     15  C   UNL     1      49.610   8.711  14.454  0.00  0.00    +0.000 C 
ATOM     16  N   UNL     1      50.462   9.626  13.692  0.00  0.00    +0.000 NA
ATOM     17  C   UNL     1      49.965   9.808  12.325  0.00  0.00    +0.000 C 
ATOM     18  C   UNL     1      49.873   8.477  11.578  0.00  0.00    +0.000 C 
ATOM     19  H   UNL     1      51.407   9.242  13.649  0.00  0.00    +0.000 HD
ENDBRANCH  12  13
ENDBRANCH  11  12
ENDBRANCH   4  11
TORSDOF 5
ENDMDL
