MODEL 1
REMARK VINA RESULT:    -7.954      0.000      0.000
REMARK INTER + INTRA:         -11.704
REMARK INTER:                 -10.743
REMARK INTRA:                  -0.961
REMARK UNBOUND:                -0.961
REMARK  Name = 
REMARK  7 active torsions:
REMARK  status: ('A' for Active; 'I' for Inactive)
REMARK    1  A    between atoms: C_1  and  C_2
REMARK    2  A    between atoms: C_2  and  C_3
REMARK    3  A    between atoms: C_2  and  C_15
REMARK    4  A    between atoms: C_3  and  N_4
REMARK    5  A    between atoms: N_4  and  C_5
REMARK    6  A    between atoms: C_8  and  C_9
REMARK    7  A    between atoms: C_19  and  C_20
REMARK                            x       y       z     vdW  Elec       q    Type
REMARK                         _______ _______ _______ _____ _____    ______ ____
ROOT
ATOM      1  N   UNL     1      43.727   3.051  10.575  0.00  0.00    +0.000 N 
ATOM      2  H   UNL     1      43.029   3.782  10.448  0.00  0.00    +0.000 HD
ENDROOT
BRANCH   1   3
ATOM      3  C   UNL     1      44.589   2.982   9.468  0.00  0.00    +0.000 A 
ATOM      4  C   UNL     1      44.996   4.109   8.740  0.00  0.00    +0.000 A 
ATOM      5  C   UNL     1      45.898   4.003   7.673  0.00  0.00    +0.000 A 
ATOM      6  C   UNL     1      46.444   2.764   7.328  0.00  0.00    +0.000 A 
ATOM      7  C   UNL     1      46.087   1.649   8.084  0.00  0.00    +0.000 A 
ATOM      8  F   UNL     1      46.594   0.437   7.813  0.00  0.00    +0.000 F 
ATOM      9  C   UNL     1      45.188   1.757   9.149  0.00  0.00    +0.000 A 
BRANCH   6  10
ATOM     10  C   UNL     1      47.387   2.705   6.181  0.00  0.00    +0.000 C 
ATOM     11  N   UNL     1      48.705   2.467   6.439  0.00  0.00    +0.000 N 
ATOM     12  O   UNL     1      46.998   2.861   5.028  0.00  0.00    +0.000 OA
ATOM     13  H   UNL     1      49.070   2.343   7.375  0.00  0.00    +0.000 HD
ATOM     14  H   UNL     1      49.344   2.435   5.656  0.00  0.00    +0.000 HD
ENDBRANCH   6  10
ENDBRANCH   1   3
BRANCH   1  15
ATOM     15  C   UNL     1      44.345   3.123  11.905  0.00  0.00    +0.000 C 
BRANCH  15  17
ATOM     16  C   UNL     1      42.884   5.200  12.050  0.00  0.00    +0.000 C 
ATOM     17  C   UNL     1      44.139   4.495  12.583  0.00  0.00    +0.000 C 
BRANCH  17  18
ATOM     18  C   UNL     1      45.387   5.369  12.589  0.00  0.00    +0.000 A 
ATOM     19  C   UNL     1      45.697   6.135  11.451  0.00  0.00    +0.000 A 
ATOM     20  C   UNL     1      46.873   6.887  11.389  0.00  0.00    +0.000 A 
ATOM     21  C   UNL     1      47.756   6.893  12.467  0.00  0.00    +0.000 A 
ATOM     22  C   UNL     1      47.453   6.164  13.619  0.00  0.00    +0.000 A 
ATOM     23  C   UNL     1      46.270   5.416  13.681  0.00  0.00    +0.000 A 
BRANCH  22  24
ATOM     24  C   UNL     1      48.356   6.167  14.730  0.00  0.00    +0.000 C 
ATOM     25  N   UNL     1      49.095   6.170  15.627  0.00  0.00    +0.000 NA
ENDBRANCH  22  24
ENDBRANCH  17  18
ENDBRANCH  15  17
ENDBRANCH   1  15
TORSDOF 6
ENDMDL
MODEL 2
REMARK VINA RESULT:    -7.952      1.694      2.042
REMARK INTER + INTRA:         -11.702
REMARK INTER:                 -10.994
REMARK INTRA:                  -0.708
REMARK UNBOUND:                -0.961
REMARK  Name = 
REMARK  7 active torsions:
REMARK  status: ('A' for Active; 'I' for Inactive)
REMARK    1  A    between atoms: C_1  and  C_2
REMARK    2  A    between atoms: C_2  and  C_3
REMARK    3  A    between atoms: C_2  and  C_15
REMARK    4  A    between atoms: C_3  and  N_4
REMARK    5  A    between atoms: N_4  and  C_5
REMARK    6  A    between atoms: C_8  and  C_9
REMARK    7  A    between atoms: C_19  and  C_20
REMARK                            x       y       z     vdW  Elec       q    Type
REMARK                         _______ _______ _______ _____ _____    ______ ____
ROOT
ATOM      1  N   UNL     1      43.787   3.789  10.501  0.00  0.00    +0.000 N 
ATOM      2  H   UNL     1      43.581   4.786  10.488  0.00  0.00    +0.000 HD
ENDROOT
BRANCH   1   3
ATOM      3  C   UNL     1      44.671   3.445   9.464  0.00  0.00    +0.000 A 
ATOM      4  C   UNL     1      45.339   4.394   8.678  0.00  0.00    +0.000 A 
ATOM      5  C   UNL     1      46.252   4.009   7.688  0.00  0.00    +0.000 A 
ATOM      6  C   UNL     1      46.545   2.658   7.482  0.00  0.00    +0.000 A 
ATOM      7  C   UNL     1      45.927   1.714   8.298  0.00  0.00    +0.000 A 
ATOM      8  F   UNL     1      46.183   0.404   8.160  0.00  0.00    +0.000 F 
ATOM      9  C   UNL     1      45.017   2.100   9.286  0.00  0.00    +0.000 A 
BRANCH   6  10
ATOM     10  C   UNL     1      47.512   2.304   6.409  0.00  0.00    +0.000 C 
ATOM     11  N   UNL     1      47.490   3.029   5.254  0.00  0.00    +0.000 N 
ATOM     12  O   UNL     1      48.315   1.388   6.552  0.00  0.00    +0.000 OA
ATOM     13  H   UNL     1      46.838   3.786   5.091  0.00  0.00    +0.000 HD
ATOM     14  H   UNL     1      48.143   2.780   4.524  0.00  0.00    +0.000 HD
ENDBRANCH   6  10
ENDBRANCH   1   3
BRANCH   1  15
ATOM     15  C   UNL     1      44.124   3.328  11.853  0.00  0.00    +0.000 C 
BRANCH  15  17
ATOM     16  C   UNL     1      42.674   5.153  12.871  0.00  0.00    +0.000 C 
ATOM     17  C   UNL     1      44.041   4.456  12.905  0.00  0.00    +0.000 C 
BRANCH  17  18
ATOM     18  C   UNL     1      45.227   5.413  12.871  0.00  0.00    +0.000 A 
ATOM     19  C   UNL     1      46.501   4.943  13.238  0.00  0.00    +0.000 A 
ATOM     20  C   UNL     1      47.597   5.808  13.295  0.00  0.00    +0.000 A 
ATOM     21  C   UNL     1      47.440   7.156  12.978  0.00  0.00    +0.000 A 
ATOM     22  C   UNL     1      46.191   7.637  12.582  0.00  0.00    +0.000 A 
ATOM     23  C   UNL     1      45.095   6.766  12.520  0.00  0.00    +0.000 A 
BRANCH  22  24
ATOM     24  C   UNL     1      46.024   9.021  12.255  0.00  0.00    +0.000 C 
ATOM     25  N   UNL     1      45.892  10.146  11.995  0.00  0.00    +0.000 NA
ENDBRANCH  22  24
ENDBRANCH  17  18
ENDBRANCH  15  17
ENDBRANCH   1  15
TORSDOF 6
ENDMDL
MODEL 3
REMARK VINA RESULT:    -7.452      3.401      6.464
REMARK INTER + INTRA:         -11.027
REMARK INTER:                  -9.964
REMARK INTRA:                  -1.063
REMARK UNBOUND:                -0.961
REMARK  Name = 
REMARK  7 active torsions:
REMARK  status: ('A' for Active; 'I' for Inactive)
REMARK    1  A    between atoms: C_1  and  C_2
REMARK    2  A    between atoms: C_2  and  C_3
REMARK    3  A    between atoms: C_2  and  C_15
REMARK    4  A    between atoms: C_3  and  N_4
REMARK    5  A    between atoms: N_4  and  C_5
REMARK    6  A    between atoms: C_8  and  C_9
REMARK    7  A    between atoms: C_19  and  C_20
REMARK                            x       y       z     vdW  Elec       q    Type
REMARK                         _______ _______ _______ _____ _____    ______ ____
ROOT
ATOM      1  N   UNL     1      43.708   5.345  12.712  0.00  0.00    +0.000 N 
ATOM      2  H   UNL     1      43.500   4.518  13.270  0.00  0.00    +0.000 HD
ENDROOT
BRANCH   1   3
ATOM      3  C   UNL     1      45.034   5.765  12.912  0.00  0.00    +0.000 A 
ATOM      4  C   UNL     1      46.018   4.952  13.491  0.00  0.00    +0.000 A 
ATOM      5  C   UNL     1      47.342   5.390  13.625  0.00  0.00    +0.000 A 
ATOM      6  C   UNL     1      47.723   6.648  13.150  0.00  0.00    +0.000 A 
ATOM      7  C   UNL     1      46.762   7.438  12.524  0.00  0.00    +0.000 A 
ATOM      8  F   UNL     1      47.072   8.647  12.030  0.00  0.00    +0.000 F 
ATOM      9  C   UNL     1      45.442   6.998  12.389  0.00  0.00    +0.000 A 
BRANCH   6  10
ATOM     10  C   UNL     1      49.137   7.070  13.330  0.00  0.00    +0.000 C 
ATOM     11  N   UNL     1      49.941   7.116  12.229  0.00  0.00    +0.000 N 
ATOM     12  O   UNL     1      49.576   7.374  14.433  0.00  0.00    +0.000 OA
ATOM     13  H   UNL     1      49.622   6.864  11.302  0.00  0.00    +0.000 HD
ATOM     14  H   UNL     1      50.904   7.396  12.356  0.00  0.00    +0.000 HD
ENDBRANCH   6  10
ENDBRANCH   1   3
BRANCH   1  15
ATOM     15  C   UNL     1      43.255   5.186  11.325  0.00  0.00    +0.000 C 
BRANCH  15  17
ATOM     16  C   UNL     1      43.477   2.738  11.977  0.00  0.00    +0.000 C 
ATOM     17  C   UNL     1      43.402   3.736  10.814  0.00  0.00    +0.000 C 
BRANCH  17  18
ATOM     18  C   UNL     1      44.501   3.562   9.773  0.00  0.00    +0.000 A 
ATOM     19  C   UNL     1      45.034   4.698   9.138  0.00  0.00    +0.000 A 
ATOM     20  C   UNL     1      45.987   4.574   8.123  0.00  0.00    +0.000 A 
ATOM     21  C   UNL     1      46.430   3.312   7.731  0.00  0.00    +0.000 A 
ATOM     22  C   UNL     1      45.936   2.172   8.369  0.00  0.00    +0.000 A 
ATOM     23  C   UNL     1      44.985   2.300   9.391  0.00  0.00    +0.000 A 
BRANCH  22  24
ATOM     24  C   UNL     1      46.387   0.873   7.971  0.00  0.00    +0.000 C 
ATOM     25  N   UNL     1      46.760  -0.179   7.647  0.00  0.00    +0.000 NA
ENDBRANCH  22  24
ENDBRANCH  17  18
ENDBRANCH  15  17
ENDBRANCH   1  15
TORSDOF 6
ENDMDL
MODEL 4
REMARK VINA RESULT:    -7.421      1.688      2.110
REMARK INTER + INTRA:         -10.984
REMARK INTER:                 -10.405
REMARK INTRA:                  -0.579
REMARK UNBOUND:                -0.961
REMARK  Name = 
REMARK  7 active torsions:
REMARK  status: ('A' for Active; 'I' for Inactive)
REMARK    1  A    between atoms: C_1  and  C_2
REMARK    2  A    between atoms: C_2  and  C_3
REMARK    3  A    between atoms: C_2  and  C_15
REMARK    4  A    between atoms: C_3  and  N_4
REMARK    5  A    between atoms: N_4  and  C_5
REMARK    6  A    between atoms: C_8  and  C_9
REMARK    7  A    between atoms: C_19  and  C_20
REMARK                            x       y       z     vdW  Elec       q    Type
REMARK                         _______ _______ _______ _____ _____    ______ ____
ROOT
ATOM      1  N   UNL     1      43.691   4.284  10.327  0.00  0.00    +0.000 N 
ATOM      2  H   UNL     1      42.757   4.377   9.932  0.00  0.00    +0.000 HD
ENDROOT
BRANCH   1   3
ATOM      3  C   UNL     1      44.583   3.743   9.385  0.00  0.00    +0.000 A 
ATOM      4  C   UNL     1      45.436   4.527   8.597  0.00  0.00    +0.000 A 
ATOM      5  C   UNL     1      46.347   3.946   7.705  0.00  0.00    +0.000 A 
ATOM      6  C   UNL     1      46.450   2.555   7.605  0.00  0.00    +0.000 A 
ATOM      7  C   UNL     1      45.644   1.770   8.427  0.00  0.00    +0.000 A 
ATOM      8  F   UNL     1      45.711   0.431   8.389  0.00  0.00    +0.000 F 
ATOM      9  C   UNL     1      44.737   2.353   9.316  0.00  0.00    +0.000 A 
BRANCH   6  10
ATOM     10  C   UNL     1      47.423   1.989   6.635  0.00  0.00    +0.000 C 
ATOM     11  N   UNL     1      48.644   2.587   6.521  0.00  0.00    +0.000 N 
ATOM     12  O   UNL     1      47.147   1.009   5.953  0.00  0.00    +0.000 OA
ATOM     13  H   UNL     1      48.910   3.404   7.057  0.00  0.00    +0.000 HD
ATOM     14  H   UNL     1      49.301   2.205   5.855  0.00  0.00    +0.000 HD
ENDBRANCH   6  10
ENDBRANCH   1   3
BRANCH   1  15
ATOM     15  C   UNL     1      44.107   5.511  11.018  0.00  0.00    +0.000 C 
BRANCH  15  17
ATOM     16  C   UNL     1      45.317   4.455  12.990  0.00  0.00    +0.000 C 
ATOM     17  C   UNL     1      45.456   5.352  11.753  0.00  0.00    +0.000 C 
BRANCH  17  18
ATOM     18  C   UNL     1      46.167   6.674  12.020  0.00  0.00    +0.000 A 
ATOM     19  C   UNL     1      45.416   7.786  12.439  0.00  0.00    +0.000 A 
ATOM     20  C   UNL     1      46.020   9.034  12.618  0.00  0.00    +0.000 A 
ATOM     21  C   UNL     1      47.386   9.189  12.390  0.00  0.00    +0.000 A 
ATOM     22  C   UNL     1      48.155   8.090  12.003  0.00  0.00    +0.000 A 
ATOM     23  C   UNL     1      47.549   6.839  11.830  0.00  0.00    +0.000 A 
BRANCH  22  24
ATOM     24  C   UNL     1      49.559   8.242  11.768  0.00  0.00    +0.000 C 
ATOM     25  N   UNL     1      50.700   8.369  11.582  0.00  0.00    +0.000 NA
ENDBRANCH  22  24
ENDBRANCH  17  18
ENDBRANCH  15  17
ENDBRANCH   1  15
TORSDOF 6
ENDMDL
MODEL 5
REMARK VINA RESULT:    -6.400      1.923      2.318
REMARK INTER + INTRA:          -9.606
REMARK INTER:                  -9.089
REMARK INTRA:                  -0.518
REMARK UNBOUND:                -0.961
REMARK  Name = 
REMARK  7 active torsions:
REMARK  status: ('A' for Active; 'I' for Inactive)
REMARK    1  A    between atoms: C_1  and  C_2
REMARK    2  A    between atoms: C_2  and  C_3
REMARK    3  A    between atoms: C_2  and  C_15
REMARK    4  A    between atoms: C_3  and  N_4
REMARK    5  A    between atoms: N_4  and  C_5
REMARK    6  A    between atoms: C_8  and  C_9
REMARK    7  A    between atoms: C_19  and  C_20
REMARK                            x       y       z     vdW  Elec       q    Type
REMARK                         _______ _______ _______ _____ _____    ______ ____
ROOT
ATOM      1  N   UNL     1      44.021   5.066  10.081  0.00  0.00    +0.000 N 
ATOM      2  H   UNL     1      44.078   5.948   9.575  0.00  0.00    +0.000 HD
ENDROOT
BRANCH   1   3
ATOM      3  C   UNL     1      44.780   4.071   9.442  0.00  0.00    +0.000 A 
ATOM      4  C   UNL     1      44.642   2.704   9.718  0.00  0.00    +0.000 A 
ATOM      5  C   UNL     1      45.382   1.739   9.022  0.00  0.00    +0.000 A 
ATOM      6  C   UNL     1      46.259   2.120   8.002  0.00  0.00    +0.000 A 
ATOM      7  C   UNL     1      46.358   3.473   7.685  0.00  0.00    +0.000 A 
ATOM      8  F   UNL     1      47.168   3.897   6.703  0.00  0.00    +0.000 F 
ATOM      9  C   UNL     1      45.618   4.433   8.380  0.00  0.00    +0.000 A 
BRANCH   6  10
ATOM     10  C   UNL     1      47.029   1.058   7.303  0.00  0.00    +0.000 C 
ATOM     11  N   UNL     1      46.756  -0.244   7.606  0.00  0.00    +0.000 N 
ATOM     12  O   UNL     1      47.885   1.335   6.471  0.00  0.00    +0.000 OA
ATOM     13  H   UNL     1      46.064  -0.516   8.294  0.00  0.00    +0.000 HD
ATOM     14  H   UNL     1      47.287  -0.963   7.135  0.00  0.00    +0.000 HD
ENDBRANCH   6  10
ENDBRANCH   1   3
BRANCH   1  15
ATOM     15  C   UNL     1      44.240   5.257  11.521  0.00  0.00    +0.000 C 
BRANCH  15  17
ATOM     16  C   UNL     1      43.685   7.667  10.926  0.00  0.00    +0.000 C 
ATOM     17  C   UNL     1      44.424   6.742  11.902  0.00  0.00    +0.000 C 
BRANCH  17  18
ATOM     18  C   UNL     1      45.876   7.135  12.151  0.00  0.00    +0.000 A 
ATOM     19  C   UNL     1      46.861   6.747  11.226  0.00  0.00    +0.000 A 
ATOM     20  C   UNL     1      48.212   7.020  11.458  0.00  0.00    +0.000 A 
ATOM     21  C   UNL     1      48.600   7.692  12.615  0.00  0.00    +0.000 A 
ATOM     22  C   UNL     1      47.635   8.113  13.533  0.00  0.00    +0.000 A 
ATOM     23  C   UNL     1      46.281   7.843  13.294  0.00  0.00    +0.000 A 
BRANCH  22  24
ATOM     24  C   UNL     1      48.027   8.804  14.724  0.00  0.00    +0.000 C 
ATOM     25  N   UNL     1      48.339   9.366  15.692  0.00  0.00    +0.000 NA
ENDBRANCH  22  24
ENDBRANCH  17  18
ENDBRANCH  15  17
ENDBRANCH   1  15
TORSDOF 6
ENDMDL
MODEL 6
REMARK VINA RESULT:    -6.390      1.439      2.039
REMARK INTER + INTRA:          -9.592
REMARK INTER:                  -9.232
REMARK INTRA:                  -0.360
REMARK UNBOUND:                -0.961
REMARK  Name = 
REMARK  7 active torsions:
REMARK  status: ('A' for Active; 'I' for Inactive)
REMARK    1  A    between atoms: C_1  and  C_2
REMARK    2  A    between atoms: C_2  and  C_3
REMARK    3  A    between atoms: C_2  and  C_15
REMARK    4  A    between atoms: C_3  and  N_4
REMARK    5  A    between atoms: N_4  and  C_5
REMARK    6  A    between atoms: C_8  and  C_9
REMARK    7  A    between atoms: C_19  and  C_20
REMARK                            x       y       z     vdW  Elec       q    Type
REMARK                         _______ _______ _______ _____ _____    ______ ____
ROOT
ATOM      1  N   UNL     1      44.194   4.970  10.267  0.00  0.00    +0.000 N 
ATOM      2  H   UNL     1      43.202   4.753  10.192  0.00  0.00    +0.000 HD
ENDROOT
BRANCH   1   3
ATOM      3  C   UNL     1      44.945   4.204   9.359  0.00  0.00    +0.000 A 
ATOM      4  C   UNL     1      45.892   4.757   8.487  0.00  0.00    +0.000 A 
ATOM      5  C   UNL     1      46.657   3.952   7.633  0.00  0.00    +0.000 A 
ATOM      6  C   UNL     1      46.516   2.562   7.656  0.00  0.00    +0.000 A 
ATOM      7  C   UNL     1      45.616   2.002   8.560  0.00  0.00    +0.000 A 
ATOM      8  F   UNL     1      45.451   0.673   8.642  0.00  0.00    +0.000 F 
ATOM      9  C   UNL     1      44.855   2.807   9.413  0.00  0.00    +0.000 A 
BRANCH   6  10
ATOM     10  C   UNL     1      47.342   1.755   6.720  0.00  0.00    +0.000 C 
ATOM     11  N   UNL     1      48.398   2.360   6.104  0.00  0.00    +0.000 N 
ATOM     12  O   UNL     1      47.092   0.574   6.505  0.00  0.00    +0.000 OA
ATOM     13  H   UNL     1      48.634   3.335   6.245  0.00  0.00    +0.000 HD
ATOM     14  H   UNL     1      48.953   1.811   5.463  0.00  0.00    +0.000 HD
ENDBRANCH   6  10
ENDBRANCH   1   3
BRANCH   1  15
ATOM     15  C   UNL     1      44.428   6.419  10.278  0.00  0.00    +0.000 C 
BRANCH  15  17
ATOM     16  C   UNL     1      44.490   8.534  11.690  0.00  0.00    +0.000 C 
ATOM     17  C   UNL     1      44.497   7.000  11.708  0.00  0.00    +0.000 C 
BRANCH  17  18
ATOM     18  C   UNL     1      45.604   6.393  12.562  0.00  0.00    +0.000 A 
ATOM     19  C   UNL     1      45.362   5.192  13.250  0.00  0.00    +0.000 A 
ATOM     20  C   UNL     1      46.323   4.646  14.105  0.00  0.00    +0.000 A 
ATOM     21  C   UNL     1      47.548   5.289  14.280  0.00  0.00    +0.000 A 
ATOM     22  C   UNL     1      47.820   6.467  13.582  0.00  0.00    +0.000 A 
ATOM     23  C   UNL     1      46.856   7.009  12.722  0.00  0.00    +0.000 A 
BRANCH  22  24
ATOM     24  C   UNL     1      49.076   7.132  13.757  0.00  0.00    +0.000 C 
ATOM     25  N   UNL     1      50.093   7.676  13.905  0.00  0.00    +0.000 NA
ENDBRANCH  22  24
ENDBRANCH  17  18
ENDBRANCH  15  17
ENDBRANCH   1  15
TORSDOF 6
ENDMDL
MODEL 7
REMARK VINA RESULT:    -6.209      4.199      7.363
REMARK INTER + INTRA:          -9.348
REMARK INTER:                  -8.267
REMARK INTRA:                  -1.082
REMARK UNBOUND:                -0.961
REMARK  Name = 
REMARK  7 active torsions:
REMARK  status: ('A' for Active; 'I' for Inactive)
REMARK    1  A    between atoms: C_1  and  C_2
REMARK    2  A    between atoms: C_2  and  C_3
REMARK    3  A    between atoms: C_2  and  C_15
REMARK    4  A    between atoms: C_3  and  N_4
REMARK    5  A    between atoms: N_4  and  C_5
REMARK    6  A    between atoms: C_8  and  C_9
REMARK    7  A    between atoms: C_19  and  C_20
REMARK                            x       y       z     vdW  Elec       q    Type
REMARK                         _______ _______ _______ _____ _____    ______ ____
ROOT
ATOM      1  N   UNL     1      47.507   6.636  12.747  0.00  0.00    +0.000 N 
ATOM      2  H   UNL     1      48.425   7.057  12.614  0.00  0.00    +0.000 HD
ENDROOT
BRANCH   1   3
ATOM      3  C   UNL     1      47.504   5.781  13.862  0.00  0.00    +0.000 A 
ATOM      4  C   UNL     1      47.035   4.461  13.815  0.00  0.00    +0.000 A 
ATOM      5  C   UNL     1      47.097   3.623  14.937  0.00  0.00    +0.000 A 
ATOM      6  C   UNL     1      47.664   4.080  16.130  0.00  0.00    +0.000 A 
ATOM      7  C   UNL     1      48.183   5.372  16.166  0.00  0.00    +0.000 A 
ATOM      8  F   UNL     1      48.758   5.858  17.276  0.00  0.00    +0.000 F 
ATOM      9  C   UNL     1      48.122   6.205  15.045  0.00  0.00    +0.000 A 
BRANCH   6  10
ATOM     10  C   UNL     1      47.694   3.155  17.294  0.00  0.00    +0.000 C 
ATOM     11  N   UNL     1      48.887   2.940  17.918  0.00  0.00    +0.000 N 
ATOM     12  O   UNL     1      46.676   2.599  17.692  0.00  0.00    +0.000 OA
ATOM     13  H   UNL     1      49.753   3.370  17.616  0.00  0.00    +0.000 HD
ATOM     14  H   UNL     1      48.905   2.305  18.704  0.00  0.00    +0.000 HD
ENDBRANCH   6  10
ENDBRANCH   1   3
BRANCH   1  15
ATOM     15  C   UNL     1      46.439   7.641  12.668  0.00  0.00    +0.000 C 
BRANCH  15  17
ATOM     16  C   UNL     1      44.509   8.559  11.290  0.00  0.00    +0.000 C 
ATOM     17  C   UNL     1      45.452   7.369  11.512  0.00  0.00    +0.000 C 
BRANCH  17  18
ATOM     18  C   UNL     1      44.741   6.024  11.616  0.00  0.00    +0.000 A 
ATOM     19  C   UNL     1      43.913   5.768  12.723  0.00  0.00    +0.000 A 
ATOM     20  C   UNL     1      43.308   4.520  12.894  0.00  0.00    +0.000 A 
ATOM     21  C   UNL     1      43.514   3.510  11.957  0.00  0.00    +0.000 A 
ATOM     22  C   UNL     1      44.308   3.753  10.834  0.00  0.00    +0.000 A 
ATOM     23  C   UNL     1      44.909   5.007  10.663  0.00  0.00    +0.000 A 
BRANCH  22  24
ATOM     24  C   UNL     1      44.523   2.719   9.868  0.00  0.00    +0.000 C 
ATOM     25  N   UNL     1      44.703   1.883   9.080  0.00  0.00    +0.000 NA
ENDBRANCH  22  24
ENDBRANCH  17  18
ENDBRANCH  15  17
ENDBRANCH   1  15
TORSDOF 6
ENDMDL
MODEL 8
REMARK VINA RESULT:    -6.080      3.422      6.533
REMARK INTER + INTRA:          -9.174
REMARK INTER:                  -8.167
REMARK INTRA:                  -1.007
REMARK UNBOUND:                -0.961
REMARK  Name = 
REMARK  7 active torsions:
REMARK  status: ('A' for Active; 'I' for Inactive)
REMARK    1  A    between atoms: C_1  and  C_2
REMARK    2  A    between atoms: C_2  and  C_3
REMARK    3  A    between atoms: C_2  and  C_15
REMARK    4  A    between atoms: C_3  and  N_4
REMARK    5  A    between atoms: N_4  and  C_5
REMARK    6  A    between atoms: C_8  and  C_9
REMARK    7  A    between atoms: C_19  and  C_20
REMARK                            x       y       z     vdW  Elec       q    Type
REMARK                         _______ _______ _______ _____ _____    ______ ____
ROOT
ATOM      1  N   UNL     1      44.522   7.331  12.503  0.00  0.00    +0.000 N 
ATOM      2  H   UNL     1      44.220   6.819  13.330  0.00  0.00    +0.000 HD
ENDROOT
BRANCH   1   3
ATOM      3  C   UNL     1      45.924   7.407  12.444  0.00  0.00    +0.000 A 
ATOM      4  C   UNL     1      46.759   6.287  12.547  0.00  0.00    +0.000 A 
ATOM      5  C   UNL     1      48.151   6.400  12.431  0.00  0.00    +0.000 A 
ATOM      6  C   UNL     1      48.741   7.640  12.174  0.00  0.00    +0.000 A 
ATOM      7  C   UNL     1      47.912   8.749  12.015  0.00  0.00    +0.000 A 
ATOM      8  F   UNL     1      48.420   9.961  11.747  0.00  0.00    +0.000 F 
ATOM      9  C   UNL     1      46.524   8.633  12.129  0.00  0.00    +0.000 A 
BRANCH   6  10
ATOM     10  C   UNL     1      50.223   7.707  12.073  0.00  0.00    +0.000 C 
ATOM     11  N   UNL     1      50.936   7.984  13.202  0.00  0.00    +0.000 N 
ATOM     12  O   UNL     1      50.798   7.516  11.007  0.00  0.00    +0.000 OA
ATOM     13  H   UNL     1      50.501   8.158  14.100  0.00  0.00    +0.000 HD
ATOM     14  H   UNL     1      51.942   8.036  13.128  0.00  0.00    +0.000 HD
ENDBRANCH   6  10
ENDBRANCH   1   3
BRANCH   1  15
ATOM     15  C   UNL     1      43.822   6.868  11.299  0.00  0.00    +0.000 C 
BRANCH  15  17
ATOM     16  C   UNL     1      42.978   5.170  12.994  0.00  0.00    +0.000 C 
ATOM     17  C   UNL     1      43.123   5.506  11.504  0.00  0.00    +0.000 C 
BRANCH  17  18
ATOM     18  C   UNL     1      43.719   4.380  10.668  0.00  0.00    +0.000 A 
ATOM     19  C   UNL     1      43.524   3.047  11.070  0.00  0.00    +0.000 A 
ATOM     20  C   UNL     1      44.120   1.991  10.375  0.00  0.00    +0.000 A 
ATOM     21  C   UNL     1      44.915   2.250   9.260  0.00  0.00    +0.000 A 
ATOM     22  C   UNL     1      45.097   3.564   8.826  0.00  0.00    +0.000 A 
ATOM     23  C   UNL     1      44.494   4.620   9.521  0.00  0.00    +0.000 A 
BRANCH  22  24
ATOM     24  C   UNL     1      45.913   3.836   7.681  0.00  0.00    +0.000 C 
ATOM     25  N   UNL     1      46.575   4.051   6.749  0.00  0.00    +0.000 NA
ENDBRANCH  22  24
ENDBRANCH  17  18
ENDBRANCH  15  17
ENDBRANCH   1  15
TORSDOF 6
ENDMDL
MODEL 9
REMARK VINA RESULT:    -6.034      3.343      5.624
REMARK INTER + INTRA:          -9.111
REMARK INTER:                  -8.383
REMARK INTRA:                  -0.728
REMARK UNBOUND:                -0.961
REMARK  Name = 
REMARK  7 active torsions:
REMARK  status: ('A' for Active; 'I' for Inactive)
REMARK    1  A    between atoms: C_1  and  C_2
REMARK    2  A    between atoms: C_2  and  C_3
REMARK    3  A    between atoms: C_2  and  C_15
REMARK    4  A    between atoms: C_3  and  N_4
REMARK    5  A    between atoms: N_4  and  C_5
REMARK    6  A    between atoms: C_8  and  C_9
REMARK    7  A    between atoms: C_19  and  C_20
REMARK                            x       y       z     vdW  Elec       q    Type
REMARK                         _______ _______ _______ _____ _____    ______ ____
ROOT
ATOM      1  N   UNL     1      46.808   7.424  13.613  0.00  0.00    +0.000 N 
ATOM      2  H   UNL     1      46.489   8.364  13.386  0.00  0.00    +0.000 HD
ENDROOT
BRANCH   1   3
ATOM      3  C   UNL     1      46.042   6.457  12.940  0.00  0.00    +0.000 A 
ATOM      4  C   UNL     1      45.087   6.776  11.965  0.00  0.00    +0.000 A 
ATOM      5  C   UNL     1      44.381   5.779  11.280  0.00  0.00    +0.000 A 
ATOM      6  C   UNL     1      44.639   4.428  11.533  0.00  0.00    +0.000 A 
ATOM      7  C   UNL     1      45.627   4.105  12.461  0.00  0.00    +0.000 A 
ATOM      8  F   UNL     1      45.932   2.827  12.732  0.00  0.00    +0.000 F 
ATOM      9  C   UNL     1      46.331   5.102  13.142  0.00  0.00    +0.000 A 
BRANCH   6  10
ATOM     10  C   UNL     1      43.853   3.410  10.789  0.00  0.00    +0.000 C 
ATOM     11  N   UNL     1      44.099   3.251   9.457  0.00  0.00    +0.000 N 
ATOM     12  O   UNL     1      43.006   2.723  11.349  0.00  0.00    +0.000 OA
ATOM     13  H   UNL     1      44.782   3.803   8.952  0.00  0.00    +0.000 HD
ATOM     14  H   UNL     1      43.557   2.563   8.952  0.00  0.00    +0.000 HD
ENDBRANCH   6  10
ENDBRANCH   1   3
BRANCH   1  15
ATOM     15  C   UNL     1      48.268   7.314  13.514  0.00  0.00    +0.000 C 
BRANCH  15  17
ATOM     16  C   UNL     1      50.226   8.627  14.470  0.00  0.00    +0.000 C 
ATOM     17  C   UNL     1      48.989   7.780  14.798  0.00  0.00    +0.000 C 
BRANCH  17  18
ATOM     18  C   UNL     1      49.251   6.657  15.795  0.00  0.00    +0.000 A 
ATOM     19  C   UNL     1      50.526   6.537  16.376  0.00  0.00    +0.000 A 
ATOM     20  C   UNL     1      50.827   5.475  17.233  0.00  0.00    +0.000 A 
ATOM     21  C   UNL     1      49.857   4.521  17.532  0.00  0.00    +0.000 A 
ATOM     22  C   UNL     1      48.576   4.639  16.990  0.00  0.00    +0.000 A 
ATOM     23  C   UNL     1      48.274   5.707  16.135  0.00  0.00    +0.000 A 
BRANCH  22  24
ATOM     24  C   UNL     1      47.574   3.661  17.293  0.00  0.00    +0.000 C 
ATOM     25  N   UNL     1      46.764   2.863  17.535  0.00  0.00    +0.000 NA
ENDBRANCH  22  24
ENDBRANCH  17  18
ENDBRANCH  15  17
ENDBRANCH   1  15
TORSDOF 6
ENDMDL
