MODEL 1
REMARK VINA RESULT:    -7.987      0.000      0.000
REMARK INTER + INTRA:         -11.046
REMARK INTER:                 -10.555
REMARK INTRA:                  -0.491
REMARK UNBOUND:                -0.491
REMARK  Name = 
REMARK  6 active torsions:
REMARK  status: ('A' for Active; 'I' for Inactive)
REMARK    1  A    between atoms: N_1  and  C_2
REMARK    2  A    between atoms: C_2  and  C_3
REMARK    3  A    between atoms: C_3  and  C_4
REMARK    4  A    between atoms: C_7  and  C_8
REMARK    5  A    between atoms: C_8  and  N_9
REMARK    6  A    between atoms: C_14  and  C_15
REMARK                            x       y       z     vdW  Elec       q    Type
REMARK                         _______ _______ _______ _____ _____    ______ ____
ROOT
ATOM      1  N   UNL     1      44.341   4.817  11.675  0.00  0.00    +0.000 N 
ATOM      2  C   UNL     1      43.841   4.188  12.785  0.00  0.00    +0.000 A 
ATOM      3  N   UNL     1      44.621   4.347  13.835  0.00  0.00    +0.000 NA
ATOM      4  C   UNL     1      45.665   5.116  13.383  0.00  0.00    +0.000 A 
ATOM      5  C   UNL     1      46.819   5.564  14.036  0.00  0.00    +0.000 A 
ATOM      6  C   UNL     1      47.722   6.328  13.287  0.00  0.00    +0.000 A 
ATOM      7  C   UNL     1      47.404   6.627  11.956  0.00  0.00    +0.000 A 
ATOM      8  N   UNL     1      46.293   6.221  11.282  0.00  0.00    +0.000 NA
ATOM      9  C   UNL     1      45.490   5.459  12.048  0.00  0.00    +0.000 A 
ENDROOT
BRANCH   6  10
ATOM     10  C   UNL     1      49.014   6.825  13.817  0.00  0.00    +0.000 C 
ATOM     11  N   UNL     1      49.888   7.431  12.959  0.00  0.00    +0.000 N 
ATOM     12  O   UNL     1      49.298   6.711  15.003  0.00  0.00    +0.000 OA
ATOM     13  H   UNL     1      49.729   7.590  11.977  0.00  0.00    +0.000 HD
ATOM     14  H   UNL     1      50.747   7.786  13.359  0.00  0.00    +0.000 HD
ENDBRANCH   6  10
BRANCH   1  15
ATOM     15  C   UNL     1      43.766   4.790  10.345  0.00  0.00    +0.000 C 
BRANCH  15  19
ATOM     16  C   UNL     1      46.165   2.230   7.803  0.00  0.00    +0.000 A 
ATOM     17  C   UNL     1      45.332   1.676   8.782  0.00  0.00    +0.000 A 
ATOM     18  C   UNL     1      44.539   2.496   9.591  0.00  0.00    +0.000 A 
ATOM     19  C   UNL     1      44.557   3.887   9.429  0.00  0.00    +0.000 A 
ATOM     20  C   UNL     1      45.370   4.436   8.427  0.00  0.00    +0.000 A 
ATOM     21  C   UNL     1      46.162   3.617   7.620  0.00  0.00    +0.000 A 
BRANCH  16  22
ATOM     22  C   UNL     1      47.069   1.351   6.971  0.00  0.00    +0.000 C 
BRANCH  22  23
ATOM     23  C   UNL     1      48.339   2.069   6.507  0.00  0.00    +0.000 C 
BRANCH  23  24
ATOM     24  N   UNL     1      48.350   2.217   5.050  0.00  0.00    +0.000 NA
ATOM     25  H   UNL     1      48.801   3.097   4.806  0.00  0.00    +0.000 HD
ATOM     26  H   UNL     1      47.392   2.284   4.705  0.00  0.00    +0.000 HD
ENDBRANCH  23  24
ENDBRANCH  22  23
ENDBRANCH  16  22
ENDBRANCH  15  19
ENDBRANCH   1  15
TORSDOF 6
ENDMDL
MODEL 2
REMARK VINA RESULT:    -7.915      1.558      2.143
REMARK INTER + INTRA:         -10.951
REMARK INTER:                 -10.494
REMARK INTRA:                  -0.458
REMARK UNBOUND:                -0.491
REMARK  Name = 
REMARK  6 active torsions:
REMARK  status: ('A' for Active; 'I' for Inactive)
REMARK    1  A    between atoms: N_1  and  C_2
REMARK    2  A    between atoms: C_2  and  C_3
REMARK    3  A    between atoms: C_3  and  C_4
REMARK    4  A    between atoms: C_7  and  C_8
REMARK    5  A    between atoms: C_8  and  N_9
REMARK    6  A    between atoms: C_14  and  C_15
REMARK                            x       y       z     vdW  Elec       q    Type
REMARK                         _______ _______ _______ _____ _____    ______ ____
ROOT
ATOM      1  N   UNL     1      44.647   5.482  11.292  0.00  0.00    +0.000 N 
ATOM      2  C   UNL     1      44.850   6.834  11.220  0.00  0.00    +0.000 A 
ATOM      3  N   UNL     1      45.665   7.262  12.163  0.00  0.00    +0.000 NA
ATOM      4  C   UNL     1      46.005   6.134  12.869  0.00  0.00    +0.000 A 
ATOM      5  C   UNL     1      46.803   5.976  14.009  0.00  0.00    +0.000 A 
ATOM      6  C   UNL     1      46.945   4.679  14.514  0.00  0.00    +0.000 A 
ATOM      7  C   UNL     1      46.321   3.624  13.838  0.00  0.00    +0.000 A 
ATOM      8  N   UNL     1      45.543   3.727  12.725  0.00  0.00    +0.000 NA
ATOM      9  C   UNL     1      45.415   5.004  12.317  0.00  0.00    +0.000 A 
ENDROOT
BRANCH   6  10
ATOM     10  C   UNL     1      47.707   4.356  15.744  0.00  0.00    +0.000 C 
ATOM     11  N   UNL     1      47.876   5.330  16.687  0.00  0.00    +0.000 N 
ATOM     12  O   UNL     1      48.170   3.237  15.928  0.00  0.00    +0.000 OA
ATOM     13  H   UNL     1      47.512   6.268  16.633  0.00  0.00    +0.000 HD
ATOM     14  H   UNL     1      48.374   5.069  17.529  0.00  0.00    +0.000 HD
ENDBRANCH   6  10
BRANCH   1  15
ATOM     15  C   UNL     1      43.762   4.703  10.448  0.00  0.00    +0.000 C 
BRANCH  15  19
ATOM     16  C   UNL     1      46.138   2.182   7.846  0.00  0.00    +0.000 A 
ATOM     17  C   UNL     1      45.282   1.612   8.796  0.00  0.00    +0.000 A 
ATOM     18  C   UNL     1      44.496   2.420   9.624  0.00  0.00    +0.000 A 
ATOM     19  C   UNL     1      44.545   3.816   9.510  0.00  0.00    +0.000 A 
ATOM     20  C   UNL     1      45.381   4.382   8.537  0.00  0.00    +0.000 A 
ATOM     21  C   UNL     1      46.166   3.574   7.711  0.00  0.00    +0.000 A 
BRANCH  16  22
ATOM     22  C   UNL     1      47.034   1.314   6.995  0.00  0.00    +0.000 C 
BRANCH  22  23
ATOM     23  C   UNL     1      48.323   2.021   6.568  0.00  0.00    +0.000 C 
BRANCH  23  24
ATOM     24  N   UNL     1      48.343   2.236   5.120  0.00  0.00    +0.000 NA
ATOM     25  H   UNL     1      48.795   1.442   4.669  0.00  0.00    +0.000 HD
ATOM     26  H   UNL     1      48.918   3.050   4.902  0.00  0.00    +0.000 HD
ENDBRANCH  23  24
ENDBRANCH  22  23
ENDBRANCH  16  22
ENDBRANCH  15  19
ENDBRANCH   1  15
TORSDOF 6
ENDMDL
MODEL 3
REMARK VINA RESULT:    -7.191      1.718      2.089
REMARK INTER + INTRA:          -9.994
REMARK INTER:                  -9.441
REMARK INTRA:                  -0.553
REMARK UNBOUND:                -0.491
REMARK  Name = 
REMARK  6 active torsions:
REMARK  status: ('A' for Active; 'I' for Inactive)
REMARK    1  A    between atoms: N_1  and  C_2
REMARK    2  A    between atoms: C_2  and  C_3
REMARK    3  A    between atoms: C_3  and  C_4
REMARK    4  A    between atoms: C_7  and  C_8
REMARK    5  A    between atoms: C_8  and  N_9
REMARK    6  A    between atoms: C_14  and  C_15
REMARK                            x       y       z     vdW  Elec       q    Type
REMARK                         _______ _______ _______ _____ _____    ______ ____
ROOT
ATOM      1  N   UNL     1      45.576   4.587  12.471  0.00  0.00    +0.000 N 
ATOM      2  C   UNL     1      46.295   3.623  13.126  0.00  0.00    +0.000 A 
ATOM      3  N   UNL     1      47.242   4.140  13.882  0.00  0.00    +0.000 NA
ATOM      4  C   UNL     1      47.124   5.498  13.710  0.00  0.00    +0.000 A 
ATOM      5  C   UNL     1      47.888   6.553  14.223  0.00  0.00    +0.000 A 
ATOM      6  C   UNL     1      47.523   7.850  13.841  0.00  0.00    +0.000 A 
ATOM      7  C   UNL     1      46.409   8.016  13.010  0.00  0.00    +0.000 A 
ATOM      8  N   UNL     1      45.633   7.023  12.494  0.00  0.00    +0.000 NA
ATOM      9  C   UNL     1      46.062   5.803  12.867  0.00  0.00    +0.000 A 
ENDROOT
BRANCH   6  10
ATOM     10  C   UNL     1      48.267   9.065  14.252  0.00  0.00    +0.000 C 
ATOM     11  N   UNL     1      48.014   9.607  15.479  0.00  0.00    +0.000 N 
ATOM     12  O   UNL     1      49.104   9.575  13.516  0.00  0.00    +0.000 OA
ATOM     13  H   UNL     1      47.364   9.244  16.159  0.00  0.00    +0.000 HD
ATOM     14  H   UNL     1      48.561  10.418  15.742  0.00  0.00    +0.000 HD
ENDBRANCH   6  10
BRANCH   1  15
ATOM     15  C   UNL     1      44.509   4.359  11.517  0.00  0.00    +0.000 C 
BRANCH  15  19
ATOM     16  C   UNL     1      45.943   3.212   7.593  0.00  0.00    +0.000 A 
ATOM     17  C   UNL     1      46.058   4.537   8.029  0.00  0.00    +0.000 A 
ATOM     18  C   UNL     1      45.617   4.909   9.304  0.00  0.00    +0.000 A 
ATOM     19  C   UNL     1      45.060   3.959  10.170  0.00  0.00    +0.000 A 
ATOM     20  C   UNL     1      44.974   2.627   9.740  0.00  0.00    +0.000 A 
ATOM     21  C   UNL     1      45.415   2.256   8.467  0.00  0.00    +0.000 A 
BRANCH  16  22
ATOM     22  C   UNL     1      46.361   2.821   6.196  0.00  0.00    +0.000 C 
BRANCH  22  23
ATOM     23  C   UNL     1      47.587   1.904   6.172  0.00  0.00    +0.000 C 
BRANCH  23  24
ATOM     24  N   UNL     1      48.818   2.677   6.346  0.00  0.00    +0.000 NA
ATOM     25  H   UNL     1      49.258   2.817   5.438  0.00  0.00    +0.000 HD
ATOM     26  H   UNL     1      49.483   2.140   6.903  0.00  0.00    +0.000 HD
ENDBRANCH  23  24
ENDBRANCH  22  23
ENDBRANCH  16  22
ENDBRANCH  15  19
ENDBRANCH   1  15
TORSDOF 6
ENDMDL
MODEL 4
REMARK VINA RESULT:    -7.057      2.756      6.805
REMARK INTER + INTRA:          -9.817
REMARK INTER:                  -9.649
REMARK INTRA:                  -0.168
REMARK UNBOUND:                -0.491
REMARK  Name = 
REMARK  6 active torsions:
REMARK  status: ('A' for Active; 'I' for Inactive)
REMARK    1  A    between atoms: N_1  and  C_2
REMARK    2  A    between atoms: C_2  and  C_3
REMARK    3  A    between atoms: C_3  and  C_4
REMARK    4  A    between atoms: C_7  and  C_8
REMARK    5  A    between atoms: C_8  and  N_9
REMARK    6  A    between atoms: C_14  and  C_15
REMARK                            x       y       z     vdW  Elec       q    Type
REMARK                         _______ _______ _______ _____ _____    ______ ____
ROOT
ATOM      1  N   UNL     1      44.184   4.713  10.612  0.00  0.00    +0.000 N 
ATOM      2  C   UNL     1      43.565   3.620  11.158  0.00  0.00    +0.000 A 
ATOM      3  N   UNL     1      43.883   2.507  10.527  0.00  0.00    +0.000 NA
ATOM      4  C   UNL     1      44.748   2.901   9.536  0.00  0.00    +0.000 A 
ATOM      5  C   UNL     1      45.375   2.164   8.524  0.00  0.00    +0.000 A 
ATOM      6  C   UNL     1      46.199   2.868   7.638  0.00  0.00    +0.000 A 
ATOM      7  C   UNL     1      46.375   4.243   7.834  0.00  0.00    +0.000 A 
ATOM      8  N   UNL     1      45.795   5.000   8.806  0.00  0.00    +0.000 NA
ATOM      9  C   UNL     1      44.985   4.269   9.597  0.00  0.00    +0.000 A 
ENDROOT
BRANCH   6  10
ATOM     10  C   UNL     1      46.884   2.242   6.482  0.00  0.00    +0.000 C 
ATOM     11  N   UNL     1      47.180   3.015   5.395  0.00  0.00    +0.000 N 
ATOM     12  O   UNL     1      47.195   1.057   6.495  0.00  0.00    +0.000 OA
ATOM     13  H   UNL     1      46.986   4.000   5.306  0.00  0.00    +0.000 HD
ATOM     14  H   UNL     1      47.676   2.565   4.637  0.00  0.00    +0.000 HD
ENDBRANCH   6  10
BRANCH   1  15
ATOM     15  C   UNL     1      44.005   6.091  11.025  0.00  0.00    +0.000 C 
BRANCH  15  19
ATOM     16  C   UNL     1      47.372   7.415  13.409  0.00  0.00    +0.000 A 
ATOM     17  C   UNL     1      46.358   8.313  13.056  0.00  0.00    +0.000 A 
ATOM     18  C   UNL     1      45.258   7.886  12.305  0.00  0.00    +0.000 A 
ATOM     19  C   UNL     1      45.147   6.550  11.901  0.00  0.00    +0.000 A 
ATOM     20  C   UNL     1      46.150   5.647  12.281  0.00  0.00    +0.000 A 
ATOM     21  C   UNL     1      47.248   6.073  13.031  0.00  0.00    +0.000 A 
BRANCH  16  22
ATOM     22  C   UNL     1      48.591   7.886  14.166  0.00  0.00    +0.000 C 
BRANCH  22  23
ATOM     23  C   UNL     1      49.059   6.888  15.229  0.00  0.00    +0.000 C 
BRANCH  23  24
ATOM     24  N   UNL     1      48.197   6.945  16.411  0.00  0.00    +0.000 NA
ATOM     25  H   UNL     1      47.692   6.066  16.501  0.00  0.00    +0.000 HD
ATOM     26  H   UNL     1      47.487   7.668  16.283  0.00  0.00    +0.000 HD
ENDBRANCH  23  24
ENDBRANCH  22  23
ENDBRANCH  16  22
ENDBRANCH  15  19
ENDBRANCH   1  15
TORSDOF 6
ENDMDL
MODEL 5
REMARK VINA RESULT:    -5.711      4.075      6.307
REMARK INTER + INTRA:          -8.038
REMARK INTER:                  -7.592
REMARK INTRA:                  -0.446
REMARK UNBOUND:                -0.491
REMARK  Name = 
REMARK  6 active torsions:
REMARK  status: ('A' for Active; 'I' for Inactive)
REMARK    1  A    between atoms: N_1  and  C_2
REMARK    2  A    between atoms: C_2  and  C_3
REMARK    3  A    between atoms: C_3  and  C_4
REMARK    4  A    between atoms: C_7  and  C_8
REMARK    5  A    between atoms: C_8  and  N_9
REMARK    6  A    between atoms: C_14  and  C_15
REMARK                            x       y       z     vdW  Elec       q    Type
REMARK                         _______ _______ _______ _____ _____    ______ ____
ROOT
ATOM      1  N   UNL     1      48.766   7.264  14.949  0.00  0.00    +0.000 N 
ATOM      2  C   UNL     1      48.393   8.534  15.303  0.00  0.00    +0.000 A 
ATOM      3  N   UNL     1      48.301   8.676  16.610  0.00  0.00    +0.000 NA
ATOM      4  C   UNL     1      48.634   7.445  17.119  0.00  0.00    +0.000 A 
ATOM      5  C   UNL     1      48.666   6.981  18.440  0.00  0.00    +0.000 A 
ATOM      6  C   UNL     1      49.033   5.646  18.640  0.00  0.00    +0.000 A 
ATOM      7  C   UNL     1      49.380   4.872  17.526  0.00  0.00    +0.000 A 
ATOM      8  N   UNL     1      49.372   5.279  16.227  0.00  0.00    +0.000 NA
ATOM      9  C   UNL     1      48.971   6.559  16.103  0.00  0.00    +0.000 A 
ENDROOT
BRANCH   6  10
ATOM     10  C   UNL     1      49.057   4.991  19.970  0.00  0.00    +0.000 C 
ATOM     11  N   UNL     1      48.441   3.781  20.119  0.00  0.00    +0.000 N 
ATOM     12  O   UNL     1      49.627   5.511  20.922  0.00  0.00    +0.000 OA
ATOM     13  H   UNL     1      47.971   3.269  19.389  0.00  0.00    +0.000 HD
ATOM     14  H   UNL     1      48.503   3.347  21.031  0.00  0.00    +0.000 HD
ENDBRANCH   6  10
BRANCH   1  15
ATOM     15  C   UNL     1      48.899   6.756  13.598  0.00  0.00    +0.000 C 
BRANCH  15  19
ATOM     16  C   UNL     1      45.154   5.364  11.922  0.00  0.00    +0.000 A 
ATOM     17  C   UNL     1      45.823   4.604  12.889  0.00  0.00    +0.000 A 
ATOM     18  C   UNL     1      47.021   5.059  13.450  0.00  0.00    +0.000 A 
ATOM     19  C   UNL     1      47.568   6.288  13.060  0.00  0.00    +0.000 A 
ATOM     20  C   UNL     1      46.879   7.060  12.113  0.00  0.00    +0.000 A 
ATOM     21  C   UNL     1      45.683   6.606  11.554  0.00  0.00    +0.000 A 
BRANCH  16  22
ATOM     22  C   UNL     1      43.894   4.846  11.271  0.00  0.00    +0.000 C 
BRANCH  22  23
ATOM     23  C   UNL     1      42.621   5.472  11.847  0.00  0.00    +0.000 C 
BRANCH  23  24
ATOM     24  N   UNL     1      42.634   5.421  13.310  0.00  0.00    +0.000 NA
ATOM     25  H   UNL     1      43.554   5.122  13.628  0.00  0.00    +0.000 HD
ATOM     26  H   UNL     1      41.977   4.710  13.634  0.00  0.00    +0.000 HD
ENDBRANCH  23  24
ENDBRANCH  22  23
ENDBRANCH  16  22
ENDBRANCH  15  19
ENDBRANCH   1  15
TORSDOF 6
ENDMDL
MODEL 6
REMARK VINA RESULT:    -5.665      1.933      3.013
REMARK INTER + INTRA:          -7.977
REMARK INTER:                  -7.846
REMARK INTRA:                  -0.131
REMARK UNBOUND:                -0.491
REMARK  Name = 
REMARK  6 active torsions:
REMARK  status: ('A' for Active; 'I' for Inactive)
REMARK    1  A    between atoms: N_1  and  C_2
REMARK    2  A    between atoms: C_2  and  C_3
REMARK    3  A    between atoms: C_3  and  C_4
REMARK    4  A    between atoms: C_7  and  C_8
REMARK    5  A    between atoms: C_8  and  N_9
REMARK    6  A    between atoms: C_14  and  C_15
REMARK                            x       y       z     vdW  Elec       q    Type
REMARK                         _______ _______ _______ _____ _____    ______ ____
ROOT
ATOM      1  N   UNL     1      45.945   6.772  13.053  0.00  0.00    +0.000 N 
ATOM      2  C   UNL     1      45.305   7.943  12.747  0.00  0.00    +0.000 A 
ATOM      3  N   UNL     1      46.096   8.988  12.886  0.00  0.00    +0.000 NA
ATOM      4  C   UNL     1      47.298   8.466  13.294  0.00  0.00    +0.000 A 
ATOM      5  C   UNL     1      48.497   9.099  13.643  0.00  0.00    +0.000 A 
ATOM      6  C   UNL     1      49.559   8.279  14.045  0.00  0.00    +0.000 A 
ATOM      7  C   UNL     1      49.374   6.891  14.039  0.00  0.00    +0.000 A 
ATOM      8  N   UNL     1      48.232   6.231  13.700  0.00  0.00    +0.000 NA
ATOM      9  C   UNL     1      47.241   7.079  13.364  0.00  0.00    +0.000 A 
ENDROOT
BRANCH   6  10
ATOM     10  C   UNL     1      50.870   8.799  14.501  0.00  0.00    +0.000 C 
ATOM     11  N   UNL     1      52.001   8.102  14.183  0.00  0.00    +0.000 N 
ATOM     12  O   UNL     1      50.951   9.841  15.140  0.00  0.00    +0.000 OA
ATOM     13  H   UNL     1      52.033   7.252  13.641  0.00  0.00    +0.000 HD
ATOM     14  H   UNL     1      52.882   8.501  14.481  0.00  0.00    +0.000 HD
ENDBRANCH   6  10
BRANCH   1  15
ATOM     15  C   UNL     1      45.351   5.449  13.066  0.00  0.00    +0.000 C 
BRANCH  15  19
ATOM     16  C   UNL     1      45.103   3.832   9.054  0.00  0.00    +0.000 A 
ATOM     17  C   UNL     1      44.572   3.123  10.137  0.00  0.00    +0.000 A 
ATOM     18  C   UNL     1      44.629   3.650  11.432  0.00  0.00    +0.000 A 
ATOM     19  C   UNL     1      45.212   4.902  11.665  0.00  0.00    +0.000 A 
ATOM     20  C   UNL     1      45.716   5.622  10.573  0.00  0.00    +0.000 A 
ATOM     21  C   UNL     1      45.658   5.096   9.281  0.00  0.00    +0.000 A 
BRANCH  16  22
ATOM     22  C   UNL     1      45.098   3.238   7.666  0.00  0.00    +0.000 C 
BRANCH  22  23
ATOM     23  C   UNL     1      46.503   2.928   7.142  0.00  0.00    +0.000 C 
BRANCH  23  24
ATOM     24  N   UNL     1      46.930   3.935   6.169  0.00  0.00    +0.000 NA
ATOM     25  H   UNL     1      47.897   4.193   6.356  0.00  0.00    +0.000 HD
ATOM     26  H   UNL     1      46.381   4.786   6.294  0.00  0.00    +0.000 HD
ENDBRANCH  23  24
ENDBRANCH  22  23
ENDBRANCH  16  22
ENDBRANCH  15  19
ENDBRANCH   1  15
TORSDOF 6
ENDMDL
MODEL 7
REMARK VINA RESULT:    -5.658      3.420      6.939
REMARK INTER + INTRA:          -7.968
REMARK INTER:                  -7.426
REMARK INTRA:                  -0.542
REMARK UNBOUND:                -0.491
REMARK  Name = 
REMARK  6 active torsions:
REMARK  status: ('A' for Active; 'I' for Inactive)
REMARK    1  A    between atoms: N_1  and  C_2
REMARK    2  A    between atoms: C_2  and  C_3
REMARK    3  A    between atoms: C_3  and  C_4
REMARK    4  A    between atoms: C_7  and  C_8
REMARK    5  A    between atoms: C_8  and  N_9
REMARK    6  A    between atoms: C_14  and  C_15
REMARK                            x       y       z     vdW  Elec       q    Type
REMARK                         _______ _______ _______ _____ _____    ______ ____
ROOT
ATOM      1  N   UNL     1      47.369   6.627  13.411  0.00  0.00    +0.000 N 
ATOM      2  C   UNL     1      47.789   5.875  14.476  0.00  0.00    +0.000 A 
ATOM      3  N   UNL     1      47.291   4.655  14.445  0.00  0.00    +0.000 NA
ATOM      4  C   UNL     1      46.520   4.620  13.309  0.00  0.00    +0.000 A 
ATOM      5  C   UNL     1      45.712   3.604  12.784  0.00  0.00    +0.000 A 
ATOM      6  C   UNL     1      45.023   3.884  11.599  0.00  0.00    +0.000 A 
ATOM      7  C   UNL     1      45.208   5.134  10.995  0.00  0.00    +0.000 A 
ATOM      8  N   UNL     1      45.987   6.148  11.462  0.00  0.00    +0.000 NA
ATOM      9  C   UNL     1      46.588   5.827  12.624  0.00  0.00    +0.000 A 
ENDROOT
BRANCH   6  10
ATOM     10  C   UNL     1      44.085   2.936  10.952  0.00  0.00    +0.000 C 
ATOM     11  N   UNL     1      44.508   2.236   9.858  0.00  0.00    +0.000 N 
ATOM     12  O   UNL     1      42.953   2.766  11.389  0.00  0.00    +0.000 OA
ATOM     13  H   UNL     1      45.426   2.292   9.444  0.00  0.00    +0.000 HD
ATOM     14  H   UNL     1      43.855   1.574   9.459  0.00  0.00    +0.000 HD
ENDBRANCH   6  10
BRANCH   1  15
ATOM     15  C   UNL     1      47.678   8.024  13.175  0.00  0.00    +0.000 C 
BRANCH  15  19
ATOM     16  C   UNL     1      51.830   8.386  11.989  0.00  0.00    +0.000 A 
ATOM     17  C   UNL     1      50.876   7.894  11.089  0.00  0.00    +0.000 A 
ATOM     18  C   UNL     1      49.531   7.796  11.459  0.00  0.00    +0.000 A 
ATOM     19  C   UNL     1      49.112   8.196  12.735  0.00  0.00    +0.000 A 
ATOM     20  C   UNL     1      50.065   8.716  13.622  0.00  0.00    +0.000 A 
ATOM     21  C   UNL     1      51.408   8.814  13.253  0.00  0.00    +0.000 A 
BRANCH  16  22
ATOM     22  C   UNL     1      53.292   8.434  11.614  0.00  0.00    +0.000 C 
BRANCH  22  23
ATOM     23  C   UNL     1      54.223   8.179  12.801  0.00  0.00    +0.000 C 
BRANCH  23  24
ATOM     24  N   UNL     1      54.586   6.763  12.883  0.00  0.00    +0.000 NA
ATOM     25  H   UNL     1      54.512   6.344  11.958  0.00  0.00    +0.000 HD
ATOM     26  H   UNL     1      53.913   6.271  13.472  0.00  0.00    +0.000 HD
ENDBRANCH  23  24
ENDBRANCH  22  23
ENDBRANCH  16  22
ENDBRANCH  15  19
ENDBRANCH   1  15
TORSDOF 6
ENDMDL
MODEL 8
REMARK VINA RESULT:    -5.568      3.967      8.720
REMARK INTER + INTRA:          -7.850
REMARK INTER:                  -7.393
REMARK INTRA:                  -0.457
REMARK UNBOUND:                -0.491
REMARK  Name = 
REMARK  6 active torsions:
REMARK  status: ('A' for Active; 'I' for Inactive)
REMARK    1  A    between atoms: N_1  and  C_2
REMARK    2  A    between atoms: C_2  and  C_3
REMARK    3  A    between atoms: C_3  and  C_4
REMARK    4  A    between atoms: C_7  and  C_8
REMARK    5  A    between atoms: C_8  and  N_9
REMARK    6  A    between atoms: C_14  and  C_15
REMARK                            x       y       z     vdW  Elec       q    Type
REMARK                         _______ _______ _______ _____ _____    ______ ____
ROOT
ATOM      1  N   UNL     1      48.155   7.217  14.033  0.00  0.00    +0.000 N 
ATOM      2  C   UNL     1      47.496   8.323  13.566  0.00  0.00    +0.000 A 
ATOM      3  N   UNL     1      46.374   8.006  12.951  0.00  0.00    +0.000 NA
ATOM      4  C   UNL     1      46.305   6.637  13.032  0.00  0.00    +0.000 A 
ATOM      5  C   UNL     1      45.364   5.738  12.517  0.00  0.00    +0.000 A 
ATOM      6  C   UNL     1      45.585   4.376  12.754  0.00  0.00    +0.000 A 
ATOM      7  C   UNL     1      46.699   4.000  13.514  0.00  0.00    +0.000 A 
ATOM      8  N   UNL     1      47.636   4.836  14.040  0.00  0.00    +0.000 NA
ATOM      9  C   UNL     1      47.385   6.125  13.741  0.00  0.00    +0.000 A 
ENDROOT
BRANCH   6  10
ATOM     10  C   UNL     1      44.713   3.300  12.226  0.00  0.00    +0.000 C 
ATOM     11  N   UNL     1      44.975   2.790  10.986  0.00  0.00    +0.000 N 
ATOM     12  O   UNL     1      43.780   2.858  12.886  0.00  0.00    +0.000 OA
ATOM     13  H   UNL     1      45.733   3.072  10.384  0.00  0.00    +0.000 HD
ATOM     14  H   UNL     1      44.381   2.035  10.668  0.00  0.00    +0.000 HD
ENDBRANCH   6  10
BRANCH   1  15
ATOM     15  C   UNL     1      49.443   7.206  14.698  0.00  0.00    +0.000 C 
BRANCH  15  19
ATOM     16  C   UNL     1      49.152   6.484  18.960  0.00  0.00    +0.000 A 
ATOM     17  C   UNL     1      48.532   7.600  18.387  0.00  0.00    +0.000 A 
ATOM     18  C   UNL     1      48.603   7.827  17.008  0.00  0.00    +0.000 A 
ATOM     19  C   UNL     1      49.291   6.935  16.175  0.00  0.00    +0.000 A 
ATOM     20  C   UNL     1      49.886   5.802  16.749  0.00  0.00    +0.000 A 
ATOM     21  C   UNL     1      49.814   5.577  18.126  0.00  0.00    +0.000 A 
BRANCH  16  22
ATOM     22  C   UNL     1      49.129   6.271  20.455  0.00  0.00    +0.000 C 
BRANCH  22  23
ATOM     23  C   UNL     1      49.538   4.854  20.864  0.00  0.00    +0.000 C 
BRANCH  23  24
ATOM     24  N   UNL     1      48.375   3.965  20.890  0.00  0.00    +0.000 NA
ATOM     25  H   UNL     1      48.492   3.239  20.185  0.00  0.00    +0.000 HD
ATOM     26  H   UNL     1      47.539   4.486  20.624  0.00  0.00    +0.000 HD
ENDBRANCH  23  24
ENDBRANCH  22  23
ENDBRANCH  16  22
ENDBRANCH  15  19
ENDBRANCH   1  15
TORSDOF 6
ENDMDL
MODEL 9
REMARK VINA RESULT:    -5.299      2.531      3.604
REMARK INTER + INTRA:          -7.493
REMARK INTER:                  -7.139
REMARK INTRA:                  -0.354
REMARK UNBOUND:                -0.491
REMARK  Name = 
REMARK  6 active torsions:
REMARK  status: ('A' for Active; 'I' for Inactive)
REMARK    1  A    between atoms: N_1  and  C_2
REMARK    2  A    between atoms: C_2  and  C_3
REMARK    3  A    between atoms: C_3  and  C_4
REMARK    4  A    between atoms: C_7  and  C_8
REMARK    5  A    between atoms: C_8  and  N_9
REMARK    6  A    between atoms: C_14  and  C_15
REMARK                            x       y       z     vdW  Elec       q    Type
REMARK                         _______ _______ _______ _____ _____    ______ ____
ROOT
ATOM      1  N   UNL     1      46.681   6.839  12.752  0.00  0.00    +0.000 N 
ATOM      2  C   UNL     1      47.281   5.948  13.601  0.00  0.00    +0.000 A 
ATOM      3  N   UNL     1      48.483   6.347  13.965  0.00  0.00    +0.000 NA
ATOM      4  C   UNL     1      48.662   7.549  13.327  0.00  0.00    +0.000 A 
ATOM      5  C   UNL     1      49.763   8.413  13.297  0.00  0.00    +0.000 A 
ATOM      6  C   UNL     1      49.644   9.574  12.524  0.00  0.00    +0.000 A 
ATOM      7  C   UNL     1      48.434   9.819  11.864  0.00  0.00    +0.000 A 
ATOM      8  N   UNL     1      47.336   9.014  11.869  0.00  0.00    +0.000 NA
ATOM      9  C   UNL     1      47.532   7.898  12.597  0.00  0.00    +0.000 A 
ENDROOT
BRANCH   6  10
ATOM     10  C   UNL     1      50.740  10.556  12.345  0.00  0.00    +0.000 C 
ATOM     11  N   UNL     1      51.583  10.800  13.392  0.00  0.00    +0.000 N 
ATOM     12  O   UNL     1      50.905  11.134  11.277  0.00  0.00    +0.000 OA
ATOM     13  H   UNL     1      51.540  10.355  14.296  0.00  0.00    +0.000 HD
ATOM     14  H   UNL     1      52.339  11.452  13.227  0.00  0.00    +0.000 HD
ENDBRANCH   6  10
BRANCH   1  15
ATOM     15  C   UNL     1      45.388   6.678  12.117  0.00  0.00    +0.000 C 
BRANCH  15  19
ATOM     16  C   UNL     1      45.166   3.188   9.559  0.00  0.00    +0.000 A 
ATOM     17  C   UNL     1      45.635   4.407   9.054  0.00  0.00    +0.000 A 
ATOM     18  C   UNL     1      45.729   5.532   9.881  0.00  0.00    +0.000 A 
ATOM     19  C   UNL     1      45.365   5.455  11.231  0.00  0.00    +0.000 A 
ATOM     20  C   UNL     1      44.925   4.225  11.740  0.00  0.00    +0.000 A 
ATOM     21  C   UNL     1      44.830   3.102  10.914  0.00  0.00    +0.000 A 
BRANCH  16  22
ATOM     22  C   UNL     1      45.004   1.990   8.654  0.00  0.00    +0.000 C 
BRANCH  22  23
ATOM     23  C   UNL     1      46.295   1.615   7.921  0.00  0.00    +0.000 C 
BRANCH  23  24
ATOM     24  N   UNL     1      46.512   0.168   7.957  0.00  0.00    +0.000 NA
ATOM     25  H   UNL     1      47.194  -0.052   8.680  0.00  0.00    +0.000 HD
ATOM     26  H   UNL     1      46.925  -0.139   7.075  0.00  0.00    +0.000 HD
ENDBRANCH  23  24
ENDBRANCH  22  23
ENDBRANCH  16  22
ENDBRANCH  15  19
ENDBRANCH   1  15
TORSDOF 6
ENDMDL
