MODEL 1
REMARK VINA RESULT:    -8.837      0.000      0.000
REMARK INTER + INTRA:         -12.379
REMARK INTER:                 -11.678
REMARK INTRA:                  -0.701
REMARK UNBOUND:                -0.701
REMARK  Name = 
REMARK  6 active torsions:
REMARK  status: ('A' for Active; 'I' for Inactive)
REMARK    1  A    between atoms: N_1  and  C_2
REMARK    2  A    between atoms: C_2  and  N_3
REMARK    3  A    between atoms: C_2  and  C_16
REMARK    4  A    between atoms: C_4  and  C_6
REMARK    5  A    between atoms: C_19  and  C_20
REMARK    6  A    between atoms: C_20  and  N_21
REMARK                            x       y       z     vdW  Elec       q    Type
REMARK                         _______ _______ _______ _____ _____    ______ ____
ROOT
ATOM      1  C   UNL     1      46.836   7.813  13.200  0.00  0.00    +0.000 C 
ENDROOT
BRANCH   1   2
ATOM      2  C   UNL     1      46.137   6.692  12.452  0.00  0.00    +0.000 A 
ATOM      3  C   UNL     1      46.274   6.574  11.060  0.00  0.00    +0.000 A 
ATOM      4  C   UNL     1      45.665   5.523  10.364  0.00  0.00    +0.000 A 
ATOM      5  C   UNL     1      44.895   4.567  11.039  0.00  0.00    +0.000 A 
ATOM      6  C   UNL     1      44.755   4.680  12.431  0.00  0.00    +0.000 A 
ATOM      7  C   UNL     1      45.360   5.729  13.121  0.00  0.00    +0.000 A 
BRANCH   5   8
ATOM      8  C   UNL     1      44.253   3.422  10.296  0.00  0.00    +0.000 C 
BRANCH   8   9
ATOM      9  N   UNL     1      45.205   2.765   9.428  0.00  0.00    +0.000 N 
ATOM     10  C   UNL     1      45.310   3.163   8.119  0.00  0.00    +0.000 C 
ATOM     11  O   UNL     1      44.587   4.022   7.624  0.00  0.00    +0.000 OA
ATOM     12  N   UNL     1      46.312   2.545   7.421  0.00  0.00    +0.000 N 
ATOM     13  C   UNL     1      46.628   2.893   6.067  0.00  0.00    +0.000 C 
ATOM     14  C   UNL     1      47.951   2.189   5.881  0.00  0.00    +0.000 C 
ATOM     15  O   UNL     1      47.916   1.044   6.757  0.00  0.00    +0.000 OA
ATOM     16  C   UNL     1      46.838   1.239   7.683  0.00  0.00    +0.000 C 
ATOM     17  H   UNL     1      46.093   2.558   9.861  0.00  0.00    +0.000 HD
ENDBRANCH   8   9
ENDBRANCH   5   8
ENDBRANCH   1   2
BRANCH   1  18
ATOM     18  N   UNL     1      47.407   7.338  14.424  0.00  0.00    +0.000 N 
ATOM     19  C   UNL     1      48.650   6.766  14.502  0.00  0.00    +0.000 C 
ATOM     20  O   UNL     1      49.396   6.686  13.530  0.00  0.00    +0.000 OA
ATOM     21  H   UNL     1      46.750   7.159  15.175  0.00  0.00    +0.000 HD
BRANCH  19  22
ATOM     22  C   UNL     1      49.089   6.331  15.837  0.00  0.00    +0.000 A 
ATOM     23  C   UNL     1      50.078   7.047  16.498  0.00  0.00    +0.000 A 
ATOM     24  S   UNL     1      50.441   6.445  18.052  0.00  0.00    +0.000 S 
ATOM     25  C   UNL     1      49.323   5.176  17.881  0.00  0.00    +0.000 A 
ATOM     26  N   UNL     1      49.156   4.254  18.867  0.00  0.00    +0.000 NA
ATOM     27  C   UNL     1      48.296   3.329  18.596  0.00  0.00    +0.000 A 
ATOM     28  N   UNL     1      47.580   3.250  17.429  0.00  0.00    +0.000 N 
ATOM     29  C   UNL     1      47.688   4.179  16.424  0.00  0.00    +0.000 A 
ATOM     30  O   UNL     1      46.984   4.120  15.420  0.00  0.00    +0.000 OA
ATOM     31  C   UNL     1      48.663   5.227  16.666  0.00  0.00    +0.000 A 
ATOM     32  H   UNL     1      46.909   2.508  17.287  0.00  0.00    +0.000 HD
ENDBRANCH  19  22
ENDBRANCH   1  18
BRANCH   1  33
ATOM     33  N   UNL     1      45.900   8.846  13.593  0.00  0.00    +0.000 NA
ATOM     34  H   UNL     1      46.032   8.994  14.593  0.00  0.00    +0.000 HD
ATOM     35  H   UNL     1      44.961   8.476  13.492  0.00  0.00    +0.000 HD
ENDBRANCH   1  33
TORSDOF 6
ENDMDL
MODEL 2
REMARK VINA RESULT:    -8.320      1.765      2.143
REMARK INTER + INTRA:         -11.696
REMARK INTER:                 -10.784
REMARK INTRA:                  -0.912
REMARK UNBOUND:                -0.701
REMARK  Name = 
REMARK  6 active torsions:
REMARK  status: ('A' for Active; 'I' for Inactive)
REMARK    1  A    between atoms: N_1  and  C_2
REMARK    2  A    between atoms: C_2  and  N_3
REMARK    3  A    between atoms: C_2  and  C_16
REMARK    4  A    between atoms: C_4  and  C_6
REMARK    5  A    between atoms: C_19  and  C_20
REMARK    6  A    between atoms: C_20  and  N_21
REMARK                            x       y       z     vdW  Elec       q    Type
REMARK                         _______ _______ _______ _____ _____    ______ ____
ROOT
ATOM      1  C   UNL     1      47.287   7.413  13.540  0.00  0.00    +0.000 C 
ENDROOT
BRANCH   1   2
ATOM      2  C   UNL     1      46.505   6.374  12.756  0.00  0.00    +0.000 A 
ATOM      3  C   UNL     1      45.992   6.681  11.487  0.00  0.00    +0.000 A 
ATOM      4  C   UNL     1      45.301   5.720  10.738  0.00  0.00    +0.000 A 
ATOM      5  C   UNL     1      45.097   4.429  11.243  0.00  0.00    +0.000 A 
ATOM      6  C   UNL     1      45.608   4.117  12.512  0.00  0.00    +0.000 A 
ATOM      7  C   UNL     1      46.293   5.076  13.256  0.00  0.00    +0.000 A 
BRANCH   5   8
ATOM      8  C   UNL     1      44.371   3.385  10.432  0.00  0.00    +0.000 C 
BRANCH   8   9
ATOM      9  N   UNL     1      45.265   2.735   9.499  0.00  0.00    +0.000 N 
ATOM     10  C   UNL     1      45.371   3.219   8.220  0.00  0.00    +0.000 C 
ATOM     11  O   UNL     1      44.695   4.154   7.803  0.00  0.00    +0.000 OA
ATOM     12  N   UNL     1      46.319   2.593   7.457  0.00  0.00    +0.000 N 
ATOM     13  C   UNL     1      46.632   3.017   6.125  0.00  0.00    +0.000 C 
ATOM     14  C   UNL     1      47.905   2.249   5.860  0.00  0.00    +0.000 C 
ATOM     15  O   UNL     1      47.814   1.048   6.654  0.00  0.00    +0.000 OA
ATOM     16  C   UNL     1      46.768   1.241   7.615  0.00  0.00    +0.000 C 
ATOM     17  H   UNL     1      46.145   2.443   9.896  0.00  0.00    +0.000 HD
ENDBRANCH   8   9
ENDBRANCH   5   8
ENDBRANCH   1   2
BRANCH   1  18
ATOM     18  N   UNL     1      47.548   6.962  14.874  0.00  0.00    +0.000 N 
ATOM     19  C   UNL     1      48.808   6.706  15.349  0.00  0.00    +0.000 C 
ATOM     20  O   UNL     1      49.816   6.916  14.679  0.00  0.00    +0.000 OA
ATOM     21  H   UNL     1      46.761   6.549  15.360  0.00  0.00    +0.000 HD
BRANCH  19  22
ATOM     22  C   UNL     1      48.903   6.250  16.744  0.00  0.00    +0.000 A 
ATOM     23  C   UNL     1      49.345   4.962  17.013  0.00  0.00    +0.000 A 
ATOM     24  S   UNL     1      49.444   4.601  18.677  0.00  0.00    +0.000 S 
ATOM     25  C   UNL     1      48.855   6.139  19.101  0.00  0.00    +0.000 A 
ATOM     26  N   UNL     1      48.668   6.482  20.404  0.00  0.00    +0.000 NA
ATOM     27  C   UNL     1      48.189   7.668  20.582  0.00  0.00    +0.000 A 
ATOM     28  N   UNL     1      47.891   8.547  19.573  0.00  0.00    +0.000 N 
ATOM     29  C   UNL     1      48.100   8.258  18.247  0.00  0.00    +0.000 A 
ATOM     30  O   UNL     1      47.888   9.090  17.371  0.00  0.00    +0.000 OA
ATOM     31  C   UNL     1      48.611   6.925  17.988  0.00  0.00    +0.000 A 
ATOM     32  H   UNL     1      47.534   9.469  19.783  0.00  0.00    +0.000 HD
ENDBRANCH  19  22
ENDBRANCH   1  18
BRANCH   1  33
ATOM     33  N   UNL     1      46.528   8.636  13.694  0.00  0.00    +0.000 NA
ATOM     34  H   UNL     1      46.605   9.140  12.811  0.00  0.00    +0.000 HD
ATOM     35  H   UNL     1      46.996   9.215  14.382  0.00  0.00    +0.000 HD
ENDBRANCH   1  33
TORSDOF 6
ENDMDL
MODEL 3
REMARK VINA RESULT:    -8.068      4.780      9.164
REMARK INTER + INTRA:         -11.363
REMARK INTER:                 -10.527
REMARK INTRA:                  -0.836
REMARK UNBOUND:                -0.701
REMARK  Name = 
REMARK  6 active torsions:
REMARK  status: ('A' for Active; 'I' for Inactive)
REMARK    1  A    between atoms: N_1  and  C_2
REMARK    2  A    between atoms: C_2  and  N_3
REMARK    3  A    between atoms: C_2  and  C_16
REMARK    4  A    between atoms: C_4  and  C_6
REMARK    5  A    between atoms: C_19  and  C_20
REMARK    6  A    between atoms: C_20  and  N_21
REMARK                            x       y       z     vdW  Elec       q    Type
REMARK                         _______ _______ _______ _____ _____    ______ ____
ROOT
ATOM      1  C   UNL     1      47.423   3.557  16.946  0.00  0.00    +0.000 C 
ENDROOT
BRANCH   1   2
ATOM      2  C   UNL     1      48.911   3.359  17.178  0.00  0.00    +0.000 A 
ATOM      3  C   UNL     1      49.710   4.429  17.609  0.00  0.00    +0.000 A 
ATOM      4  C   UNL     1      51.076   4.249  17.863  0.00  0.00    +0.000 A 
ATOM      5  C   UNL     1      51.680   2.998  17.683  0.00  0.00    +0.000 A 
ATOM      6  C   UNL     1      50.885   1.925  17.253  0.00  0.00    +0.000 A 
ATOM      7  C   UNL     1      49.526   2.107  16.998  0.00  0.00    +0.000 A 
BRANCH   5   8
ATOM      8  C   UNL     1      53.146   2.796  17.974  0.00  0.00    +0.000 C 
BRANCH   8   9
ATOM      9  N   UNL     1      53.623   1.553  17.407  0.00  0.00    +0.000 N 
ATOM     10  C   UNL     1      54.169   0.603  18.233  0.00  0.00    +0.000 C 
ATOM     11  O   UNL     1      54.330   0.779  19.436  0.00  0.00    +0.000 OA
ATOM     12  N   UNL     1      54.491  -0.570  17.606  0.00  0.00    +0.000 N 
ATOM     13  C   UNL     1      54.993  -1.707  18.320  0.00  0.00    +0.000 C 
ATOM     14  C   UNL     1      54.881  -2.789  17.273  0.00  0.00    +0.000 C 
ATOM     15  O   UNL     1      55.019  -2.123  16.001  0.00  0.00    +0.000 OA
ATOM     16  C   UNL     1      54.841  -0.717  16.225  0.00  0.00    +0.000 C 
ATOM     17  H   UNL     1      53.035   1.170  16.683  0.00  0.00    +0.000 HD
ENDBRANCH   8   9
ENDBRANCH   5   8
ENDBRANCH   1   2
BRANCH   1  18
ATOM     18  N   UNL     1      47.186   4.545  15.938  0.00  0.00    +0.000 N 
ATOM     19  C   UNL     1      47.150   4.260  14.598  0.00  0.00    +0.000 C 
ATOM     20  O   UNL     1      47.249   3.113  14.170  0.00  0.00    +0.000 OA
ATOM     21  H   UNL     1      47.347   5.506  16.218  0.00  0.00    +0.000 HD
BRANCH  19  22
ATOM     22  C   UNL     1      46.894   5.392  13.694  0.00  0.00    +0.000 A 
ATOM     23  C   UNL     1      47.913   6.295  13.424  0.00  0.00    +0.000 A 
ATOM     24  S   UNL     1      47.474   7.521  12.323  0.00  0.00    +0.000 S 
ATOM     25  C   UNL     1      45.889   6.917  12.200  0.00  0.00    +0.000 A 
ATOM     26  N   UNL     1      44.963   7.537  11.419  0.00  0.00    +0.000 NA
ATOM     27  C   UNL     1      43.794   6.990  11.440  0.00  0.00    +0.000 A 
ATOM     28  N   UNL     1      43.469   5.872  12.163  0.00  0.00    +0.000 N 
ATOM     29  C   UNL     1      44.381   5.192  12.934  0.00  0.00    +0.000 A 
ATOM     30  O   UNL     1      44.078   4.155  13.516  0.00  0.00    +0.000 OA
ATOM     31  C   UNL     1      45.706   5.781  12.968  0.00  0.00    +0.000 A 
ATOM     32  H   UNL     1      42.536   5.484  12.121  0.00  0.00    +0.000 HD
ENDBRANCH  19  22
ENDBRANCH   1  18
BRANCH   1  33
ATOM     33  N   UNL     1      46.769   4.061  18.135  0.00  0.00    +0.000 NA
ATOM     34  H   UNL     1      45.970   4.609  17.818  0.00  0.00    +0.000 HD
ATOM     35  H   UNL     1      47.393   4.721  18.585  0.00  0.00    +0.000 HD
ENDBRANCH   1  33
TORSDOF 6
ENDMDL
MODEL 4
REMARK VINA RESULT:    -7.953      1.884      2.421
REMARK INTER + INTRA:         -11.211
REMARK INTER:                 -10.277
REMARK INTRA:                  -0.934
REMARK UNBOUND:                -0.701
REMARK  Name = 
REMARK  6 active torsions:
REMARK  status: ('A' for Active; 'I' for Inactive)
REMARK    1  A    between atoms: N_1  and  C_2
REMARK    2  A    between atoms: C_2  and  N_3
REMARK    3  A    between atoms: C_2  and  C_16
REMARK    4  A    between atoms: C_4  and  C_6
REMARK    5  A    between atoms: C_19  and  C_20
REMARK    6  A    between atoms: C_20  and  N_21
REMARK                            x       y       z     vdW  Elec       q    Type
REMARK                         _______ _______ _______ _____ _____    ______ ____
ROOT
ATOM      1  C   UNL     1      47.716   7.512  13.838  0.00  0.00    +0.000 C 
ENDROOT
BRANCH   1   2
ATOM      2  C   UNL     1      46.712   6.728  13.011  0.00  0.00    +0.000 A 
ATOM      3  C   UNL     1      45.975   7.363  12.000  0.00  0.00    +0.000 A 
ATOM      4  C   UNL     1      45.074   6.642  11.207  0.00  0.00    +0.000 A 
ATOM      5  C   UNL     1      44.879   5.270  11.409  0.00  0.00    +0.000 A 
ATOM      6  C   UNL     1      45.614   4.631  12.419  0.00  0.00    +0.000 A 
ATOM      7  C   UNL     1      46.508   5.350  13.210  0.00  0.00    +0.000 A 
BRANCH   5   8
ATOM      8  C   UNL     1      43.924   4.486  10.545  0.00  0.00    +0.000 C 
BRANCH   8   9
ATOM      9  N   UNL     1      44.595   3.382   9.895  0.00  0.00    +0.000 N 
ATOM     10  C   UNL     1      45.282   3.603   8.729  0.00  0.00    +0.000 C 
ATOM     11  O   UNL     1      45.309   4.695   8.169  0.00  0.00    +0.000 OA
ATOM     12  N   UNL     1      45.962   2.513   8.259  0.00  0.00    +0.000 N 
ATOM     13  C   UNL     1      46.804   2.576   7.101  0.00  0.00    +0.000 C 
ATOM     14  C   UNL     1      47.540   1.261   7.197  0.00  0.00    +0.000 C 
ATOM     15  O   UNL     1      46.645   0.356   7.875  0.00  0.00    +0.000 OA
ATOM     16  C   UNL     1      45.613   1.142   8.486  0.00  0.00    +0.000 C 
ATOM     17  H   UNL     1      45.061   2.746  10.525  0.00  0.00    +0.000 HD
ENDBRANCH   8   9
ENDBRANCH   5   8
ENDBRANCH   1   2
BRANCH   1  18
ATOM     18  N   UNL     1      48.159   6.753  14.968  0.00  0.00    +0.000 N 
ATOM     19  C   UNL     1      49.073   7.218  15.876  0.00  0.00    +0.000 C 
ATOM     20  O   UNL     1      49.527   8.358  15.822  0.00  0.00    +0.000 OA
ATOM     21  H   UNL     1      48.009   5.752  14.910  0.00  0.00    +0.000 HD
BRANCH  19  22
ATOM     22  C   UNL     1      49.420   6.311  16.981  0.00  0.00    +0.000 A 
ATOM     23  C   UNL     1      48.417   5.830  17.811  0.00  0.00    +0.000 A 
ATOM     24  S   UNL     1      48.973   4.754  19.012  0.00  0.00    +0.000 S 
ATOM     25  C   UNL     1      50.584   4.928  18.497  0.00  0.00    +0.000 A 
ATOM     26  N   UNL     1      51.596   4.281  19.136  0.00  0.00    +0.000 NA
ATOM     27  C   UNL     1      52.771   4.524  18.661  0.00  0.00    +0.000 A 
ATOM     28  N   UNL     1      53.025   5.348  17.595  0.00  0.00    +0.000 N 
ATOM     29  C   UNL     1      52.033   5.991  16.897  0.00  0.00    +0.000 A 
ATOM     30  O   UNL     1      52.285   6.668  15.905  0.00  0.00    +0.000 OA
ATOM     31  C   UNL     1      50.692   5.774  17.407  0.00  0.00    +0.000 A 
ATOM     32  H   UNL     1      53.970   5.482  17.262  0.00  0.00    +0.000 HD
ENDBRANCH  19  22
ENDBRANCH   1  18
BRANCH   1  33
ATOM     33  N   UNL     1      47.118   8.708  14.394  0.00  0.00    +0.000 NA
ATOM     34  H   UNL     1      46.591   8.416  15.215  0.00  0.00    +0.000 HD
ATOM     35  H   UNL     1      46.430   9.054  13.734  0.00  0.00    +0.000 HD
ENDBRANCH   1  33
TORSDOF 6
ENDMDL
MODEL 5
REMARK VINA RESULT:    -7.759      1.917      2.391
REMARK INTER + INTRA:         -10.954
REMARK INTER:                  -9.926
REMARK INTRA:                  -1.028
REMARK UNBOUND:                -0.701
REMARK  Name = 
REMARK  6 active torsions:
REMARK  status: ('A' for Active; 'I' for Inactive)
REMARK    1  A    between atoms: N_1  and  C_2
REMARK    2  A    between atoms: C_2  and  N_3
REMARK    3  A    between atoms: C_2  and  C_16
REMARK    4  A    between atoms: C_4  and  C_6
REMARK    5  A    between atoms: C_19  and  C_20
REMARK    6  A    between atoms: C_20  and  N_21
REMARK                            x       y       z     vdW  Elec       q    Type
REMARK                         _______ _______ _______ _____ _____    ______ ____
ROOT
ATOM      1  C   UNL     1      48.680   7.315  14.110  0.00  0.00    +0.000 C 
ENDROOT
BRANCH   1   2
ATOM      2  C   UNL     1      47.601   6.689  13.244  0.00  0.00    +0.000 A 
ATOM      3  C   UNL     1      47.093   5.418  13.550  0.00  0.00    +0.000 A 
ATOM      4  C   UNL     1      46.071   4.847  12.780  0.00  0.00    +0.000 A 
ATOM      5  C   UNL     1      45.538   5.528  11.679  0.00  0.00    +0.000 A 
ATOM      6  C   UNL     1      46.043   6.799  11.368  0.00  0.00    +0.000 A 
ATOM      7  C   UNL     1      47.061   7.365  12.134  0.00  0.00    +0.000 A 
BRANCH   5   8
ATOM      8  C   UNL     1      44.425   4.925  10.859  0.00  0.00    +0.000 C 
BRANCH   8   9
ATOM      9  N   UNL     1      44.875   3.742  10.159  0.00  0.00    +0.000 N 
ATOM     10  C   UNL     1      45.488   3.874   8.938  0.00  0.00    +0.000 C 
ATOM     11  O   UNL     1      45.624   4.956   8.375  0.00  0.00    +0.000 OA
ATOM     12  N   UNL     1      45.963   2.702   8.416  0.00  0.00    +0.000 N 
ATOM     13  C   UNL     1      46.707   2.656   7.192  0.00  0.00    +0.000 C 
ATOM     14  C   UNL     1      47.253   1.248   7.229  0.00  0.00    +0.000 C 
ATOM     15  O   UNL     1      46.297   0.474   7.982  0.00  0.00    +0.000 OA
ATOM     16  C   UNL     1      45.442   1.393   8.675  0.00  0.00    +0.000 C 
ATOM     17  H   UNL     1      45.296   3.040  10.749  0.00  0.00    +0.000 HD
ENDBRANCH   8   9
ENDBRANCH   5   8
ENDBRANCH   1   2
BRANCH   1  18
ATOM     18  N   UNL     1      48.351   7.209  15.499  0.00  0.00    +0.000 N 
ATOM     19  C   UNL     1      49.263   7.396  16.504  0.00  0.00    +0.000 C 
ATOM     20  O   UNL     1      50.420   7.741  16.283  0.00  0.00    +0.000 OA
ATOM     21  H   UNL     1      47.503   6.696  15.712  0.00  0.00    +0.000 HD
BRANCH  19  22
ATOM     22  C   UNL     1      48.762   7.252  17.880  0.00  0.00    +0.000 A 
ATOM     23  C   UNL     1      48.103   8.315  18.483  0.00  0.00    +0.000 A 
ATOM     24  S   UNL     1      47.542   7.975  20.057  0.00  0.00    +0.000 S 
ATOM     25  C   UNL     1      48.200   6.407  20.011  0.00  0.00    +0.000 A 
ATOM     26  N   UNL     1      48.096   5.573  21.081  0.00  0.00    +0.000 NA
ATOM     27  C   UNL     1      48.663   4.425  20.921  0.00  0.00    +0.000 A 
ATOM     28  N   UNL     1      49.317   4.030  19.782  0.00  0.00    +0.000 N 
ATOM     29  C   UNL     1      49.413   4.824  18.665  0.00  0.00    +0.000 A 
ATOM     30  O   UNL     1      49.945   4.418  17.637  0.00  0.00    +0.000 OA
ATOM     31  C   UNL     1      48.815   6.139  18.801  0.00  0.00    +0.000 A 
ATOM     32  H   UNL     1      49.726   3.108  19.717  0.00  0.00    +0.000 HD
ENDBRANCH  19  22
ENDBRANCH   1  18
BRANCH   1  33
ATOM     33  N   UNL     1      48.800   8.735  13.855  0.00  0.00    +0.000 NA
ATOM     34  H   UNL     1      49.781   8.974  13.995  0.00  0.00    +0.000 HD
ATOM     35  H   UNL     1      48.290   9.231  14.577  0.00  0.00    +0.000 HD
ENDBRANCH   1  33
TORSDOF 6
ENDMDL
MODEL 6
REMARK VINA RESULT:    -7.728      4.745      9.141
REMARK INTER + INTRA:         -10.914
REMARK INTER:                  -9.769
REMARK INTRA:                  -1.144
REMARK UNBOUND:                -0.701
REMARK  Name = 
REMARK  6 active torsions:
REMARK  status: ('A' for Active; 'I' for Inactive)
REMARK    1  A    between atoms: N_1  and  C_2
REMARK    2  A    between atoms: C_2  and  N_3
REMARK    3  A    between atoms: C_2  and  C_16
REMARK    4  A    between atoms: C_4  and  C_6
REMARK    5  A    between atoms: C_19  and  C_20
REMARK    6  A    between atoms: C_20  and  N_21
REMARK                            x       y       z     vdW  Elec       q    Type
REMARK                         _______ _______ _______ _____ _____    ______ ____
ROOT
ATOM      1  C   UNL     1      47.403   3.637  17.005  0.00  0.00    +0.000 C 
ENDROOT
BRANCH   1   2
ATOM      2  C   UNL     1      48.880   3.435  17.294  0.00  0.00    +0.000 A 
ATOM      3  C   UNL     1      49.503   2.218  16.982  0.00  0.00    +0.000 A 
ATOM      4  C   UNL     1      50.873   2.032  17.210  0.00  0.00    +0.000 A 
ATOM      5  C   UNL     1      51.652   3.056  17.765  0.00  0.00    +0.000 A 
ATOM      6  C   UNL     1      51.033   4.275  18.079  0.00  0.00    +0.000 A 
ATOM      7  C   UNL     1      49.669   4.456  17.853  0.00  0.00    +0.000 A 
BRANCH   5   8
ATOM      8  C   UNL     1      53.131   2.867  17.994  0.00  0.00    +0.000 C 
BRANCH   8   9
ATOM      9  N   UNL     1      53.585   1.604  17.454  0.00  0.00    +0.000 N 
ATOM     10  C   UNL     1      54.200   0.700  18.284  0.00  0.00    +0.000 C 
ATOM     11  O   UNL     1      54.439   0.934  19.464  0.00  0.00    +0.000 OA
ATOM     12  N   UNL     1      54.494  -0.498  17.692  0.00  0.00    +0.000 N 
ATOM     13  C   UNL     1      55.059  -1.594  18.422  0.00  0.00    +0.000 C 
ATOM     14  C   UNL     1      54.891  -2.726  17.436  0.00  0.00    +0.000 C 
ATOM     15  O   UNL     1      54.933  -2.120  16.128  0.00  0.00    +0.000 OA
ATOM     16  C   UNL     1      54.751  -0.707  16.298  0.00  0.00    +0.000 C 
ATOM     17  H   UNL     1      52.954   1.181  16.790  0.00  0.00    +0.000 HD
ENDBRANCH   8   9
ENDBRANCH   5   8
ENDBRANCH   1   2
BRANCH   1  18
ATOM     18  N   UNL     1      47.210   4.566  15.932  0.00  0.00    +0.000 N 
ATOM     19  C   UNL     1      47.221   4.202  14.611  0.00  0.00    +0.000 C 
ATOM     20  O   UNL     1      47.327   3.032  14.255  0.00  0.00    +0.000 OA
ATOM     21  H   UNL     1      47.368   5.541  16.162  0.00  0.00    +0.000 HD
BRANCH  19  22
ATOM     22  C   UNL     1      47.007   5.280  13.633  0.00  0.00    +0.000 A 
ATOM     23  C   UNL     1      45.944   5.195  12.744  0.00  0.00    +0.000 A 
ATOM     24  S   UNL     1      45.803   6.542  11.708  0.00  0.00    +0.000 S 
ATOM     25  C   UNL     1      47.187   7.269  12.376  0.00  0.00    +0.000 A 
ATOM     26  N   UNL     1      47.645   8.462  11.909  0.00  0.00    +0.000 NA
ATOM     27  C   UNL     1      48.719   8.886  12.487  0.00  0.00    +0.000 A 
ATOM     28  N   UNL     1      49.371   8.229  13.498  0.00  0.00    +0.000 N 
ATOM     29  C   UNL     1      48.923   7.043  14.027  0.00  0.00    +0.000 A 
ATOM     30  O   UNL     1      49.489   6.513  14.978  0.00  0.00    +0.000 OA
ATOM     31  C   UNL     1      47.732   6.507  13.395  0.00  0.00    +0.000 A 
ATOM     32  H   UNL     1      50.200   8.626  13.919  0.00  0.00    +0.000 HD
ENDBRANCH  19  22
ENDBRANCH   1  18
BRANCH   1  33
ATOM     33  N   UNL     1      46.720   4.221  18.141  0.00  0.00    +0.000 NA
ATOM     34  H   UNL     1      46.367   5.126  17.835  0.00  0.00    +0.000 HD
ATOM     35  H   UNL     1      47.411   4.422  18.856  0.00  0.00    +0.000 HD
ENDBRANCH   1  33
TORSDOF 6
ENDMDL
MODEL 7
REMARK VINA RESULT:    -7.712      2.769      4.586
REMARK INTER + INTRA:         -10.893
REMARK INTER:                  -9.599
REMARK INTRA:                  -1.294
REMARK UNBOUND:                -0.701
REMARK  Name = 
REMARK  6 active torsions:
REMARK  status: ('A' for Active; 'I' for Inactive)
REMARK    1  A    between atoms: N_1  and  C_2
REMARK    2  A    between atoms: C_2  and  N_3
REMARK    3  A    between atoms: C_2  and  C_16
REMARK    4  A    between atoms: C_4  and  C_6
REMARK    5  A    between atoms: C_19  and  C_20
REMARK    6  A    between atoms: C_20  and  N_21
REMARK                            x       y       z     vdW  Elec       q    Type
REMARK                         _______ _______ _______ _____ _____    ______ ____
ROOT
ATOM      1  C   UNL     1      47.534   6.032  14.602  0.00  0.00    +0.000 C 
ENDROOT
BRANCH   1   2
ATOM      2  C   UNL     1      46.692   5.296  13.575  0.00  0.00    +0.000 A 
ATOM      3  C   UNL     1      46.077   5.997  12.528  0.00  0.00    +0.000 A 
ATOM      4  C   UNL     1      45.329   5.324  11.553  0.00  0.00    +0.000 A 
ATOM      5  C   UNL     1      45.169   3.933  11.606  0.00  0.00    +0.000 A 
ATOM      6  C   UNL     1      45.782   3.228  12.652  0.00  0.00    +0.000 A 
ATOM      7  C   UNL     1      46.524   3.900  13.622  0.00  0.00    +0.000 A 
BRANCH   5   8
ATOM      8  C   UNL     1      44.380   3.203  10.548  0.00  0.00    +0.000 C 
BRANCH   8   9
ATOM      9  N   UNL     1      45.258   2.579   9.582  0.00  0.00    +0.000 N 
ATOM     10  C   UNL     1      45.439   3.170   8.357  0.00  0.00    +0.000 C 
ATOM     11  O   UNL     1      44.841   4.184   8.012  0.00  0.00    +0.000 OA
ATOM     12  N   UNL     1      46.366   2.550   7.564  0.00  0.00    +0.000 N 
ATOM     13  C   UNL     1      46.751   3.072   6.286  0.00  0.00    +0.000 C 
ATOM     14  C   UNL     1      47.977   2.243   5.984  0.00  0.00    +0.000 C 
ATOM     15  O   UNL     1      47.779   0.984   6.659  0.00  0.00    +0.000 OA
ATOM     16  C   UNL     1      46.716   1.162   7.607  0.00  0.00    +0.000 C 
ATOM     17  H   UNL     1      46.103   2.191   9.973  0.00  0.00    +0.000 HD
ENDBRANCH   8   9
ENDBRANCH   5   8
ENDBRANCH   1   2
BRANCH   1  18
ATOM     18  N   UNL     1      48.536   6.834  13.968  0.00  0.00    +0.000 N 
ATOM     19  C   UNL     1      49.298   7.755  14.638  0.00  0.00    +0.000 C 
ATOM     20  O   UNL     1      49.222   7.907  15.854  0.00  0.00    +0.000 OA
ATOM     21  H   UNL     1      48.458   6.919  12.961  0.00  0.00    +0.000 HD
BRANCH  19  22
ATOM     22  C   UNL     1      50.285   8.496  13.838  0.00  0.00    +0.000 A 
ATOM     23  C   UNL     1      51.629   8.433  14.181  0.00  0.00    +0.000 A 
ATOM     24  S   UNL     1      52.650   9.306  13.130  0.00  0.00    +0.000 S 
ATOM     25  C   UNL     1      51.328   9.841  12.204  0.00  0.00    +0.000 A 
ATOM     26  N   UNL     1      51.510  10.669  11.139  0.00  0.00    +0.000 NA
ATOM     27  C   UNL     1      50.420  11.019  10.542  0.00  0.00    +0.000 A 
ATOM     28  N   UNL     1      49.165  10.607  10.908  0.00  0.00    +0.000 N 
ATOM     29  C   UNL     1      48.938   9.742  11.950  0.00  0.00    +0.000 A 
ATOM     30  O   UNL     1      47.809   9.338  12.210  0.00  0.00    +0.000 OA
ATOM     31  C   UNL     1      50.128   9.338  12.674  0.00  0.00    +0.000 A 
ATOM     32  H   UNL     1      48.353  10.907  10.385  0.00  0.00    +0.000 HD
ENDBRANCH  19  22
ENDBRANCH   1  18
BRANCH   1  33
ATOM     33  N   UNL     1      48.263   5.107  15.445  0.00  0.00    +0.000 NA
ATOM     34  H   UNL     1      47.978   5.300  16.404  0.00  0.00    +0.000 HD
ATOM     35  H   UNL     1      49.248   5.344  15.397  0.00  0.00    +0.000 HD
ENDBRANCH   1  33
TORSDOF 6
ENDMDL
MODEL 8
REMARK VINA RESULT:    -7.560      3.934      8.817
REMARK INTER + INTRA:         -10.692
REMARK INTER:                  -9.808
REMARK INTRA:                  -0.884
REMARK UNBOUND:                -0.701
REMARK  Name = 
REMARK  6 active torsions:
REMARK  status: ('A' for Active; 'I' for Inactive)
REMARK    1  A    between atoms: N_1  and  C_2
REMARK    2  A    between atoms: C_2  and  N_3
REMARK    3  A    between atoms: C_2  and  C_16
REMARK    4  A    between atoms: C_4  and  C_6
REMARK    5  A    between atoms: C_19  and  C_20
REMARK    6  A    between atoms: C_20  and  N_21
REMARK                            x       y       z     vdW  Elec       q    Type
REMARK                         _______ _______ _______ _____ _____    ______ ____
ROOT
ATOM      1  C   UNL     1      47.507   3.359  16.483  0.00  0.00    +0.000 C 
ENDROOT
BRANCH   1   2
ATOM      2  C   UNL     1      48.832   3.922  16.964  0.00  0.00    +0.000 A 
ATOM      3  C   UNL     1      49.848   3.064  17.410  0.00  0.00    +0.000 A 
ATOM      4  C   UNL     1      51.088   3.569  17.820  0.00  0.00    +0.000 A 
ATOM      5  C   UNL     1      51.342   4.947  17.804  0.00  0.00    +0.000 A 
ATOM      6  C   UNL     1      50.329   5.810  17.359  0.00  0.00    +0.000 A 
ATOM      7  C   UNL     1      49.095   5.305  16.953  0.00  0.00    +0.000 A 
BRANCH   5   8
ATOM      8  C   UNL     1      52.682   5.494  18.227  0.00  0.00    +0.000 C 
BRANCH   8   9
ATOM      9  N   UNL     1      53.300   6.245  17.155  0.00  0.00    +0.000 N 
ATOM     10  C   UNL     1      54.329   5.682  16.444  0.00  0.00    +0.000 C 
ATOM     11  O   UNL     1      54.798   4.580  16.710  0.00  0.00    +0.000 OA
ATOM     12  N   UNL     1      54.767   6.439  15.392  0.00  0.00    +0.000 N 
ATOM     13  C   UNL     1      55.775   5.977  14.484  0.00  0.00    +0.000 C 
ATOM     14  C   UNL     1      55.663   6.994  13.373  0.00  0.00    +0.000 C 
ATOM     15  O   UNL     1      55.197   8.208  13.995  0.00  0.00    +0.000 OA
ATOM     16  C   UNL     1      54.696   7.866  15.295  0.00  0.00    +0.000 C 
ATOM     17  H   UNL     1      52.654   6.771  16.586  0.00  0.00    +0.000 HD
ENDBRANCH   8   9
ENDBRANCH   5   8
ENDBRANCH   1   2
BRANCH   1  18
ATOM     18  N   UNL     1      46.839   4.281  15.614  0.00  0.00    +0.000 N 
ATOM     19  C   UNL     1      46.870   4.184  14.248  0.00  0.00    +0.000 C 
ATOM     20  O   UNL     1      47.418   3.249  13.670  0.00  0.00    +0.000 OA
ATOM     21  H   UNL     1      46.599   5.176  16.025  0.00  0.00    +0.000 HD
BRANCH  19  22
ATOM     22  C   UNL     1      46.131   5.213  13.501  0.00  0.00    +0.000 A 
ATOM     23  C   UNL     1      46.654   6.495  13.403  0.00  0.00    +0.000 A 
ATOM     24  S   UNL     1      45.705   7.558  12.467  0.00  0.00    +0.000 S 
ATOM     25  C   UNL     1      44.532   6.357  12.195  0.00  0.00    +0.000 A 
ATOM     26  N   UNL     1      43.412   6.624  11.470  0.00  0.00    +0.000 NA
ATOM     27  C   UNL     1      42.593   5.631  11.365  0.00  0.00    +0.000 A 
ATOM     28  N   UNL     1      42.799   4.391  11.911  0.00  0.00    +0.000 N 
ATOM     29  C   UNL     1      43.932   4.065  12.616  0.00  0.00    +0.000 A 
ATOM     30  O   UNL     1      44.119   2.927  13.034  0.00  0.00    +0.000 OA
ATOM     31  C   UNL     1      44.875   5.154  12.788  0.00  0.00    +0.000 A 
ATOM     32  H   UNL     1      42.124   3.651  11.776  0.00  0.00    +0.000 HD
ENDBRANCH  19  22
ENDBRANCH   1  18
BRANCH   1  33
ATOM     33  N   UNL     1      46.594   3.149  17.588  0.00  0.00    +0.000 NA
ATOM     34  H   UNL     1      46.799   2.224  17.963  0.00  0.00    +0.000 HD
ATOM     35  H   UNL     1      45.653   3.092  17.215  0.00  0.00    +0.000 HD
ENDBRANCH   1  33
TORSDOF 6
ENDMDL
MODEL 9
REMARK VINA RESULT:    -7.504      3.019      4.281
REMARK INTER + INTRA:         -10.618
REMARK INTER:                  -9.522
REMARK INTRA:                  -1.096
REMARK UNBOUND:                -0.701
REMARK  Name = 
REMARK  6 active torsions:
REMARK  status: ('A' for Active; 'I' for Inactive)
REMARK    1  A    between atoms: N_1  and  C_2
REMARK    2  A    between atoms: C_2  and  N_3
REMARK    3  A    between atoms: C_2  and  C_16
REMARK    4  A    between atoms: C_4  and  C_6
REMARK    5  A    between atoms: C_19  and  C_20
REMARK    6  A    between atoms: C_20  and  N_21
REMARK                            x       y       z     vdW  Elec       q    Type
REMARK                         _______ _______ _______ _____ _____    ______ ____
ROOT
ATOM      1  C   UNL     1      47.456   6.340  14.394  0.00  0.00    +0.000 C 
ENDROOT
BRANCH   1   2
ATOM      2  C   UNL     1      46.705   5.468  13.403  0.00  0.00    +0.000 A 
ATOM      3  C   UNL     1      46.601   4.085  13.612  0.00  0.00    +0.000 A 
ATOM      4  C   UNL     1      45.879   3.276  12.725  0.00  0.00    +0.000 A 
ATOM      5  C   UNL     1      45.250   3.828  11.601  0.00  0.00    +0.000 A 
ATOM      6  C   UNL     1      45.352   5.211  11.388  0.00  0.00    +0.000 A 
ATOM      7  C   UNL     1      46.073   6.013  12.271  0.00  0.00    +0.000 A 
BRANCH   5   8
ATOM      8  C   UNL     1      44.456   2.964  10.654  0.00  0.00    +0.000 C 
BRANCH   8   9
ATOM      9  N   UNL     1      45.308   2.389   9.635  0.00  0.00    +0.000 N 
ATOM     10  C   UNL     1      45.399   3.001   8.410  0.00  0.00    +0.000 C 
ATOM     11  O   UNL     1      44.742   3.993   8.111  0.00  0.00    +0.000 OA
ATOM     12  N   UNL     1      46.309   2.431   7.562  0.00  0.00    +0.000 N 
ATOM     13  C   UNL     1      46.604   2.983   6.273  0.00  0.00    +0.000 C 
ATOM     14  C   UNL     1      47.845   2.210   5.896  0.00  0.00    +0.000 C 
ATOM     15  O   UNL     1      47.735   0.936   6.563  0.00  0.00    +0.000 OA
ATOM     16  C   UNL     1      46.718   1.058   7.567  0.00  0.00    +0.000 C 
ATOM     17  H   UNL     1      46.187   2.032   9.976  0.00  0.00    +0.000 HD
ENDBRANCH   8   9
ENDBRANCH   5   8
ENDBRANCH   1   2
BRANCH   1  18
ATOM     18  N   UNL     1      48.615   6.925  13.791  0.00  0.00    +0.000 N 
ATOM     19  C   UNL     1      48.736   8.266  13.539  0.00  0.00    +0.000 C 
ATOM     20  O   UNL     1      47.879   9.077  13.882  0.00  0.00    +0.000 OA
ATOM     21  H   UNL     1      49.214   6.286  13.280  0.00  0.00    +0.000 HD
BRANCH  19  22
ATOM     22  C   UNL     1      49.993   8.705  12.914  0.00  0.00    +0.000 A 
ATOM     23  C   UNL     1      49.951   9.431  11.730  0.00  0.00    +0.000 A 
ATOM     24  S   UNL     1      51.486   9.906  11.159  0.00  0.00    +0.000 S 
ATOM     25  C   UNL     1      52.269   9.118  12.446  0.00  0.00    +0.000 A 
ATOM     26  N   UNL     1      53.626   9.114  12.542  0.00  0.00    +0.000 NA
ATOM     27  C   UNL     1      54.089   8.456  13.552  0.00  0.00    +0.000 A 
ATOM     28  N   UNL     1      53.316   7.812  14.482  0.00  0.00    +0.000 N 
ATOM     29  C   UNL     1      51.943   7.822  14.447  0.00  0.00    +0.000 A 
ATOM     30  O   UNL     1      51.277   7.294  15.332  0.00  0.00    +0.000 OA
ATOM     31  C   UNL     1      51.369   8.525  13.315  0.00  0.00    +0.000 A 
ATOM     32  H   UNL     1      53.743   7.328  15.260  0.00  0.00    +0.000 HD
ENDBRANCH  19  22
ENDBRANCH   1  18
BRANCH   1  33
ATOM     33  N   UNL     1      47.959   5.559  15.505  0.00  0.00    +0.000 NA
ATOM     34  H   UNL     1      48.957   5.433  15.344  0.00  0.00    +0.000 HD
ATOM     35  H   UNL     1      47.552   4.631  15.450  0.00  0.00    +0.000 HD
ENDBRANCH   1  33
TORSDOF 6
ENDMDL
