MODEL 1
REMARK VINA RESULT:    -8.009      0.000      0.000
REMARK INTER + INTRA:         -11.162
REMARK INTER:                 -10.351
REMARK INTRA:                  -0.811
REMARK UNBOUND:                -0.811
REMARK  Name = 
REMARK  6 active torsions:
REMARK  status: ('A' for Active; 'I' for Inactive)
REMARK    1  A    between atoms: C_1  and  C_2
REMARK    2  A    between atoms: C_7  and  C_8
REMARK    3  A    between atoms: N_10  and  C_11
REMARK    4  A    between atoms: C_11  and  C_12
REMARK    5  A    between atoms: C_15  and  C_16
REMARK    6  A    between atoms: C_16  and  N_17
REMARK                            x       y       z     vdW  Elec       q    Type
REMARK                         _______ _______ _______ _____ _____    ______ ____
ROOT
ATOM      1  C   UNL     1      48.402   6.866  14.097  0.00  0.00    +0.000 C 
ATOM      2  O   UNL     1      48.998   6.715  13.029  0.00  0.00    +0.000 OA
ATOM      3  N   UNL     1      47.120   7.355  14.140  0.00  0.00    +0.000 N 
ATOM      4  H   UNL     1      46.666   7.442  15.041  0.00  0.00    +0.000 HD
ENDROOT
BRANCH   1  11
ATOM      5  C   UNL     1      48.390   2.874  19.692  0.00  0.00    +0.000 C 
ATOM      6  C   UNL     1      48.593   3.854  18.574  0.00  0.00    +0.000 A 
ATOM      7  N   UNL     1      49.552   4.726  18.577  0.00  0.00    +0.000 NA
ATOM      8  C   UNL     1      49.591   5.538  17.482  0.00  0.00    +0.000 A 
ATOM      9  S   UNL     1      50.780   6.745  17.319  0.00  0.00    +0.000 S 
ATOM     10  C   UNL     1      50.155   7.244  15.810  0.00  0.00    +0.000 A 
ATOM     11  C   UNL     1      49.045   6.524  15.388  0.00  0.00    +0.000 A 
ATOM     12  C   UNL     1      48.738   5.521  16.397  0.00  0.00    +0.000 A 
ATOM     13  C   UNL     1      47.693   4.519  16.446  0.00  0.00    +0.000 A 
ATOM     14  O   UNL     1      46.858   4.345  15.556  0.00  0.00    +0.000 OA
ATOM     15  N   UNL     1      47.669   3.732  17.555  0.00  0.00    +0.000 N 
ATOM     16  H   UNL     1      46.947   3.035  17.594  0.00  0.00    +0.000 HD
ENDBRANCH   1  11
BRANCH   3  17
ATOM     17  C   UNL     1      46.358   7.723  12.959  0.00  0.00    +0.000 C 
BRANCH  17  18
ATOM     18  C   UNL     1      45.798   6.551  12.172  0.00  0.00    +0.000 A 
ATOM     19  C   UNL     1      45.069   5.550  12.824  0.00  0.00    +0.000 A 
ATOM     20  C   UNL     1      44.553   4.448  12.116  0.00  0.00    +0.000 A 
ATOM     21  C   UNL     1      44.739   4.318  10.731  0.00  0.00    +0.000 A 
ATOM     22  C   UNL     1      45.443   5.325  10.077  0.00  0.00    +0.000 A 
ATOM     23  C   UNL     1      45.966   6.414  10.787  0.00  0.00    +0.000 A 
BRANCH  21  24
ATOM     24  C   UNL     1      44.234   3.155   9.908  0.00  0.00    +0.000 C 
BRANCH  24  25
ATOM     25  N   UNL     1      44.358   3.436   8.498  0.00  0.00    +0.000 N 
ATOM     26  C   UNL     1      45.453   2.847   7.890  0.00  0.00    +0.000 A 
ATOM     27  N   UNL     1      45.978   1.704   8.355  0.00  0.00    +0.000 NA
ATOM     28  C   UNL     1      46.963   1.149   7.625  0.00  0.00    +0.000 A 
ATOM     29  C   UNL     1      47.464   1.710   6.477  0.00  0.00    +0.000 A 
ATOM     30  C   UNL     1      46.899   2.905   6.116  0.00  0.00    +0.000 A 
ATOM     31  N   UNL     1      45.905   3.491   6.806  0.00  0.00    +0.000 NA
ATOM     32  H   UNL     1      44.453   4.421   8.272  0.00  0.00    +0.000 HD
ENDBRANCH  24  25
ENDBRANCH  21  24
ENDBRANCH  17  18
ENDBRANCH   3  17
TORSDOF 5
ENDMDL
MODEL 2
REMARK VINA RESULT:    -7.854      1.989      2.730
REMARK INTER + INTRA:         -10.961
REMARK INTER:                 -10.348
REMARK INTRA:                  -0.613
REMARK UNBOUND:                -0.811
REMARK  Name = 
REMARK  6 active torsions:
REMARK  status: ('A' for Active; 'I' for Inactive)
REMARK    1  A    between atoms: C_1  and  C_2
REMARK    2  A    between atoms: C_7  and  C_8
REMARK    3  A    between atoms: N_10  and  C_11
REMARK    4  A    between atoms: C_11  and  C_12
REMARK    5  A    between atoms: C_15  and  C_16
REMARK    6  A    between atoms: C_16  and  N_17
REMARK                            x       y       z     vdW  Elec       q    Type
REMARK                         _______ _______ _______ _____ _____    ______ ____
ROOT
ATOM      1  C   UNL     1      48.572   6.582  15.779  0.00  0.00    +0.000 C 
ATOM      2  O   UNL     1      48.721   7.805  15.808  0.00  0.00    +0.000 OA
ATOM      3  N   UNL     1      47.882   5.969  14.763  0.00  0.00    +0.000 N 
ATOM      4  H   UNL     1      47.804   4.958  14.773  0.00  0.00    +0.000 HD
ENDROOT
BRANCH   1  11
ATOM      5  C   UNL     1      54.188   4.196  18.941  0.00  0.00    +0.000 C 
ATOM      6  C   UNL     1      52.836   4.573  18.412  0.00  0.00    +0.000 A 
ATOM      7  N   UNL     1      51.736   4.096  18.905  0.00  0.00    +0.000 NA
ATOM      8  C   UNL     1      50.596   4.546  18.306  0.00  0.00    +0.000 A 
ATOM      9  S   UNL     1      49.062   4.021  18.821  0.00  0.00    +0.000 S 
ATOM     10  C   UNL     1      48.273   4.979  17.647  0.00  0.00    +0.000 A 
ATOM     11  C   UNL     1      49.132   5.716  16.843  0.00  0.00    +0.000 A 
ATOM     12  C   UNL     1      50.499   5.440  17.259  0.00  0.00    +0.000 A 
ATOM     13  C   UNL     1      51.760   5.947  16.758  0.00  0.00    +0.000 A 
ATOM     14  O   UNL     1      51.862   6.767  15.844  0.00  0.00    +0.000 OA
ATOM     15  N   UNL     1      52.881   5.470  17.364  0.00  0.00    +0.000 N 
ATOM     16  H   UNL     1      53.758   5.819  17.021  0.00  0.00    +0.000 HD
ENDBRANCH   1  11
BRANCH   3  17
ATOM     17  C   UNL     1      47.286   6.682  13.647  0.00  0.00    +0.000 C 
BRANCH  17  18
ATOM     18  C   UNL     1      46.484   5.815  12.692  0.00  0.00    +0.000 A 
ATOM     19  C   UNL     1      46.187   6.275  11.404  0.00  0.00    +0.000 A 
ATOM     20  C   UNL     1      45.434   5.494  10.508  0.00  0.00    +0.000 A 
ATOM     21  C   UNL     1      44.963   4.221  10.866  0.00  0.00    +0.000 A 
ATOM     22  C   UNL     1      45.278   3.751  12.139  0.00  0.00    +0.000 A 
ATOM     23  C   UNL     1      46.017   4.537  13.032  0.00  0.00    +0.000 A 
BRANCH  21  24
ATOM     24  C   UNL     1      44.132   3.334   9.968  0.00  0.00    +0.000 C 
BRANCH  24  25
ATOM     25  N   UNL     1      44.357   3.660   8.580  0.00  0.00    +0.000 N 
ATOM     26  C   UNL     1      45.425   2.995   8.001  0.00  0.00    +0.000 A 
ATOM     27  N   UNL     1      45.816   1.790   8.439  0.00  0.00    +0.000 NA
ATOM     28  C   UNL     1      46.785   1.175   7.735  0.00  0.00    +0.000 A 
ATOM     29  C   UNL     1      47.396   1.733   6.640  0.00  0.00    +0.000 A 
ATOM     30  C   UNL     1      46.963   2.990   6.307  0.00  0.00    +0.000 A 
ATOM     31  N   UNL     1      45.993   3.638   6.972  0.00  0.00    +0.000 NA
ATOM     32  H   UNL     1      44.555   4.640   8.405  0.00  0.00    +0.000 HD
ENDBRANCH  24  25
ENDBRANCH  21  24
ENDBRANCH  17  18
ENDBRANCH   3  17
TORSDOF 5
ENDMDL
MODEL 3
REMARK VINA RESULT:    -7.354      2.026      2.421
REMARK INTER + INTRA:         -10.315
REMARK INTER:                  -9.613
REMARK INTRA:                  -0.702
REMARK UNBOUND:                -0.811
REMARK  Name = 
REMARK  6 active torsions:
REMARK  status: ('A' for Active; 'I' for Inactive)
REMARK    1  A    between atoms: C_1  and  C_2
REMARK    2  A    between atoms: C_7  and  C_8
REMARK    3  A    between atoms: N_10  and  C_11
REMARK    4  A    between atoms: C_11  and  C_12
REMARK    5  A    between atoms: C_15  and  C_16
REMARK    6  A    between atoms: C_16  and  N_17
REMARK                            x       y       z     vdW  Elec       q    Type
REMARK                         _______ _______ _______ _____ _____    ______ ____
ROOT
ATOM      1  C   UNL     1      48.618   8.846  13.904  0.00  0.00    +0.000 C 
ATOM      2  O   UNL     1      48.254  10.023  13.870  0.00  0.00    +0.000 OA
ATOM      3  N   UNL     1      47.759   7.821  13.594  0.00  0.00    +0.000 N 
ATOM      4  H   UNL     1      48.112   6.871  13.617  0.00  0.00    +0.000 HD
ENDROOT
BRANCH   1  11
ATOM      5  C   UNL     1      52.721   4.949  17.804  0.00  0.00    +0.000 C 
ATOM      6  C   UNL     1      52.038   5.896  16.863  0.00  0.00    +0.000 A 
ATOM      7  N   UNL     1      52.693   6.704  16.090  0.00  0.00    +0.000 NA
ATOM      8  C   UNL     1      51.915   7.496  15.297  0.00  0.00    +0.000 A 
ATOM      9  S   UNL     1      52.605   8.620  14.222  0.00  0.00    +0.000 S 
ATOM     10  C   UNL     1      51.070   9.136  13.679  0.00  0.00    +0.000 A 
ATOM     11  C   UNL     1      50.004   8.483  14.283  0.00  0.00    +0.000 A 
ATOM     12  C   UNL     1      50.536   7.517  15.233  0.00  0.00    +0.000 A 
ATOM     13  C   UNL     1      49.861   6.585  16.112  0.00  0.00    +0.000 A 
ATOM     14  O   UNL     1      48.637   6.453  16.171  0.00  0.00    +0.000 OA
ATOM     15  N   UNL     1      50.660   5.819  16.902  0.00  0.00    +0.000 N 
ATOM     16  H   UNL     1      50.196   5.170  17.512  0.00  0.00    +0.000 HD
ENDBRANCH   1  11
BRANCH   3  17
ATOM     17  C   UNL     1      46.376   8.020  13.194  0.00  0.00    +0.000 C 
BRANCH  17  18
ATOM     18  C   UNL     1      45.781   6.888  12.374  0.00  0.00    +0.000 A 
ATOM     19  C   UNL     1      44.821   6.041  12.939  0.00  0.00    +0.000 A 
ATOM     20  C   UNL     1      44.266   4.977  12.201  0.00  0.00    +0.000 A 
ATOM     21  C   UNL     1      44.645   4.734  10.872  0.00  0.00    +0.000 A 
ATOM     22  C   UNL     1      45.584   5.591  10.301  0.00  0.00    +0.000 A 
ATOM     23  C   UNL     1      46.142   6.640  11.043  0.00  0.00    +0.000 A 
BRANCH  21  24
ATOM     24  C   UNL     1      44.111   3.602  10.026  0.00  0.00    +0.000 C 
BRANCH  24  25
ATOM     25  N   UNL     1      44.337   3.862   8.624  0.00  0.00    +0.000 N 
ATOM     26  C   UNL     1      45.364   3.122   8.062  0.00  0.00    +0.000 A 
ATOM     27  N   UNL     1      45.698   1.916   8.543  0.00  0.00    +0.000 NA
ATOM     28  C   UNL     1      46.627   1.226   7.855  0.00  0.00    +0.000 A 
ATOM     29  C   UNL     1      47.253   1.709   6.733  0.00  0.00    +0.000 A 
ATOM     30  C   UNL     1      46.881   2.972   6.355  0.00  0.00    +0.000 A 
ATOM     31  N   UNL     1      45.951   3.695   7.003  0.00  0.00    +0.000 NA
ATOM     32  H   UNL     1      44.582   4.823   8.409  0.00  0.00    +0.000 HD
ENDBRANCH  24  25
ENDBRANCH  21  24
ENDBRANCH  17  18
ENDBRANCH   3  17
TORSDOF 5
ENDMDL
MODEL 4
REMARK VINA RESULT:    -7.275      1.979      2.302
REMARK INTER + INTRA:         -10.212
REMARK INTER:                  -9.326
REMARK INTRA:                  -0.886
REMARK UNBOUND:                -0.811
REMARK  Name = 
REMARK  6 active torsions:
REMARK  status: ('A' for Active; 'I' for Inactive)
REMARK    1  A    between atoms: C_1  and  C_2
REMARK    2  A    between atoms: C_7  and  C_8
REMARK    3  A    between atoms: N_10  and  C_11
REMARK    4  A    between atoms: C_11  and  C_12
REMARK    5  A    between atoms: C_15  and  C_16
REMARK    6  A    between atoms: C_16  and  N_17
REMARK                            x       y       z     vdW  Elec       q    Type
REMARK                         _______ _______ _______ _____ _____    ______ ____
ROOT
ATOM      1  C   UNL     1      48.709   9.209  15.714  0.00  0.00    +0.000 C 
ATOM      2  O   UNL     1      49.580   9.924  15.215  0.00  0.00    +0.000 OA
ATOM      3  N   UNL     1      47.643   8.756  14.977  0.00  0.00    +0.000 N 
ATOM      4  H   UNL     1      46.965   8.154  15.428  0.00  0.00    +0.000 HD
ENDROOT
BRANCH   1  11
ATOM      5  C   UNL     1      48.776   4.062  20.268  0.00  0.00    +0.000 C 
ATOM      6  C   UNL     1      48.777   5.335  19.475  0.00  0.00    +0.000 A 
ATOM      7  N   UNL     1      48.843   6.503  20.031  0.00  0.00    +0.000 NA
ATOM      8  C   UNL     1      48.834   7.554  19.161  0.00  0.00    +0.000 A 
ATOM      9  S   UNL     1      48.910   9.161  19.716  0.00  0.00    +0.000 S 
ATOM     10  C   UNL     1      48.851   9.777  18.124  0.00  0.00    +0.000 A 
ATOM     11  C   UNL     1      48.775   8.802  17.138  0.00  0.00    +0.000 A 
ATOM     12  C   UNL     1      48.769   7.498  17.783  0.00  0.00    +0.000 A 
ATOM     13  C   UNL     1      48.707   6.165  17.220  0.00  0.00    +0.000 A 
ATOM     14  O   UNL     1      48.667   5.926  16.011  0.00  0.00    +0.000 OA
ATOM     15  N   UNL     1      48.703   5.137  18.110  0.00  0.00    +0.000 N 
ATOM     16  H   UNL     1      48.662   4.211  17.724  0.00  0.00    +0.000 HD
ENDBRANCH   1  11
BRANCH   3  17
ATOM     17  C   UNL     1      47.449   9.061  13.570  0.00  0.00    +0.000 C 
BRANCH  17  18
ATOM     18  C   UNL     1      46.673   8.012  12.793  0.00  0.00    +0.000 A 
ATOM     19  C   UNL     1      45.374   8.284  12.348  0.00  0.00    +0.000 A 
ATOM     20  C   UNL     1      44.632   7.321  11.638  0.00  0.00    +0.000 A 
ATOM     21  C   UNL     1      45.169   6.059  11.339  0.00  0.00    +0.000 A 
ATOM     22  C   UNL     1      46.470   5.795  11.761  0.00  0.00    +0.000 A 
ATOM     23  C   UNL     1      47.200   6.751  12.478  0.00  0.00    +0.000 A 
BRANCH  21  24
ATOM     24  C   UNL     1      44.427   4.969  10.602  0.00  0.00    +0.000 C 
BRANCH  24  25
ATOM     25  N   UNL     1      44.705   5.030   9.187  0.00  0.00    +0.000 N 
ATOM     26  C   UNL     1      45.382   3.929   8.688  0.00  0.00    +0.000 A 
ATOM     27  N   UNL     1      45.265   2.722   9.258  0.00  0.00    +0.000 NA
ATOM     28  C   UNL     1      45.866   1.694   8.630  0.00  0.00    +0.000 A 
ATOM     29  C   UNL     1      46.604   1.836   7.481  0.00  0.00    +0.000 A 
ATOM     30  C   UNL     1      46.709   3.119   7.009  0.00  0.00    +0.000 A 
ATOM     31  N   UNL     1      46.117   4.173   7.596  0.00  0.00    +0.000 NA
ATOM     32  H   UNL     1      45.278   5.818   8.905  0.00  0.00    +0.000 HD
ENDBRANCH  24  25
ENDBRANCH  21  24
ENDBRANCH  17  18
ENDBRANCH   3  17
TORSDOF 5
ENDMDL
MODEL 5
REMARK VINA RESULT:    -7.267      4.216      9.212
REMARK INTER + INTRA:         -10.202
REMARK INTER:                  -9.320
REMARK INTRA:                  -0.882
REMARK UNBOUND:                -0.811
REMARK  Name = 
REMARK  6 active torsions:
REMARK  status: ('A' for Active; 'I' for Inactive)
REMARK    1  A    between atoms: C_1  and  C_2
REMARK    2  A    between atoms: C_7  and  C_8
REMARK    3  A    between atoms: N_10  and  C_11
REMARK    4  A    between atoms: C_11  and  C_12
REMARK    5  A    between atoms: C_15  and  C_16
REMARK    6  A    between atoms: C_16  and  N_17
REMARK                            x       y       z     vdW  Elec       q    Type
REMARK                         _______ _______ _______ _____ _____    ______ ____
ROOT
ATOM      1  C   UNL     1      47.106   4.081  14.759  0.00  0.00    +0.000 C 
ATOM      2  O   UNL     1      47.427   2.947  14.399  0.00  0.00    +0.000 OA
ATOM      3  N   UNL     1      47.082   4.432  16.086  0.00  0.00    +0.000 N 
ATOM      4  H   UNL     1      46.831   5.383  16.330  0.00  0.00    +0.000 HD
ENDROOT
BRANCH   1  11
ATOM      5  C   UNL     1      48.606  10.137  11.875  0.00  0.00    +0.000 C 
ATOM      6  C   UNL     1      48.080   8.816  12.352  0.00  0.00    +0.000 A 
ATOM      7  N   UNL     1      46.998   8.284  11.879  0.00  0.00    +0.000 NA
ATOM      8  C   UNL     1      46.664   7.079  12.424  0.00  0.00    +0.000 A 
ATOM      9  S   UNL     1      45.271   6.239  11.925  0.00  0.00    +0.000 S 
ATOM     10  C   UNL     1      45.581   4.957  13.011  0.00  0.00    +0.000 A 
ATOM     11  C   UNL     1      46.731   5.121  13.772  0.00  0.00    +0.000 A 
ATOM     12  C   UNL     1      47.350   6.384  13.400  0.00  0.00    +0.000 A 
ATOM     13  C   UNL     1      48.558   7.024  13.882  0.00  0.00    +0.000 A 
ATOM     14  O   UNL     1      49.304   6.538  14.734  0.00  0.00    +0.000 OA
ATOM     15  N   UNL     1      48.858   8.231  13.332  0.00  0.00    +0.000 N 
ATOM     16  H   UNL     1      49.694   8.677  13.662  0.00  0.00    +0.000 HD
ENDBRANCH   1  11
BRANCH   3  17
ATOM     17  C   UNL     1      47.434   3.527  17.166  0.00  0.00    +0.000 C 
BRANCH  17  18
ATOM     18  C   UNL     1      48.926   3.343  17.382  0.00  0.00    +0.000 A 
ATOM     19  C   UNL     1      49.538   2.125  17.065  0.00  0.00    +0.000 A 
ATOM     20  C   UNL     1      50.917   1.928  17.269  0.00  0.00    +0.000 A 
ATOM     21  C   UNL     1      51.731   2.948  17.786  0.00  0.00    +0.000 A 
ATOM     22  C   UNL     1      51.129   4.169  18.080  0.00  0.00    +0.000 A 
ATOM     23  C   UNL     1      49.754   4.356  17.886  0.00  0.00    +0.000 A 
BRANCH  21  24
ATOM     24  C   UNL     1      53.212   2.805  18.053  0.00  0.00    +0.000 C 
BRANCH  24  25
ATOM     25  N   UNL     1      53.464   1.706  18.954  0.00  0.00    +0.000 N 
ATOM     26  C   UNL     1      53.998   0.580  18.350  0.00  0.00    +0.000 A 
ATOM     27  N   UNL     1      54.745   0.672  17.241  0.00  0.00    +0.000 NA
ATOM     28  C   UNL     1      55.317  -0.464  16.800  0.00  0.00    +0.000 A 
ATOM     29  C   UNL     1      55.140  -1.685  17.402  0.00  0.00    +0.000 A 
ATOM     30  C   UNL     1      54.314  -1.682  18.496  0.00  0.00    +0.000 A 
ATOM     31  N   UNL     1      53.731  -0.572  18.979  0.00  0.00    +0.000 NA
ATOM     32  H   UNL     1      52.640   1.359  19.434  0.00  0.00    +0.000 HD
ENDBRANCH  24  25
ENDBRANCH  21  24
ENDBRANCH  17  18
ENDBRANCH   3  17
TORSDOF 5
ENDMDL
MODEL 6
REMARK VINA RESULT:    -7.088      3.420      5.046
REMARK INTER + INTRA:          -9.971
REMARK INTER:                  -9.252
REMARK INTRA:                  -0.719
REMARK UNBOUND:                -0.811
REMARK  Name = 
REMARK  6 active torsions:
REMARK  status: ('A' for Active; 'I' for Inactive)
REMARK    1  A    between atoms: C_1  and  C_2
REMARK    2  A    between atoms: C_7  and  C_8
REMARK    3  A    between atoms: N_10  and  C_11
REMARK    4  A    between atoms: C_11  and  C_12
REMARK    5  A    between atoms: C_15  and  C_16
REMARK    6  A    between atoms: C_16  and  N_17
REMARK                            x       y       z     vdW  Elec       q    Type
REMARK                         _______ _______ _______ _____ _____    ______ ____
ROOT
ATOM      1  C   UNL     1      47.314   8.695  12.761  0.00  0.00    +0.000 C 
ATOM      2  O   UNL     1      46.181   9.111  13.011  0.00  0.00    +0.000 OA
ATOM      3  N   UNL     1      47.694   7.415  13.082  0.00  0.00    +0.000 N 
ATOM      4  H   UNL     1      48.630   7.113  12.837  0.00  0.00    +0.000 HD
ENDROOT
BRANCH   1  11
ATOM      5  C   UNL     1      53.954  10.271  11.947  0.00  0.00    +0.000 C 
ATOM      6  C   UNL     1      52.462  10.113  11.964  0.00  0.00    +0.000 A 
ATOM      7  N   UNL     1      51.674  10.867  11.264  0.00  0.00    +0.000 NA
ATOM      8  C   UNL     1      50.345  10.586  11.395  0.00  0.00    +0.000 A 
ATOM      9  S   UNL     1      49.166  11.477  10.553  0.00  0.00    +0.000 S 
ATOM     10  C   UNL     1      47.898  10.556  11.230  0.00  0.00    +0.000 A 
ATOM     11  C   UNL     1      48.320   9.559  12.100  0.00  0.00    +0.000 A 
ATOM     12  C   UNL     1      49.772   9.601  12.174  0.00  0.00    +0.000 A 
ATOM     13  C   UNL     1      50.705   8.785  12.925  0.00  0.00    +0.000 A 
ATOM     14  O   UNL     1      50.372   7.848  13.654  0.00  0.00    +0.000 OA
ATOM     15  N   UNL     1      52.021   9.096  12.787  0.00  0.00    +0.000 N 
ATOM     16  H   UNL     1      52.671   8.532  13.304  0.00  0.00    +0.000 HD
ENDBRANCH   1  11
BRANCH   3  17
ATOM     17  C   UNL     1      46.817   6.449  13.721  0.00  0.00    +0.000 C 
BRANCH  17  18
ATOM     18  C   UNL     1      46.137   5.480  12.770  0.00  0.00    +0.000 A 
ATOM     19  C   UNL     1      46.040   4.123  13.099  0.00  0.00    +0.000 A 
ATOM     20  C   UNL     1      45.426   3.205  12.226  0.00  0.00    +0.000 A 
ATOM     21  C   UNL     1      44.878   3.617  11.001  0.00  0.00    +0.000 A 
ATOM     22  C   UNL     1      44.952   4.970  10.683  0.00  0.00    +0.000 A 
ATOM     23  C   UNL     1      45.575   5.878  11.549  0.00  0.00    +0.000 A 
BRANCH  21  24
ATOM     24  C   UNL     1      44.223   2.688  10.004  0.00  0.00    +0.000 C 
BRANCH  24  25
ATOM     25  N   UNL     1      44.356   3.204   8.663  0.00  0.00    +0.000 N 
ATOM     26  C   UNL     1      45.492   2.778   7.995  0.00  0.00    +0.000 A 
ATOM     27  N   UNL     1      46.068   1.602   8.279  0.00  0.00    +0.000 NA
ATOM     28  C   UNL     1      47.094   1.225   7.494  0.00  0.00    +0.000 A 
ATOM     29  C   UNL     1      47.584   1.992   6.466  0.00  0.00    +0.000 A 
ATOM     30  C   UNL     1      46.962   3.201   6.293  0.00  0.00    +0.000 A 
ATOM     31  N   UNL     1      45.927   3.615   7.043  0.00  0.00    +0.000 NA
ATOM     32  H   UNL     1      44.403   4.217   8.605  0.00  0.00    +0.000 HD
ENDBRANCH  24  25
ENDBRANCH  21  24
ENDBRANCH  17  18
ENDBRANCH   3  17
TORSDOF 5
ENDMDL
MODEL 7
REMARK VINA RESULT:    -7.002      3.279      3.945
REMARK INTER + INTRA:          -9.860
REMARK INTER:                  -9.174
REMARK INTRA:                  -0.686
REMARK UNBOUND:                -0.811
REMARK  Name = 
REMARK  6 active torsions:
REMARK  status: ('A' for Active; 'I' for Inactive)
REMARK    1  A    between atoms: C_1  and  C_2
REMARK    2  A    between atoms: C_7  and  C_8
REMARK    3  A    between atoms: N_10  and  C_11
REMARK    4  A    between atoms: C_11  and  C_12
REMARK    5  A    between atoms: C_15  and  C_16
REMARK    6  A    between atoms: C_16  and  N_17
REMARK                            x       y       z     vdW  Elec       q    Type
REMARK                         _______ _______ _______ _____ _____    ______ ____
ROOT
ATOM      1  C   UNL     1      47.612   8.948  13.089  0.00  0.00    +0.000 C 
ATOM      2  O   UNL     1      47.500   9.657  12.087  0.00  0.00    +0.000 OA
ATOM      3  N   UNL     1      46.571   8.176  13.541  0.00  0.00    +0.000 N 
ATOM      4  H   UNL     1      46.720   7.595  14.358  0.00  0.00    +0.000 HD
ENDROOT
BRANCH   1  11
ATOM      5  C   UNL     1      54.388   7.801  12.989  0.00  0.00    +0.000 C 
ATOM      6  C   UNL     1      52.941   8.096  13.255  0.00  0.00    +0.000 A 
ATOM      7  N   UNL     1      52.498   8.406  14.432  0.00  0.00    +0.000 NA
ATOM      8  C   UNL     1      51.156   8.644  14.496  0.00  0.00    +0.000 A 
ATOM      9  S   UNL     1      50.401   9.060  15.963  0.00  0.00    +0.000 S 
ATOM     10  C   UNL     1      48.869   9.167  15.215  0.00  0.00    +0.000 A 
ATOM     11  C   UNL     1      48.881   8.897  13.853  0.00  0.00    +0.000 A 
ATOM     12  C   UNL     1      50.248   8.594  13.457  0.00  0.00    +0.000 A 
ATOM     13  C   UNL     1      50.805   8.251  12.164  0.00  0.00    +0.000 A 
ATOM     14  O   UNL     1      50.146   8.182  11.124  0.00  0.00    +0.000 OA
ATOM     15  N   UNL     1      52.142   8.005  12.133  0.00  0.00    +0.000 N 
ATOM     16  H   UNL     1      52.532   7.769  11.238  0.00  0.00    +0.000 HD
ENDBRANCH   1  11
BRANCH   3  17
ATOM     17  C   UNL     1      45.272   8.113  12.893  0.00  0.00    +0.000 C 
BRANCH  17  18
ATOM     18  C   UNL     1      45.026   6.853  12.082  0.00  0.00    +0.000 A 
ATOM     19  C   UNL     1      43.962   6.004  12.408  0.00  0.00    +0.000 A 
ATOM     20  C   UNL     1      43.724   4.823  11.678  0.00  0.00    +0.000 A 
ATOM     21  C   UNL     1      44.535   4.460  10.592  0.00  0.00    +0.000 A 
ATOM     22  C   UNL     1      45.580   5.315  10.252  0.00  0.00    +0.000 A 
ATOM     23  C   UNL     1      45.821   6.482  10.988  0.00  0.00    +0.000 A 
BRANCH  21  24
ATOM     24  C   UNL     1      44.355   3.200   9.777  0.00  0.00    +0.000 C 
BRANCH  24  25
ATOM     25  N   UNL     1      44.489   3.481   8.368  0.00  0.00    +0.000 N 
ATOM     26  C   UNL     1      45.592   2.894   7.769  0.00  0.00    +0.000 A 
ATOM     27  N   UNL     1      46.116   1.754   8.239  0.00  0.00    +0.000 NA
ATOM     28  C   UNL     1      47.109   1.201   7.518  0.00  0.00    +0.000 A 
ATOM     29  C   UNL     1      47.618   1.763   6.373  0.00  0.00    +0.000 A 
ATOM     30  C   UNL     1      47.052   2.956   6.007  0.00  0.00    +0.000 A 
ATOM     31  N   UNL     1      46.051   3.540   6.688  0.00  0.00    +0.000 NA
ATOM     32  H   UNL     1      44.584   4.466   8.142  0.00  0.00    +0.000 HD
ENDBRANCH  24  25
ENDBRANCH  21  24
ENDBRANCH  17  18
ENDBRANCH   3  17
TORSDOF 5
ENDMDL
MODEL 8
REMARK VINA RESULT:    -6.909      2.134      3.376
REMARK INTER + INTRA:          -9.739
REMARK INTER:                  -9.364
REMARK INTRA:                  -0.375
REMARK UNBOUND:                -0.811
REMARK  Name = 
REMARK  6 active torsions:
REMARK  status: ('A' for Active; 'I' for Inactive)
REMARK    1  A    between atoms: C_1  and  C_2
REMARK    2  A    between atoms: C_7  and  C_8
REMARK    3  A    between atoms: N_10  and  C_11
REMARK    4  A    between atoms: C_11  and  C_12
REMARK    5  A    between atoms: C_15  and  C_16
REMARK    6  A    between atoms: C_16  and  N_17
REMARK                            x       y       z     vdW  Elec       q    Type
REMARK                         _______ _______ _______ _____ _____    ______ ____
ROOT
ATOM      1  C   UNL     1      48.629   7.726  14.586  0.00  0.00    +0.000 C 
ATOM      2  O   UNL     1      48.809   8.855  14.127  0.00  0.00    +0.000 OA
ATOM      3  N   UNL     1      47.525   6.983  14.249  0.00  0.00    +0.000 N 
ATOM      4  H   UNL     1      47.433   6.051  14.636  0.00  0.00    +0.000 HD
ENDROOT
BRANCH   1  11
ATOM      5  C   UNL     1      55.222   6.624  16.187  0.00  0.00    +0.000 C 
ATOM      6  C   UNL     1      53.732   6.731  16.043  0.00  0.00    +0.000 A 
ATOM      7  N   UNL     1      52.910   6.193  16.887  0.00  0.00    +0.000 NA
ATOM      8  C   UNL     1      51.589   6.390  16.607  0.00  0.00    +0.000 A 
ATOM      9  S   UNL     1      50.369   5.750  17.606  0.00  0.00    +0.000 S 
ATOM     10  C   UNL     1      49.136   6.403  16.621  0.00  0.00    +0.000 A 
ATOM     11  C   UNL     1      49.601   7.115  15.524  0.00  0.00    +0.000 A 
ATOM     12  C   UNL     1      51.056   7.092  15.545  0.00  0.00    +0.000 A 
ATOM     13  C   UNL     1      52.024   7.679  14.642  0.00  0.00    +0.000 A 
ATOM     14  O   UNL     1      51.728   8.355  13.655  0.00  0.00    +0.000 OA
ATOM     15  N   UNL     1      53.333   7.455  14.937  0.00  0.00    +0.000 N 
ATOM     16  H   UNL     1      54.008   7.861  14.315  0.00  0.00    +0.000 HD
ENDBRANCH   1  11
BRANCH   3  17
ATOM     17  C   UNL     1      46.493   7.441  13.334  0.00  0.00    +0.000 C 
BRANCH  17  18
ATOM     18  C   UNL     1      45.896   6.357  12.454  0.00  0.00    +0.000 A 
ATOM     19  C   UNL     1      45.265   6.696  11.251  0.00  0.00    +0.000 A 
ATOM     20  C   UNL     1      44.693   5.708  10.427  0.00  0.00    +0.000 A 
ATOM     21  C   UNL     1      44.744   4.349  10.772  0.00  0.00    +0.000 A 
ATOM     22  C   UNL     1      45.393   4.007  11.957  0.00  0.00    +0.000 A 
ATOM     23  C   UNL     1      45.949   4.994  12.780  0.00  0.00    +0.000 A 
BRANCH  21  24
ATOM     24  C   UNL     1      44.136   3.236   9.950  0.00  0.00    +0.000 C 
BRANCH  24  25
ATOM     25  N   UNL     1      45.057   2.133   9.823  0.00  0.00    +0.000 N 
ATOM     26  C   UNL     1      45.794   2.135   8.650  0.00  0.00    +0.000 A 
ATOM     27  N   UNL     1      46.081   3.276   8.008  0.00  0.00    +0.000 NA
ATOM     28  C   UNL     1      46.901   3.184   6.945  0.00  0.00    +0.000 A 
ATOM     29  C   UNL     1      47.411   1.996   6.482  0.00  0.00    +0.000 A 
ATOM     30  C   UNL     1      47.014   0.882   7.174  0.00  0.00    +0.000 A 
ATOM     31  N   UNL     1      46.207   0.926   8.247  0.00  0.00    +0.000 NA
ATOM     32  H   UNL     1      44.622   1.217   9.837  0.00  0.00    +0.000 HD
ENDBRANCH  24  25
ENDBRANCH  21  24
ENDBRANCH  17  18
ENDBRANCH   3  17
TORSDOF 5
ENDMDL
MODEL 9
REMARK VINA RESULT:    -6.904      4.156      9.340
REMARK INTER + INTRA:          -9.734
REMARK INTER:                  -9.475
REMARK INTRA:                  -0.259
REMARK UNBOUND:                -0.811
REMARK  Name = 
REMARK  6 active torsions:
REMARK  status: ('A' for Active; 'I' for Inactive)
REMARK    1  A    between atoms: C_1  and  C_2
REMARK    2  A    between atoms: C_7  and  C_8
REMARK    3  A    between atoms: N_10  and  C_11
REMARK    4  A    between atoms: C_11  and  C_12
REMARK    5  A    between atoms: C_15  and  C_16
REMARK    6  A    between atoms: C_16  and  N_17
REMARK                            x       y       z     vdW  Elec       q    Type
REMARK                         _______ _______ _______ _____ _____    ______ ____
ROOT
ATOM      1  C   UNL     1      47.216   4.466  14.951  0.00  0.00    +0.000 C 
ATOM      2  O   UNL     1      47.272   3.235  14.969  0.00  0.00    +0.000 OA
ATOM      3  N   UNL     1      47.446   5.211  16.081  0.00  0.00    +0.000 N 
ATOM      4  H   UNL     1      47.409   6.221  16.010  0.00  0.00    +0.000 HD
ENDROOT
BRANCH   1  11
ATOM      5  C   UNL     1      44.249   4.339   8.753  0.00  0.00    +0.000 C 
ATOM      6  C   UNL     1      44.958   4.602  10.048  0.00  0.00    +0.000 A 
ATOM      7  N   UNL     1      45.515   5.740  10.319  0.00  0.00    +0.000 NA
ATOM      8  C   UNL     1      46.115   5.809  11.542  0.00  0.00    +0.000 A 
ATOM      9  S   UNL     1      46.899   7.226  12.064  0.00  0.00    +0.000 S 
ATOM     10  C   UNL     1      47.330   6.513  13.555  0.00  0.00    +0.000 A 
ATOM     11  C   UNL     1      46.899   5.201  13.703  0.00  0.00    +0.000 A 
ATOM     12  C   UNL     1      46.181   4.815  12.498  0.00  0.00    +0.000 A 
ATOM     13  C   UNL     1      45.532   3.569  12.142  0.00  0.00    +0.000 A 
ATOM     14  O   UNL     1      45.474   2.584  12.880  0.00  0.00    +0.000 OA
ATOM     15  N   UNL     1      44.955   3.524  10.911  0.00  0.00    +0.000 N 
ATOM     16  H   UNL     1      44.503   2.664  10.660  0.00  0.00    +0.000 HD
ENDBRANCH   1  11
BRANCH   3  17
ATOM     17  C   UNL     1      47.778   4.635  17.373  0.00  0.00    +0.000 C 
BRANCH  17  18
ATOM     18  C   UNL     1      49.213   4.155  17.505  0.00  0.00    +0.000 A 
ATOM     19  C   UNL     1      49.513   2.794  17.384  0.00  0.00    +0.000 A 
ATOM     20  C   UNL     1      50.834   2.325  17.516  0.00  0.00    +0.000 A 
ATOM     21  C   UNL     1      51.900   3.205  17.763  0.00  0.00    +0.000 A 
ATOM     22  C   UNL     1      51.606   4.563  17.860  0.00  0.00    +0.000 A 
ATOM     23  C   UNL     1      50.289   5.023  17.740  0.00  0.00    +0.000 A 
BRANCH  21  24
ATOM     24  C   UNL     1      53.338   2.775  17.938  0.00  0.00    +0.000 C 
BRANCH  24  25
ATOM     25  N   UNL     1      53.429   1.662  18.852  0.00  0.00    +0.000 N 
ATOM     26  C   UNL     1      53.996   0.521  18.310  0.00  0.00    +0.000 A 
ATOM     27  N   UNL     1      54.884   0.591  17.309  0.00  0.00    +0.000 NA
ATOM     28  C   UNL     1      55.467  -0.563  16.933  0.00  0.00    +0.000 A 
ATOM     29  C   UNL     1      55.167  -1.780  17.493  0.00  0.00    +0.000 A 
ATOM     30  C   UNL     1      54.207  -1.753  18.470  0.00  0.00    +0.000 A 
ATOM     31  N   UNL     1      53.607  -0.625  18.886  0.00  0.00    +0.000 NA
ATOM     32  H   UNL     1      52.538   1.343  19.217  0.00  0.00    +0.000 HD
ENDBRANCH  24  25
ENDBRANCH  21  24
ENDBRANCH  17  18
ENDBRANCH   3  17
TORSDOF 5
ENDMDL
