MODEL 1
REMARK VINA RESULT:    -8.459      0.000      0.000
REMARK INTER + INTRA:         -14.014
REMARK INTER:                 -12.415
REMARK INTRA:                  -1.599
REMARK UNBOUND:                -1.599
REMARK  Name = 
REMARK  9 active torsions:
REMARK  status: ('A' for Active; 'I' for Inactive)
REMARK    1  A    between atoms: C_1  and  O_2
REMARK    2  A    between atoms: O_2  and  C_3
REMARK    3  A    between atoms: C_10  and  C_11
REMARK    4  A    between atoms: N_13  and  C_14
REMARK    5  A    between atoms: C_14  and  C_15
REMARK    6  A    between atoms: C_18  and  C_19
REMARK    7  A    between atoms: C_19  and  N_20
REMARK    8  A    between atoms: N_20  and  C_21
REMARK    9  A    between atoms: C_21  and  C_22
REMARK                            x       y       z     vdW  Elec       q    Type
REMARK                         _______ _______ _______ _____ _____    ______ ____
ROOT
ATOM      1  C   UNL     1      47.136   7.961  13.217  0.00  0.00    +0.000 C 
ENDROOT
BRANCH   1   2
ATOM      2  C   UNL     1      46.197   7.096  12.415  0.00  0.00    +0.000 A 
ATOM      3  C   UNL     1      44.942   6.742  12.926  0.00  0.00    +0.000 A 
ATOM      4  C   UNL     1      44.085   5.910  12.198  0.00  0.00    +0.000 A 
ATOM      5  C   UNL     1      44.464   5.407  10.944  0.00  0.00    +0.000 A 
ATOM      6  C   UNL     1      45.726   5.750  10.441  0.00  0.00    +0.000 A 
ATOM      7  C   UNL     1      46.584   6.581  11.170  0.00  0.00    +0.000 A 
BRANCH   5   8
ATOM      8  C   UNL     1      43.530   4.508  10.163  0.00  0.00    +0.000 C 
BRANCH   8   9
ATOM      9  N   UNL     1      44.154   4.066   8.918  0.00  0.00    +0.000 NA
ATOM     10  H   UNL     1      44.952   4.668   8.718  0.00  0.00    +0.000 HD
BRANCH   9  11
ATOM     11  C   UNL     1      44.605   2.678   8.990  0.00  0.00    +0.000 C 
BRANCH  11  12
ATOM     12  C   UNL     1      45.758   2.447   8.050  0.00  0.00    +0.000 A 
ATOM     13  C   UNL     1      46.242   3.467   7.223  0.00  0.00    +0.000 A 
ATOM     14  C   UNL     1      47.332   3.229   6.392  0.00  0.00    +0.000 A 
ATOM     15  C   UNL     1      47.903   1.968   6.406  0.00  0.00    +0.000 A 
ATOM     16  N   UNL     1      47.455   0.949   7.173  0.00  0.00    +0.000 NA
ATOM     17  C   UNL     1      46.396   1.213   7.974  0.00  0.00    +0.000 A 
ENDBRANCH  11  12
ENDBRANCH   9  11
ENDBRANCH   8   9
ENDBRANCH   5   8
ENDBRANCH   1   2
BRANCH   1  20
ATOM     18  C   UNL     1      48.780   6.859  14.689  0.00  0.00    +0.000 C 
ATOM     19  O   UNL     1      49.677   7.004  13.862  0.00  0.00    +0.000 OA
ATOM     20  N   UNL     1      47.511   7.306  14.447  0.00  0.00    +0.000 N 
ATOM     21  H   UNL     1      46.786   7.169  15.136  0.00  0.00    +0.000 HD
BRANCH  18  29
ATOM     22  C   UNL     1      47.277   4.212  16.300  0.00  0.00    +0.000 A 
ATOM     23  N   UNL     1      46.925   3.187  17.101  0.00  0.00    +0.000 NA
ATOM     24  C   UNL     1      47.629   2.995  18.219  0.00  0.00    +0.000 A 
ATOM     25  N   UNL     1      48.653   3.722  18.656  0.00  0.00    +0.000 NA
ATOM     26  C   UNL     1      48.978   4.726  17.823  0.00  0.00    +0.000 A 
ATOM     27  S   UNL     1      50.257   5.767  18.225  0.00  0.00    +0.000 S 
ATOM     28  C   UNL     1      50.053   6.653  16.787  0.00  0.00    +0.000 A 
ATOM     29  C   UNL     1      49.026   6.182  15.977  0.00  0.00    +0.000 A 
ATOM     30  C   UNL     1      48.367   5.044  16.613  0.00  0.00    +0.000 A 
BRANCH  22  32
ATOM     31  C   UNL     1      47.086   3.668  14.030  0.00  0.00    +0.000 C 
ATOM     32  O   UNL     1      46.564   4.401  15.137  0.00  0.00    +0.000 OA
ENDBRANCH  22  32
ENDBRANCH  18  29
ENDBRANCH   1  20
TORSDOF 8
ENDMDL
MODEL 2
REMARK VINA RESULT:    -8.012      1.492      1.859
REMARK INTER + INTRA:         -13.359
REMARK INTER:                 -12.013
REMARK INTRA:                  -1.345
REMARK UNBOUND:                -1.599
REMARK  Name = 
REMARK  9 active torsions:
REMARK  status: ('A' for Active; 'I' for Inactive)
REMARK    1  A    between atoms: C_1  and  O_2
REMARK    2  A    between atoms: O_2  and  C_3
REMARK    3  A    between atoms: C_10  and  C_11
REMARK    4  A    between atoms: N_13  and  C_14
REMARK    5  A    between atoms: C_14  and  C_15
REMARK    6  A    between atoms: C_18  and  C_19
REMARK    7  A    between atoms: C_19  and  N_20
REMARK    8  A    between atoms: N_20  and  C_21
REMARK    9  A    between atoms: C_21  and  C_22
REMARK                            x       y       z     vdW  Elec       q    Type
REMARK                         _______ _______ _______ _____ _____    ______ ____
ROOT
ATOM      1  C   UNL     1      48.074   6.761  13.158  0.00  0.00    +0.000 C 
ENDROOT
BRANCH   1   2
ATOM      2  C   UNL     1      46.996   5.874  12.587  0.00  0.00    +0.000 A 
ATOM      3  C   UNL     1      46.370   6.202  11.377  0.00  0.00    +0.000 A 
ATOM      4  C   UNL     1      45.346   5.398  10.865  0.00  0.00    +0.000 A 
ATOM      5  C   UNL     1      44.918   4.253  11.552  0.00  0.00    +0.000 A 
ATOM      6  C   UNL     1      45.535   3.935  12.770  0.00  0.00    +0.000 A 
ATOM      7  C   UNL     1      46.559   4.739  13.283  0.00  0.00    +0.000 A 
BRANCH   5   8
ATOM      8  C   UNL     1      43.809   3.389  10.990  0.00  0.00    +0.000 C 
BRANCH   8   9
ATOM      9  N   UNL     1      43.976   3.198   9.551  0.00  0.00    +0.000 NA
ATOM     10  H   UNL     1      44.514   3.979   9.176  0.00  0.00    +0.000 HD
BRANCH   9  11
ATOM     11  C   UNL     1      44.663   1.947   9.238  0.00  0.00    +0.000 C 
BRANCH  11  12
ATOM     12  C   UNL     1      45.785   2.189   8.264  0.00  0.00    +0.000 A 
ATOM     13  C   UNL     1      46.011   3.454   7.711  0.00  0.00    +0.000 A 
ATOM     14  C   UNL     1      47.080   3.651   6.842  0.00  0.00    +0.000 A 
ATOM     15  C   UNL     1      47.889   2.569   6.542  0.00  0.00    +0.000 A 
ATOM     16  N   UNL     1      47.694   1.327   7.038  0.00  0.00    +0.000 NA
ATOM     17  C   UNL     1      46.650   1.167   7.884  0.00  0.00    +0.000 A 
ENDBRANCH  11  12
ENDBRANCH   9  11
ENDBRANCH   8   9
ENDBRANCH   5   8
ENDBRANCH   1   2
BRANCH   1  20
ATOM     18  C   UNL     1      49.059   6.878  15.417  0.00  0.00    +0.000 C 
ATOM     19  O   UNL     1      50.200   6.863  14.963  0.00  0.00    +0.000 OA
ATOM     20  N   UNL     1      47.967   6.835  14.595  0.00  0.00    +0.000 N 
ATOM     21  H   UNL     1      47.037   6.840  14.988  0.00  0.00    +0.000 HD
BRANCH  18  29
ATOM     22  C   UNL     1      48.849   4.467  17.866  0.00  0.00    +0.000 A 
ATOM     23  N   UNL     1      48.783   3.751  19.006  0.00  0.00    +0.000 NA
ATOM     24  C   UNL     1      48.596   4.412  20.152  0.00  0.00    +0.000 A 
ATOM     25  N   UNL     1      48.448   5.725  20.304  0.00  0.00    +0.000 NA
ATOM     26  C   UNL     1      48.531   6.401  19.145  0.00  0.00    +0.000 A 
ATOM     27  S   UNL     1      48.356   8.090  19.146  0.00  0.00    +0.000 S 
ATOM     28  C   UNL     1      48.592   8.164  17.464  0.00  0.00    +0.000 A 
ATOM     29  C   UNL     1      48.812   6.927  16.870  0.00  0.00    +0.000 A 
ATOM     30  C   UNL     1      48.749   5.870  17.877  0.00  0.00    +0.000 A 
BRANCH  22  32
ATOM     31  C   UNL     1      47.940   3.003  16.281  0.00  0.00    +0.000 C 
ATOM     32  O   UNL     1      49.059   3.788  16.686  0.00  0.00    +0.000 OA
ENDBRANCH  22  32
ENDBRANCH  18  29
ENDBRANCH   1  20
TORSDOF 8
ENDMDL
MODEL 3
REMARK VINA RESULT:    -7.744      1.625      2.178
REMARK INTER + INTRA:         -12.965
REMARK INTER:                 -11.506
REMARK INTRA:                  -1.458
REMARK UNBOUND:                -1.599
REMARK  Name = 
REMARK  9 active torsions:
REMARK  status: ('A' for Active; 'I' for Inactive)
REMARK    1  A    between atoms: C_1  and  O_2
REMARK    2  A    between atoms: O_2  and  C_3
REMARK    3  A    between atoms: C_10  and  C_11
REMARK    4  A    between atoms: N_13  and  C_14
REMARK    5  A    between atoms: C_14  and  C_15
REMARK    6  A    between atoms: C_18  and  C_19
REMARK    7  A    between atoms: C_19  and  N_20
REMARK    8  A    between atoms: N_20  and  C_21
REMARK    9  A    between atoms: C_21  and  C_22
REMARK                            x       y       z     vdW  Elec       q    Type
REMARK                         _______ _______ _______ _____ _____    ______ ____
ROOT
ATOM      1  C   UNL     1      45.817   8.342  12.554  0.00  0.00    +0.000 C 
ENDROOT
BRANCH   1   2
ATOM      2  C   UNL     1      45.333   6.985  12.107  0.00  0.00    +0.000 A 
ATOM      3  C   UNL     1      45.727   6.461  10.870  0.00  0.00    +0.000 A 
ATOM      4  C   UNL     1      45.251   5.218  10.439  0.00  0.00    +0.000 A 
ATOM      5  C   UNL     1      44.365   4.472  11.231  0.00  0.00    +0.000 A 
ATOM      6  C   UNL     1      43.960   5.006  12.463  0.00  0.00    +0.000 A 
ATOM      7  C   UNL     1      44.435   6.250  12.893  0.00  0.00    +0.000 A 
BRANCH   5   8
ATOM      8  C   UNL     1      43.854   3.129  10.758  0.00  0.00    +0.000 C 
BRANCH   8   9
ATOM      9  N   UNL     1      44.134   2.936   9.337  0.00  0.00    +0.000 NA
ATOM     10  H   UNL     1      44.625   3.758   8.984  0.00  0.00    +0.000 HD
BRANCH   9  11
ATOM     11  C   UNL     1      44.947   1.748   9.091  0.00  0.00    +0.000 C 
BRANCH  11  12
ATOM     12  C   UNL     1      45.946   2.008   7.995  0.00  0.00    +0.000 A 
ATOM     13  C   UNL     1      45.986   3.232   7.318  0.00  0.00    +0.000 A 
ATOM     14  C   UNL     1      46.946   3.452   6.336  0.00  0.00    +0.000 A 
ATOM     15  C   UNL     1      47.837   2.431   6.051  0.00  0.00    +0.000 A 
ATOM     16  N   UNL     1      47.821   1.228   6.665  0.00  0.00    +0.000 NA
ATOM     17  C   UNL     1      46.879   1.046   7.620  0.00  0.00    +0.000 A 
ENDBRANCH  11  12
ENDBRANCH   9  11
ENDBRANCH   8   9
ENDBRANCH   5   8
ENDBRANCH   1   2
BRANCH   1  20
ATOM     18  C   UNL     1      47.849   8.809  13.874  0.00  0.00    +0.000 C 
ATOM     19  O   UNL     1      48.339   9.467  12.960  0.00  0.00    +0.000 OA
ATOM     20  N   UNL     1      46.616   8.231  13.751  0.00  0.00    +0.000 N 
ATOM     21  H   UNL     1      46.235   7.686  14.511  0.00  0.00    +0.000 HD
BRANCH  18  29
ATOM     22  C   UNL     1      48.616   6.010  15.726  0.00  0.00    +0.000 A 
ATOM     23  N   UNL     1      49.096   5.095  16.592  0.00  0.00    +0.000 NA
ATOM     24  C   UNL     1      49.825   5.530  17.624  0.00  0.00    +0.000 A 
ATOM     25  N   UNL     1      50.128   6.792  17.914  0.00  0.00    +0.000 NA
ATOM     26  C   UNL     1      49.640   7.669  17.020  0.00  0.00    +0.000 A 
ATOM     27  S   UNL     1      49.921   9.330  17.237  0.00  0.00    +0.000 S 
ATOM     28  C   UNL     1      49.077   9.708  15.809  0.00  0.00    +0.000 A 
ATOM     29  C   UNL     1      48.574   8.598  15.141  0.00  0.00    +0.000 A 
ATOM     30  C   UNL     1      48.890   7.380  15.884  0.00  0.00    +0.000 A 
BRANCH  22  32
ATOM     31  C   UNL     1      47.133   4.380  14.935  0.00  0.00    +0.000 C 
ATOM     32  O   UNL     1      47.880   5.561  14.652  0.00  0.00    +0.000 OA
ENDBRANCH  22  32
ENDBRANCH  18  29
ENDBRANCH   1  20
TORSDOF 8
ENDMDL
MODEL 4
REMARK VINA RESULT:    -7.528      2.105      3.396
REMARK INTER + INTRA:         -12.649
REMARK INTER:                 -11.537
REMARK INTRA:                  -1.112
REMARK UNBOUND:                -1.599
REMARK  Name = 
REMARK  9 active torsions:
REMARK  status: ('A' for Active; 'I' for Inactive)
REMARK    1  A    between atoms: C_1  and  O_2
REMARK    2  A    between atoms: O_2  and  C_3
REMARK    3  A    between atoms: C_10  and  C_11
REMARK    4  A    between atoms: N_13  and  C_14
REMARK    5  A    between atoms: C_14  and  C_15
REMARK    6  A    between atoms: C_18  and  C_19
REMARK    7  A    between atoms: C_19  and  N_20
REMARK    8  A    between atoms: N_20  and  C_21
REMARK    9  A    between atoms: C_21  and  C_22
REMARK                            x       y       z     vdW  Elec       q    Type
REMARK                         _______ _______ _______ _____ _____    ______ ____
ROOT
ATOM      1  C   UNL     1      47.511   3.252  14.919  0.00  0.00    +0.000 C 
ENDROOT
BRANCH   1   2
ATOM      2  C   UNL     1      46.842   3.923  13.745  0.00  0.00    +0.000 A 
ATOM      3  C   UNL     1      47.082   5.274  13.466  0.00  0.00    +0.000 A 
ATOM      4  C   UNL     1      46.436   5.906  12.398  0.00  0.00    +0.000 A 
ATOM      5  C   UNL     1      45.528   5.206  11.589  0.00  0.00    +0.000 A 
ATOM      6  C   UNL     1      45.277   3.858  11.880  0.00  0.00    +0.000 A 
ATOM      7  C   UNL     1      45.923   3.225  12.949  0.00  0.00    +0.000 A 
BRANCH   5   8
ATOM      8  C   UNL     1      44.833   5.897  10.437  0.00  0.00    +0.000 C 
BRANCH   8   9
ATOM      9  N   UNL     1      45.329   5.400   9.156  0.00  0.00    +0.000 NA
ATOM     10  H   UNL     1      46.315   5.160   9.256  0.00  0.00    +0.000 HD
BRANCH   9  11
ATOM     11  C   UNL     1      44.592   4.225   8.698  0.00  0.00    +0.000 C 
BRANCH  11  12
ATOM     12  C   UNL     1      45.535   3.196   8.132  0.00  0.00    +0.000 A 
ATOM     13  C   UNL     1      46.446   3.519   7.122  0.00  0.00    +0.000 A 
ATOM     14  C   UNL     1      47.328   2.553   6.647  0.00  0.00    +0.000 A 
ATOM     15  C   UNL     1      47.264   1.283   7.194  0.00  0.00    +0.000 A 
ATOM     16  N   UNL     1      46.387   0.924   8.157  0.00  0.00    +0.000 NA
ATOM     17  C   UNL     1      45.545   1.886   8.601  0.00  0.00    +0.000 A 
ENDBRANCH  11  12
ENDBRANCH   9  11
ENDBRANCH   8   9
ENDBRANCH   5   8
ENDBRANCH   1   2
BRANCH   1  20
ATOM     18  C   UNL     1      47.433   4.153  17.214  0.00  0.00    +0.000 C 
ATOM     19  O   UNL     1      46.699   3.243  17.589  0.00  0.00    +0.000 OA
ATOM     20  N   UNL     1      47.876   4.222  15.923  0.00  0.00    +0.000 N 
ATOM     21  H   UNL     1      48.473   4.984  15.632  0.00  0.00    +0.000 HD
BRANCH  18  29
ATOM     22  C   UNL     1      50.479   5.600  17.914  0.00  0.00    +0.000 A 
ATOM     23  N   UNL     1      51.509   6.366  18.325  0.00  0.00    +0.000 NA
ATOM     24  C   UNL     1      51.257   7.330  19.215  0.00  0.00    +0.000 A 
ATOM     25  N   UNL     1      50.085   7.621  19.770  0.00  0.00    +0.000 NA
ATOM     26  C   UNL     1      49.084   6.841  19.325  0.00  0.00    +0.000 A 
ATOM     27  S   UNL     1      47.515   7.064  19.934  0.00  0.00    +0.000 S 
ATOM     28  C   UNL     1      46.902   5.824  18.944  0.00  0.00    +0.000 A 
ATOM     29  C   UNL     1      47.861   5.223  18.136  0.00  0.00    +0.000 A 
ATOM     30  C   UNL     1      49.172   5.818  18.386  0.00  0.00    +0.000 A 
BRANCH  22  32
ATOM     31  C   UNL     1      51.064   3.359  17.568  0.00  0.00    +0.000 C 
ATOM     32  O   UNL     1      50.733   4.617  16.983  0.00  0.00    +0.000 OA
ENDBRANCH  22  32
ENDBRANCH  18  29
ENDBRANCH   1  20
TORSDOF 8
ENDMDL
MODEL 5
REMARK VINA RESULT:    -7.270      2.174      2.845
REMARK INTER + INTRA:         -12.270
REMARK INTER:                 -11.250
REMARK INTRA:                  -1.020
REMARK UNBOUND:                -1.599
REMARK  Name = 
REMARK  9 active torsions:
REMARK  status: ('A' for Active; 'I' for Inactive)
REMARK    1  A    between atoms: C_1  and  O_2
REMARK    2  A    between atoms: O_2  and  C_3
REMARK    3  A    between atoms: C_10  and  C_11
REMARK    4  A    between atoms: N_13  and  C_14
REMARK    5  A    between atoms: C_14  and  C_15
REMARK    6  A    between atoms: C_18  and  C_19
REMARK    7  A    between atoms: C_19  and  N_20
REMARK    8  A    between atoms: N_20  and  C_21
REMARK    9  A    between atoms: C_21  and  C_22
REMARK                            x       y       z     vdW  Elec       q    Type
REMARK                         _______ _______ _______ _____ _____    ______ ____
ROOT
ATOM      1  C   UNL     1      47.964   7.095  13.722  0.00  0.00    +0.000 C 
ENDROOT
BRANCH   1   2
ATOM      2  C   UNL     1      46.837   6.503  12.914  0.00  0.00    +0.000 A 
ATOM      3  C   UNL     1      46.376   7.143  11.757  0.00  0.00    +0.000 A 
ATOM      4  C   UNL     1      45.308   6.612  11.026  0.00  0.00    +0.000 A 
ATOM      5  C   UNL     1      44.669   5.433  11.438  0.00  0.00    +0.000 A 
ATOM      6  C   UNL     1      45.121   4.802  12.605  0.00  0.00    +0.000 A 
ATOM      7  C   UNL     1      46.190   5.333  13.337  0.00  0.00    +0.000 A 
BRANCH   5   8
ATOM      8  C   UNL     1      43.514   4.866  10.642  0.00  0.00    +0.000 C 
BRANCH   8   9
ATOM      9  N   UNL     1      43.978   4.316   9.371  0.00  0.00    +0.000 NA
ATOM     10  H   UNL     1      44.754   4.884   9.030  0.00  0.00    +0.000 HD
BRANCH   9  11
ATOM     11  C   UNL     1      44.417   2.928   9.498  0.00  0.00    +0.000 C 
BRANCH  11  12
ATOM     12  C   UNL     1      45.478   2.614   8.476  0.00  0.00    +0.000 A 
ATOM     13  C   UNL     1      45.982   3.599   7.621  0.00  0.00    +0.000 A 
ATOM     14  C   UNL     1      46.988   3.281   6.713  0.00  0.00    +0.000 A 
ATOM     15  C   UNL     1      47.454   1.978   6.681  0.00  0.00    +0.000 A 
ATOM     16  N   UNL     1      46.981   0.992   7.475  0.00  0.00    +0.000 NA
ATOM     17  C   UNL     1      46.007   1.333   8.351  0.00  0.00    +0.000 A 
ENDBRANCH  11  12
ENDBRANCH   9  11
ENDBRANCH   8   9
ENDBRANCH   5   8
ENDBRANCH   1   2
BRANCH   1  20
ATOM     18  C   UNL     1      48.993   6.440  15.866  0.00  0.00    +0.000 C 
ATOM     19  O   UNL     1      50.125   6.597  15.416  0.00  0.00    +0.000 OA
ATOM     20  N   UNL     1      47.885   6.669  15.098  0.00  0.00    +0.000 N 
ATOM     21  H   UNL     1      46.964   6.526  15.485  0.00  0.00    +0.000 HD
BRANCH  18  29
ATOM     22  C   UNL     1      48.074   8.043  18.772  0.00  0.00    +0.000 A 
ATOM     23  N   UNL     1      47.675   8.399  20.009  0.00  0.00    +0.000 NA
ATOM     24  C   UNL     1      47.586   7.443  20.938  0.00  0.00    +0.000 A 
ATOM     25  N   UNL     1      47.865   6.152  20.789  0.00  0.00    +0.000 NA
ATOM     26  C   UNL     1      48.249   5.839  19.539  0.00  0.00    +0.000 A 
ATOM     27  S   UNL     1      48.657   4.233  19.166  0.00  0.00    +0.000 S 
ATOM     28  C   UNL     1      48.974   4.639  17.545  0.00  0.00    +0.000 A 
ATOM     29  C   UNL     1      48.776   5.983  17.252  0.00  0.00    +0.000 A 
ATOM     30  C   UNL     1      48.366   6.704  18.455  0.00  0.00    +0.000 A 
BRANCH  22  32
ATOM     31  C   UNL     1      47.588  10.266  18.224  0.00  0.00    +0.000 C 
ATOM     32  O   UNL     1      48.149   9.023  17.808  0.00  0.00    +0.000 OA
ENDBRANCH  22  32
ENDBRANCH  18  29
ENDBRANCH   1  20
TORSDOF 8
ENDMDL
MODEL 6
REMARK VINA RESULT:    -7.173      2.455      3.134
REMARK INTER + INTRA:         -12.128
REMARK INTER:                 -10.824
REMARK INTRA:                  -1.304
REMARK UNBOUND:                -1.599
REMARK  Name = 
REMARK  9 active torsions:
REMARK  status: ('A' for Active; 'I' for Inactive)
REMARK    1  A    between atoms: C_1  and  O_2
REMARK    2  A    between atoms: O_2  and  C_3
REMARK    3  A    between atoms: C_10  and  C_11
REMARK    4  A    between atoms: N_13  and  C_14
REMARK    5  A    between atoms: C_14  and  C_15
REMARK    6  A    between atoms: C_18  and  C_19
REMARK    7  A    between atoms: C_19  and  N_20
REMARK    8  A    between atoms: N_20  and  C_21
REMARK    9  A    between atoms: C_21  and  C_22
REMARK                            x       y       z     vdW  Elec       q    Type
REMARK                         _______ _______ _______ _____ _____    ______ ____
ROOT
ATOM      1  C   UNL     1      47.649   4.324  15.026  0.00  0.00    +0.000 C 
ENDROOT
BRANCH   1   2
ATOM      2  C   UNL     1      46.608   4.435  13.940  0.00  0.00    +0.000 A 
ATOM      3  C   UNL     1      46.198   3.301  13.227  0.00  0.00    +0.000 A 
ATOM      4  C   UNL     1      45.258   3.409  12.197  0.00  0.00    +0.000 A 
ATOM      5  C   UNL     1      44.710   4.653  11.849  0.00  0.00    +0.000 A 
ATOM      6  C   UNL     1      45.133   5.789  12.553  0.00  0.00    +0.000 A 
ATOM      7  C   UNL     1      46.074   5.681  13.583  0.00  0.00    +0.000 A 
BRANCH   5   8
ATOM      8  C   UNL     1      43.694   4.761  10.733  0.00  0.00    +0.000 C 
BRANCH   8   9
ATOM      9  N   UNL     1      43.855   3.670   9.774  0.00  0.00    +0.000 NA
ATOM     10  H   UNL     1      42.938   3.272   9.572  0.00  0.00    +0.000 HD
BRANCH   9  11
ATOM     11  C   UNL     1      44.471   4.119   8.528  0.00  0.00    +0.000 C 
BRANCH  11  12
ATOM     12  C   UNL     1      45.481   3.112   8.044  0.00  0.00    +0.000 A 
ATOM     13  C   UNL     1      46.462   3.455   7.107  0.00  0.00    +0.000 A 
ATOM     14  C   UNL     1      47.403   2.510   6.710  0.00  0.00    +0.000 A 
ATOM     15  C   UNL     1      47.328   1.241   7.257  0.00  0.00    +0.000 A 
ATOM     16  N   UNL     1      46.386   0.862   8.149  0.00  0.00    +0.000 NA
ATOM     17  C   UNL     1      45.488   1.805   8.520  0.00  0.00    +0.000 A 
ENDBRANCH  11  12
ENDBRANCH   9  11
ENDBRANCH   8   9
ENDBRANCH   5   8
ENDBRANCH   1   2
BRANCH   1  20
ATOM     18  C   UNL     1      48.630   6.369  15.996  0.00  0.00    +0.000 C 
ATOM     19  O   UNL     1      49.654   6.241  15.330  0.00  0.00    +0.000 OA
ATOM     20  N   UNL     1      47.602   5.473  15.898  0.00  0.00    +0.000 N 
ATOM     21  H   UNL     1      46.772   5.591  16.460  0.00  0.00    +0.000 HD
BRANCH  18  29
ATOM     22  C   UNL     1      47.720   6.549  19.312  0.00  0.00    +0.000 A 
ATOM     23  N   UNL     1      47.461   6.892  20.590  0.00  0.00    +0.000 NA
ATOM     24  C   UNL     1      47.546   8.184  20.920  0.00  0.00    +0.000 A 
ATOM     25  N   UNL     1      47.848   9.199  20.116  0.00  0.00    +0.000 NA
ATOM     26  C   UNL     1      48.109   8.810  18.855  0.00  0.00    +0.000 A 
ATOM     27  S   UNL     1      48.504   9.976  17.685  0.00  0.00    +0.000 S 
ATOM     28  C   UNL     1      48.691   8.781  16.489  0.00  0.00    +0.000 A 
ATOM     29  C   UNL     1      48.466   7.487  16.944  0.00  0.00    +0.000 A 
ATOM     30  C   UNL     1      48.092   7.511  18.357  0.00  0.00    +0.000 A 
BRANCH  22  32
ATOM     31  C   UNL     1      48.851   4.499  19.256  0.00  0.00    +0.000 C 
ATOM     32  O   UNL     1      47.650   5.215  18.973  0.00  0.00    +0.000 OA
ENDBRANCH  22  32
ENDBRANCH  18  29
ENDBRANCH   1  20
TORSDOF 8
ENDMDL
MODEL 7
REMARK VINA RESULT:    -7.108      2.003      3.365
REMARK INTER + INTRA:         -12.031
REMARK INTER:                 -10.830
REMARK INTRA:                  -1.201
REMARK UNBOUND:                -1.599
REMARK  Name = 
REMARK  9 active torsions:
REMARK  status: ('A' for Active; 'I' for Inactive)
REMARK    1  A    between atoms: C_1  and  O_2
REMARK    2  A    between atoms: O_2  and  C_3
REMARK    3  A    between atoms: C_10  and  C_11
REMARK    4  A    between atoms: N_13  and  C_14
REMARK    5  A    between atoms: C_14  and  C_15
REMARK    6  A    between atoms: C_18  and  C_19
REMARK    7  A    between atoms: C_19  and  N_20
REMARK    8  A    between atoms: N_20  and  C_21
REMARK    9  A    between atoms: C_21  and  C_22
REMARK                            x       y       z     vdW  Elec       q    Type
REMARK                         _______ _______ _______ _____ _____    ______ ____
ROOT
ATOM      1  C   UNL     1      47.219   3.694  14.647  0.00  0.00    +0.000 C 
ENDROOT
BRANCH   1   2
ATOM      2  C   UNL     1      46.344   4.096  13.486  0.00  0.00    +0.000 A 
ATOM      3  C   UNL     1      45.534   3.152  12.844  0.00  0.00    +0.000 A 
ATOM      4  C   UNL     1      44.749   3.516  11.745  0.00  0.00    +0.000 A 
ATOM      5  C   UNL     1      44.760   4.831  11.256  0.00  0.00    +0.000 A 
ATOM      6  C   UNL     1      45.584   5.772  11.890  0.00  0.00    +0.000 A 
ATOM      7  C   UNL     1      46.370   5.407  12.990  0.00  0.00    +0.000 A 
BRANCH   5   8
ATOM      8  C   UNL     1      43.908   5.218  10.067  0.00  0.00    +0.000 C 
BRANCH   8   9
ATOM      9  N   UNL     1      44.133   4.306   8.947  0.00  0.00    +0.000 NA
ATOM     10  H   UNL     1      43.407   4.461   8.247  0.00  0.00    +0.000 HD
BRANCH   9  11
ATOM     11  C   UNL     1      45.444   4.501   8.333  0.00  0.00    +0.000 C 
BRANCH  11  12
ATOM     12  C   UNL     1      46.049   3.178   7.946  0.00  0.00    +0.000 A 
ATOM     13  C   UNL     1      47.068   3.092   6.992  0.00  0.00    +0.000 A 
ATOM     14  C   UNL     1      47.630   1.857   6.684  0.00  0.00    +0.000 A 
ATOM     15  C   UNL     1      47.145   0.736   7.337  0.00  0.00    +0.000 A 
ATOM     16  N   UNL     1      46.150   0.772   8.250  0.00  0.00    +0.000 NA
ATOM     17  C   UNL     1      45.627   1.988   8.531  0.00  0.00    +0.000 A 
ENDBRANCH  11  12
ENDBRANCH   9  11
ENDBRANCH   8   9
ENDBRANCH   5   8
ENDBRANCH   1   2
BRANCH   1  20
ATOM     18  C   UNL     1      48.256   4.767  16.612  0.00  0.00    +0.000 C 
ATOM     19  O   UNL     1      49.020   3.819  16.775  0.00  0.00    +0.000 OA
ATOM     20  N   UNL     1      47.349   4.780  15.589  0.00  0.00    +0.000 N 
ATOM     21  H   UNL     1      46.723   5.565  15.477  0.00  0.00    +0.000 HD
BRANCH  18  29
ATOM     22  C   UNL     1      49.712   7.883  16.450  0.00  0.00    +0.000 A 
ATOM     23  N   UNL     1      50.107   9.162  16.611  0.00  0.00    +0.000 NA
ATOM     24  C   UNL     1      49.715   9.804  17.715  0.00  0.00    +0.000 A 
ATOM     25  N   UNL     1      48.976   9.315  18.707  0.00  0.00    +0.000 NA
ATOM     26  C   UNL     1      48.595   8.042  18.500  0.00  0.00    +0.000 A 
ATOM     27  S   UNL     1      47.653   7.249  19.669  0.00  0.00    +0.000 S 
ATOM     28  C   UNL     1      47.590   5.833  18.730  0.00  0.00    +0.000 A 
ATOM     29  C   UNL     1      48.270   5.929  17.521  0.00  0.00    +0.000 A 
ATOM     30  C   UNL     1      48.892   7.245  17.398  0.00  0.00    +0.000 A 
BRANCH  22  32
ATOM     31  C   UNL     1      49.357   7.616  14.151  0.00  0.00    +0.000 C 
ATOM     32  O   UNL     1      50.100   7.225  15.304  0.00  0.00    +0.000 OA
ENDBRANCH  22  32
ENDBRANCH  18  29
ENDBRANCH   1  20
TORSDOF 8
ENDMDL
MODEL 8
REMARK VINA RESULT:    -7.104      2.270      2.743
REMARK INTER + INTRA:         -12.026
REMARK INTER:                 -10.882
REMARK INTRA:                  -1.144
REMARK UNBOUND:                -1.599
REMARK  Name = 
REMARK  9 active torsions:
REMARK  status: ('A' for Active; 'I' for Inactive)
REMARK    1  A    between atoms: C_1  and  O_2
REMARK    2  A    between atoms: O_2  and  C_3
REMARK    3  A    between atoms: C_10  and  C_11
REMARK    4  A    between atoms: N_13  and  C_14
REMARK    5  A    between atoms: C_14  and  C_15
REMARK    6  A    between atoms: C_18  and  C_19
REMARK    7  A    between atoms: C_19  and  N_20
REMARK    8  A    between atoms: N_20  and  C_21
REMARK    9  A    between atoms: C_21  and  C_22
REMARK                            x       y       z     vdW  Elec       q    Type
REMARK                         _______ _______ _______ _____ _____    ______ ____
ROOT
ATOM      1  C   UNL     1      48.674   6.794  13.443  0.00  0.00    +0.000 C 
ENDROOT
BRANCH   1   2
ATOM      2  C   UNL     1      47.343   6.376  12.869  0.00  0.00    +0.000 A 
ATOM      3  C   UNL     1      46.643   5.292  13.411  0.00  0.00    +0.000 A 
ATOM      4  C   UNL     1      45.425   4.883  12.857  0.00  0.00    +0.000 A 
ATOM      5  C   UNL     1      44.882   5.542  11.745  0.00  0.00    +0.000 A 
ATOM      6  C   UNL     1      45.592   6.618  11.194  0.00  0.00    +0.000 A 
ATOM      7  C   UNL     1      46.811   7.027  11.747  0.00  0.00    +0.000 A 
BRANCH   5   8
ATOM      8  C   UNL     1      43.564   5.093  11.152  0.00  0.00    +0.000 C 
BRANCH   8   9
ATOM      9  N   UNL     1      43.745   4.610   9.785  0.00  0.00    +0.000 NA
ATOM     10  H   UNL     1      44.429   5.203   9.315  0.00  0.00    +0.000 HD
BRANCH   9  11
ATOM     11  C   UNL     1      44.204   3.223   9.747  0.00  0.00    +0.000 C 
BRANCH  11  12
ATOM     12  C   UNL     1      45.313   3.060   8.742  0.00  0.00    +0.000 A 
ATOM     13  C   UNL     1      45.873   1.808   8.469  0.00  0.00    +0.000 A 
ATOM     14  C   UNL     1      46.872   1.688   7.508  0.00  0.00    +0.000 A 
ATOM     15  C   UNL     1      47.290   2.833   6.852  0.00  0.00    +0.000 A 
ATOM     16  N   UNL     1      46.791   4.064   7.099  0.00  0.00    +0.000 NA
ATOM     17  C   UNL     1      45.817   4.148   8.036  0.00  0.00    +0.000 A 
ENDBRANCH  11  12
ENDBRANCH   9  11
ENDBRANCH   8   9
ENDBRANCH   5   8
ENDBRANCH   1   2
BRANCH   1  20
ATOM     18  C   UNL     1      48.981   6.921  15.888  0.00  0.00    +0.000 C 
ATOM     19  O   UNL     1      49.603   5.862  15.904  0.00  0.00    +0.000 OA
ATOM     20  N   UNL     1      48.499   7.444  14.719  0.00  0.00    +0.000 N 
ATOM     21  H   UNL     1      47.983   8.311  14.728  0.00  0.00    +0.000 HD
BRANCH  18  29
ATOM     22  C   UNL     1      47.759   6.027  18.980  0.00  0.00    +0.000 A 
ATOM     23  N   UNL     1      47.375   5.941  20.269  0.00  0.00    +0.000 NA
ATOM     24  C   UNL     1      47.410   7.053  21.009  0.00  0.00    +0.000 A 
ATOM     25  N   UNL     1      47.772   8.269  20.611  0.00  0.00    +0.000 NA
ATOM     26  C   UNL     1      48.157   8.307  19.323  0.00  0.00    +0.000 A 
ATOM     27  S   UNL     1      48.644   9.783  18.639  0.00  0.00    +0.000 S 
ATOM     28  C   UNL     1      48.961   9.040  17.142  0.00  0.00    +0.000 A 
ATOM     29  C   UNL     1      48.713   7.672  17.128  0.00  0.00    +0.000 A 
ATOM     30  C   UNL     1      48.206   7.242  18.429  0.00  0.00    +0.000 A 
BRANCH  22  32
ATOM     31  C   UNL     1      48.543   3.831  18.763  0.00  0.00    +0.000 C 
ATOM     32  O   UNL     1      47.741   4.878  18.220  0.00  0.00    +0.000 OA
ENDBRANCH  22  32
ENDBRANCH  18  29
ENDBRANCH   1  20
TORSDOF 8
ENDMDL
MODEL 9
REMARK VINA RESULT:    -6.761      2.024      2.899
REMARK INTER + INTRA:         -11.523
REMARK INTER:                 -10.308
REMARK INTRA:                  -1.214
REMARK UNBOUND:                -1.599
REMARK  Name = 
REMARK  9 active torsions:
REMARK  status: ('A' for Active; 'I' for Inactive)
REMARK    1  A    between atoms: C_1  and  O_2
REMARK    2  A    between atoms: O_2  and  C_3
REMARK    3  A    between atoms: C_10  and  C_11
REMARK    4  A    between atoms: N_13  and  C_14
REMARK    5  A    between atoms: C_14  and  C_15
REMARK    6  A    between atoms: C_18  and  C_19
REMARK    7  A    between atoms: C_19  and  N_20
REMARK    8  A    between atoms: N_20  and  C_21
REMARK    9  A    between atoms: C_21  and  C_22
REMARK                            x       y       z     vdW  Elec       q    Type
REMARK                         _______ _______ _______ _____ _____    ______ ____
ROOT
ATOM      1  C   UNL     1      48.381   7.882  13.155  0.00  0.00    +0.000 C 
ENDROOT
BRANCH   1   2
ATOM      2  C   UNL     1      47.225   6.914  13.119  0.00  0.00    +0.000 A 
ATOM      3  C   UNL     1      47.436   5.544  13.319  0.00  0.00    +0.000 A 
ATOM      4  C   UNL     1      46.369   4.642  13.251  0.00  0.00    +0.000 A 
ATOM      5  C   UNL     1      45.068   5.086  12.976  0.00  0.00    +0.000 A 
ATOM      6  C   UNL     1      44.860   6.455  12.761  0.00  0.00    +0.000 A 
ATOM      7  C   UNL     1      45.928   7.358  12.828  0.00  0.00    +0.000 A 
BRANCH   5   8
ATOM      8  C   UNL     1      43.919   4.103  12.904  0.00  0.00    +0.000 C 
BRANCH   8   9
ATOM      9  N   UNL     1      44.321   2.882  12.210  0.00  0.00    +0.000 NA
ATOM     10  H   UNL     1      44.112   2.081  12.806  0.00  0.00    +0.000 HD
BRANCH   9  11
ATOM     11  C   UNL     1      43.631   2.723  10.932  0.00  0.00    +0.000 C 
BRANCH  11  12
ATOM     12  C   UNL     1      44.562   3.023   9.787  0.00  0.00    +0.000 A 
ATOM     13  C   UNL     1      45.201   2.000   9.079  0.00  0.00    +0.000 A 
ATOM     14  C   UNL     1      46.028   2.311   8.003  0.00  0.00    +0.000 A 
ATOM     15  C   UNL     1      46.199   3.644   7.673  0.00  0.00    +0.000 A 
ATOM     16  N   UNL     1      45.617   4.664   8.343  0.00  0.00    +0.000 NA
ATOM     17  C   UNL     1      44.815   4.329   9.381  0.00  0.00    +0.000 A 
ENDBRANCH  11  12
ENDBRANCH   9  11
ENDBRANCH   8   9
ENDBRANCH   5   8
ENDBRANCH   1   2
BRANCH   1  20
ATOM     18  C   UNL     1      49.650   7.608  15.254  0.00  0.00    +0.000 C 
ATOM     19  O   UNL     1      48.865   8.326  15.868  0.00  0.00    +0.000 OA
ATOM     20  N   UNL     1      49.477   7.341  13.924  0.00  0.00    +0.000 N 
ATOM     21  H   UNL     1      50.138   6.756  13.435  0.00  0.00    +0.000 HD
BRANCH  18  29
ATOM     22  C   UNL     1      50.062   4.960  17.415  0.00  0.00    +0.000 A 
ATOM     23  N   UNL     1      50.505   3.957  18.199  0.00  0.00    +0.000 NA
ATOM     24  C   UNL     1      51.820   3.864  18.414  0.00  0.00    +0.000 A 
ATOM     25  N   UNL     1      52.767   4.673  17.947  0.00  0.00    +0.000 NA
ATOM     26  C   UNL     1      52.283   5.651  17.163  0.00  0.00    +0.000 A 
ATOM     27  S   UNL     1      53.349   6.787  16.486  0.00  0.00    +0.000 S 
ATOM     28  C   UNL     1      52.073   7.585  15.694  0.00  0.00    +0.000 A 
ATOM     29  C   UNL     1      50.825   7.013  15.917  0.00  0.00    +0.000 A 
ATOM     30  C   UNL     1      50.952   5.870  16.819  0.00  0.00    +0.000 A 
BRANCH  22  32
ATOM     31  C   UNL     1      48.042   3.787  17.248  0.00  0.00    +0.000 C 
ATOM     32  O   UNL     1      48.707   5.047  17.178  0.00  0.00    +0.000 OA
ENDBRANCH  22  32
ENDBRANCH  18  29
ENDBRANCH   1  20
TORSDOF 8
ENDMDL
