MODEL 1
REMARK VINA RESULT:    -8.565      0.000      0.000
REMARK INTER + INTRA:         -12.552
REMARK INTER:                 -11.570
REMARK INTRA:                  -0.982
REMARK UNBOUND:                -0.982
REMARK  Name = 
REMARK  7 active torsions:
REMARK  status: ('A' for Active; 'I' for Inactive)
REMARK    1  A    between atoms: C_1  and  C_2
REMARK    2  A    between atoms: C_2  and  C_3
REMARK    3  A    between atoms: C_2  and  C_15
REMARK    4  A    between atoms: C_3  and  N_4
REMARK    5  A    between atoms: N_4  and  C_5
REMARK    6  A    between atoms: C_8  and  C_9
REMARK    7  A    between atoms: C_19  and  C_20
REMARK                            x       y       z     vdW  Elec       q    Type
REMARK                         _______ _______ _______ _____ _____    ______ ____
ROOT
ATOM      1  C   UNL     1      44.130   3.232  11.873  0.00  0.00    +0.000 C 
ENDROOT
BRANCH   1   3
ATOM      2  C   UNL     1      42.885   5.481  12.059  0.00  0.00    +0.000 C 
ATOM      3  C   UNL     1      44.111   4.664  12.322  0.00  0.00    +0.000 C 
BRANCH   3   4
ATOM      4  C   UNL     1      45.398   5.337  12.542  0.00  0.00    +0.000 A 
ATOM      5  C   UNL     1      45.937   6.167  11.550  0.00  0.00    +0.000 A 
ATOM      6  C   UNL     1      47.188   6.762  11.723  0.00  0.00    +0.000 A 
ATOM      7  C   UNL     1      47.895   6.556  12.904  0.00  0.00    +0.000 A 
ATOM      8  C   UNL     1      47.350   5.765  13.920  0.00  0.00    +0.000 A 
ATOM      9  C   UNL     1      46.114   5.130  13.725  0.00  0.00    +0.000 A 
BRANCH   8  10
ATOM     10  C   UNL     1      48.113   5.624  15.188  0.00  0.00    +0.000 C 
ATOM     11  N   UNL     1      47.491   4.985  16.226  0.00  0.00    +0.000 N 
ATOM     12  O   UNL     1      49.231   6.100  15.322  0.00  0.00    +0.000 OA
ATOM     13  H   UNL     1      46.498   4.808  16.237  0.00  0.00    +0.000 HD
ATOM     14  H   UNL     1      47.968   5.024  17.118  0.00  0.00    +0.000 HD
ENDBRANCH   8  10
ENDBRANCH   3   4
ENDBRANCH   1   3
BRANCH   1  15
ATOM     15  N   UNL     1      43.656   3.214  10.499  0.00  0.00    +0.000 N 
ATOM     16  H   UNL     1      42.958   3.930  10.310  0.00  0.00    +0.000 HD
BRANCH  15  17
ATOM     17  C   UNL     1      44.536   3.047   9.434  0.00  0.00    +0.000 A 
ATOM     18  C   UNL     1      45.103   4.106   8.718  0.00  0.00    +0.000 A 
ATOM     19  C   UNL     1      46.066   3.877   7.726  0.00  0.00    +0.000 A 
ATOM     20  C   UNL     1      46.507   2.579   7.449  0.00  0.00    +0.000 A 
ATOM     21  C   UNL     1      45.955   1.523   8.172  0.00  0.00    +0.000 A 
ATOM     22  F   UNL     1      46.346   0.256   7.962  0.00  0.00    +0.000 F 
ATOM     23  C   UNL     1      44.992   1.753   9.154  0.00  0.00    +0.000 A 
BRANCH  20  24
ATOM     24  C   UNL     1      47.560   2.395   6.420  0.00  0.00    +0.000 C 
ATOM     25  N   UNL     1      47.421   3.048   5.229  0.00  0.00    +0.000 N 
ATOM     26  O   UNL     1      48.527   1.674   6.620  0.00  0.00    +0.000 OA
ATOM     27  H   UNL     1      46.630   3.644   5.015  0.00  0.00    +0.000 HD
ATOM     28  H   UNL     1      48.130   2.905   4.523  0.00  0.00    +0.000 HD
ENDBRANCH  20  24
ENDBRANCH  15  17
ENDBRANCH   1  15
TORSDOF 6
ENDMDL
MODEL 2
REMARK VINA RESULT:    -8.477      1.992      2.298
REMARK INTER + INTRA:         -12.433
REMARK INTER:                 -11.612
REMARK INTRA:                  -0.821
REMARK UNBOUND:                -0.982
REMARK  Name = 
REMARK  7 active torsions:
REMARK  status: ('A' for Active; 'I' for Inactive)
REMARK    1  A    between atoms: C_1  and  C_2
REMARK    2  A    between atoms: C_2  and  C_3
REMARK    3  A    between atoms: C_2  and  C_15
REMARK    4  A    between atoms: C_3  and  N_4
REMARK    5  A    between atoms: N_4  and  C_5
REMARK    6  A    between atoms: C_8  and  C_9
REMARK    7  A    between atoms: C_19  and  C_20
REMARK                            x       y       z     vdW  Elec       q    Type
REMARK                         _______ _______ _______ _____ _____    ______ ____
ROOT
ATOM      1  C   UNL     1      44.326   3.268  12.059  0.00  0.00    +0.000 C 
ENDROOT
BRANCH   1   3
ATOM      2  C   UNL     1      42.658   5.192  12.458  0.00  0.00    +0.000 C 
ATOM      3  C   UNL     1      44.045   4.644  12.588  0.00  0.00    +0.000 C 
BRANCH   3   4
ATOM      4  C   UNL     1      45.176   5.566  12.751  0.00  0.00    +0.000 A 
ATOM      5  C   UNL     1      46.437   5.076  13.120  0.00  0.00    +0.000 A 
ATOM      6  C   UNL     1      47.503   5.950  13.339  0.00  0.00    +0.000 A 
ATOM      7  C   UNL     1      47.325   7.319  13.161  0.00  0.00    +0.000 A 
ATOM      8  C   UNL     1      46.084   7.818  12.751  0.00  0.00    +0.000 A 
ATOM      9  C   UNL     1      45.002   6.943  12.577  0.00  0.00    +0.000 A 
BRANCH   8  10
ATOM     10  C   UNL     1      45.958   9.280  12.513  0.00  0.00    +0.000 C 
ATOM     11  N   UNL     1      44.715   9.833  12.654  0.00  0.00    +0.000 N 
ATOM     12  O   UNL     1      46.911   9.958  12.157  0.00  0.00    +0.000 OA
ATOM     13  H   UNL     1      43.875   9.275  12.697  0.00  0.00    +0.000 HD
ATOM     14  H   UNL     1      44.621  10.794  12.352  0.00  0.00    +0.000 HD
ENDBRANCH   8  10
ENDBRANCH   3   4
ENDBRANCH   1   3
BRANCH   1  15
ATOM     15  N   UNL     1      43.781   3.213  10.713  0.00  0.00    +0.000 N 
ATOM     16  H   UNL     1      43.052   3.904  10.551  0.00  0.00    +0.000 HD
BRANCH  15  17
ATOM     17  C   UNL     1      44.608   3.054   9.605  0.00  0.00    +0.000 A 
ATOM     18  C   UNL     1      45.171   4.118   8.894  0.00  0.00    +0.000 A 
ATOM     19  C   UNL     1      46.083   3.894   7.854  0.00  0.00    +0.000 A 
ATOM     20  C   UNL     1      46.477   2.593   7.522  0.00  0.00    +0.000 A 
ATOM     21  C   UNL     1      45.930   1.532   8.240  0.00  0.00    +0.000 A 
ATOM     22  F   UNL     1      46.278   0.261   7.978  0.00  0.00    +0.000 F 
ATOM     23  C   UNL     1      45.018   1.758   9.270  0.00  0.00    +0.000 A 
BRANCH  20  24
ATOM     24  C   UNL     1      47.479   2.412   6.443  0.00  0.00    +0.000 C 
ATOM     25  N   UNL     1      47.304   3.100   5.276  0.00  0.00    +0.000 N 
ATOM     26  O   UNL     1      48.436   1.664   6.581  0.00  0.00    +0.000 OA
ATOM     27  H   UNL     1      46.519   3.720   5.113  0.00  0.00    +0.000 HD
ATOM     28  H   UNL     1      47.977   2.960   4.535  0.00  0.00    +0.000 HD
ENDBRANCH  20  24
ENDBRANCH  15  17
ENDBRANCH   1  15
TORSDOF 6
ENDMDL
MODEL 3
REMARK VINA RESULT:    -8.054      1.578      2.009
REMARK INTER + INTRA:         -11.861
REMARK INTER:                 -11.006
REMARK INTRA:                  -0.855
REMARK UNBOUND:                -0.982
REMARK  Name = 
REMARK  7 active torsions:
REMARK  status: ('A' for Active; 'I' for Inactive)
REMARK    1  A    between atoms: C_1  and  C_2
REMARK    2  A    between atoms: C_2  and  C_3
REMARK    3  A    between atoms: C_2  and  C_15
REMARK    4  A    between atoms: C_3  and  N_4
REMARK    5  A    between atoms: N_4  and  C_5
REMARK    6  A    between atoms: C_8  and  C_9
REMARK    7  A    between atoms: C_19  and  C_20
REMARK                            x       y       z     vdW  Elec       q    Type
REMARK                         _______ _______ _______ _____ _____    ______ ____
ROOT
ATOM      1  C   UNL     1      44.254   3.544  11.834  0.00  0.00    +0.000 C 
ENDROOT
BRANCH   1   3
ATOM      2  C   UNL     1      43.668   6.035  11.523  0.00  0.00    +0.000 C 
ATOM      3  C   UNL     1      44.491   4.981  12.196  0.00  0.00    +0.000 C 
BRANCH   3   4
ATOM      4  C   UNL     1      45.786   5.340  12.787  0.00  0.00    +0.000 A 
ATOM      5  C   UNL     1      46.183   4.779  14.009  0.00  0.00    +0.000 A 
ATOM      6  C   UNL     1      47.383   5.161  14.611  0.00  0.00    +0.000 A 
ATOM      7  C   UNL     1      48.212   6.083  13.979  0.00  0.00    +0.000 A 
ATOM      8  C   UNL     1      47.850   6.619  12.738  0.00  0.00    +0.000 A 
ATOM      9  C   UNL     1      46.621   6.269  12.158  0.00  0.00    +0.000 A 
BRANCH   8  10
ATOM     10  C   UNL     1      48.795   7.552  12.071  0.00  0.00    +0.000 C 
ATOM     11  N   UNL     1      50.131   7.279  12.188  0.00  0.00    +0.000 N 
ATOM     12  O   UNL     1      48.407   8.550  11.483  0.00  0.00    +0.000 OA
ATOM     13  H   UNL     1      50.494   6.622  12.863  0.00  0.00    +0.000 HD
ATOM     14  H   UNL     1      50.760   7.996  11.851  0.00  0.00    +0.000 HD
ENDBRANCH   8  10
ENDBRANCH   3   4
ENDBRANCH   1   3
BRANCH   1  15
ATOM     15  N   UNL     1      43.769   3.529  10.464  0.00  0.00    +0.000 N 
ATOM     16  H   UNL     1      43.126   4.290  10.261  0.00  0.00    +0.000 HD
BRANCH  15  17
ATOM     17  C   UNL     1      44.626   3.269   9.398  0.00  0.00    +0.000 A 
ATOM     18  C   UNL     1      45.227   4.264   8.622  0.00  0.00    +0.000 A 
ATOM     19  C   UNL     1      46.165   3.944   7.631  0.00  0.00    +0.000 A 
ATOM     20  C   UNL     1      46.547   2.615   7.417  0.00  0.00    +0.000 A 
ATOM     21  C   UNL     1      45.962   1.623   8.200  0.00  0.00    +0.000 A 
ATOM     22  F   UNL     1      46.296   0.331   8.052  0.00  0.00    +0.000 F 
ATOM     23  C   UNL     1      45.023   1.944   9.181  0.00  0.00    +0.000 A 
BRANCH  20  24
ATOM     24  C   UNL     1      47.577   2.334   6.386  0.00  0.00    +0.000 C 
ATOM     25  N   UNL     1      47.518   3.022   5.208  0.00  0.00    +0.000 N 
ATOM     26  O   UNL     1      48.456   1.504   6.574  0.00  0.00    +0.000 OA
ATOM     27  H   UNL     1      46.801   3.707   5.005  0.00  0.00    +0.000 HD
ATOM     28  H   UNL     1      48.209   2.814   4.501  0.00  0.00    +0.000 HD
ENDBRANCH  20  24
ENDBRANCH  15  17
ENDBRANCH   1  15
TORSDOF 6
ENDMDL
MODEL 4
REMARK VINA RESULT:    -7.181      2.858      6.765
REMARK INTER + INTRA:         -10.682
REMARK INTER:                  -9.596
REMARK INTRA:                  -1.085
REMARK UNBOUND:                -0.982
REMARK  Name = 
REMARK  7 active torsions:
REMARK  status: ('A' for Active; 'I' for Inactive)
REMARK    1  A    between atoms: C_1  and  C_2
REMARK    2  A    between atoms: C_2  and  C_3
REMARK    3  A    between atoms: C_2  and  C_15
REMARK    4  A    between atoms: C_3  and  N_4
REMARK    5  A    between atoms: N_4  and  C_5
REMARK    6  A    between atoms: C_8  and  C_9
REMARK    7  A    between atoms: C_19  and  C_20
REMARK                            x       y       z     vdW  Elec       q    Type
REMARK                         _______ _______ _______ _____ _____    ______ ____
ROOT
ATOM      1  C   UNL     1      45.390   2.977  12.393  0.00  0.00    +0.000 C 
ENDROOT
BRANCH   1   3
ATOM      2  C   UNL     1      43.123   2.622  11.219  0.00  0.00    +0.000 C 
ATOM      3  C   UNL     1      44.539   3.104  11.163  0.00  0.00    +0.000 C 
BRANCH   3   4
ATOM      4  C   UNL     1      45.214   3.224   9.865  0.00  0.00    +0.000 A 
ATOM      5  C   UNL     1      45.316   4.474   9.237  0.00  0.00    +0.000 A 
ATOM      6  C   UNL     1      45.900   4.589   7.974  0.00  0.00    +0.000 A 
ATOM      7  C   UNL     1      46.416   3.460   7.344  0.00  0.00    +0.000 A 
ATOM      8  C   UNL     1      46.360   2.214   7.978  0.00  0.00    +0.000 A 
ATOM      9  C   UNL     1      45.731   2.093   9.225  0.00  0.00    +0.000 A 
BRANCH   8  10
ATOM     10  C   UNL     1      46.979   1.049   7.294  0.00  0.00    +0.000 C 
ATOM     11  N   UNL     1      46.646  -0.196   7.753  0.00  0.00    +0.000 N 
ATOM     12  O   UNL     1      47.791   1.190   6.391  0.00  0.00    +0.000 OA
ATOM     13  H   UNL     1      46.188  -0.343   8.640  0.00  0.00    +0.000 HD
ATOM     14  H   UNL     1      47.182  -0.966   7.372  0.00  0.00    +0.000 HD
ENDBRANCH   8  10
ENDBRANCH   3   4
ENDBRANCH   1   3
BRANCH   1  15
ATOM     15  N   UNL     1      45.141   4.157  13.203  0.00  0.00    +0.000 N 
ATOM     16  H   UNL     1      45.127   3.960  14.201  0.00  0.00    +0.000 HD
BRANCH  15  17
ATOM     17  C   UNL     1      45.761   5.371  12.919  0.00  0.00    +0.000 A 
ATOM     18  C   UNL     1      45.068   6.555  12.647  0.00  0.00    +0.000 A 
ATOM     19  C   UNL     1      45.746   7.769  12.475  0.00  0.00    +0.000 A 
ATOM     20  C   UNL     1      47.137   7.831  12.604  0.00  0.00    +0.000 A 
ATOM     21  C   UNL     1      47.829   6.655  12.890  0.00  0.00    +0.000 A 
ATOM     22  F   UNL     1      49.164   6.652  13.038  0.00  0.00    +0.000 F 
ATOM     23  C   UNL     1      47.152   5.447  13.054  0.00  0.00    +0.000 A 
BRANCH  20  24
ATOM     24  C   UNL     1      47.803   9.149  12.456  0.00  0.00    +0.000 C 
ATOM     25  N   UNL     1      47.621  10.078  13.440  0.00  0.00    +0.000 N 
ATOM     26  O   UNL     1      48.493   9.408  11.481  0.00  0.00    +0.000 OA
ATOM     27  H   UNL     1      47.047   9.912  14.258  0.00  0.00    +0.000 HD
ATOM     28  H   UNL     1      48.059  10.982  13.328  0.00  0.00    +0.000 HD
ENDBRANCH  20  24
ENDBRANCH  15  17
ENDBRANCH   1  15
TORSDOF 6
ENDMDL
MODEL 5
REMARK VINA RESULT:    -6.600      3.420      5.507
REMARK INTER + INTRA:          -9.897
REMARK INTER:                  -8.982
REMARK INTRA:                  -0.915
REMARK UNBOUND:                -0.982
REMARK  Name = 
REMARK  7 active torsions:
REMARK  status: ('A' for Active; 'I' for Inactive)
REMARK    1  A    between atoms: C_1  and  C_2
REMARK    2  A    between atoms: C_2  and  C_3
REMARK    3  A    between atoms: C_2  and  C_15
REMARK    4  A    between atoms: C_3  and  N_4
REMARK    5  A    between atoms: N_4  and  C_5
REMARK    6  A    between atoms: C_8  and  C_9
REMARK    7  A    between atoms: C_19  and  C_20
REMARK                            x       y       z     vdW  Elec       q    Type
REMARK                         _______ _______ _______ _____ _____    ______ ____
ROOT
ATOM      1  C   UNL     1      48.353   7.382  13.758  0.00  0.00    +0.000 C 
ENDROOT
BRANCH   1   3
ATOM      2  C   UNL     1      48.898   9.099  15.602  0.00  0.00    +0.000 C 
ATOM      3  C   UNL     1      48.634   7.681  15.202  0.00  0.00    +0.000 C 
BRANCH   3   4
ATOM      4  C   UNL     1      49.115   6.586  16.053  0.00  0.00    +0.000 A 
ATOM      5  C   UNL     1      50.475   6.493  16.380  0.00  0.00    +0.000 A 
ATOM      6  C   UNL     1      50.953   5.421  17.136  0.00  0.00    +0.000 A 
ATOM      7  C   UNL     1      50.069   4.451  17.600  0.00  0.00    +0.000 A 
ATOM      8  C   UNL     1      48.703   4.555  17.318  0.00  0.00    +0.000 A 
ATOM      9  C   UNL     1      48.232   5.606  16.518  0.00  0.00    +0.000 A 
BRANCH   8  10
ATOM     10  C   UNL     1      47.788   3.530  17.886  0.00  0.00    +0.000 C 
ATOM     11  N   UNL     1      48.194   2.891  19.026  0.00  0.00    +0.000 N 
ATOM     12  O   UNL     1      46.738   3.230  17.338  0.00  0.00    +0.000 OA
ATOM     13  H   UNL     1      49.146   2.928  19.359  0.00  0.00    +0.000 HD
ATOM     14  H   UNL     1      47.629   2.104  19.317  0.00  0.00    +0.000 HD
ENDBRANCH   8  10
ENDBRANCH   3   4
ENDBRANCH   1   3
BRANCH   1  15
ATOM     15  N   UNL     1      46.919   7.522  13.569  0.00  0.00    +0.000 N 
ATOM     16  H   UNL     1      46.653   8.431  13.198  0.00  0.00    +0.000 HD
BRANCH  15  17
ATOM     17  C   UNL     1      46.159   6.492  13.024  0.00  0.00    +0.000 A 
ATOM     18  C   UNL     1      45.161   6.684  12.063  0.00  0.00    +0.000 A 
ATOM     19  C   UNL     1      44.504   5.596  11.472  0.00  0.00    +0.000 A 
ATOM     20  C   UNL     1      44.856   4.285  11.808  0.00  0.00    +0.000 A 
ATOM     21  C   UNL     1      45.862   4.090  12.753  0.00  0.00    +0.000 A 
ATOM     22  F   UNL     1      46.253   2.856  13.109  0.00  0.00    +0.000 F 
ATOM     23  C   UNL     1      46.509   5.175  13.345  0.00  0.00    +0.000 A 
BRANCH  20  24
ATOM     24  C   UNL     1      44.161   3.168  11.121  0.00  0.00    +0.000 C 
ATOM     25  N   UNL     1      44.850   2.463  10.175  0.00  0.00    +0.000 N 
ATOM     26  O   UNL     1      43.001   2.883  11.382  0.00  0.00    +0.000 OA
ATOM     27  H   UNL     1      45.806   2.673   9.917  0.00  0.00    +0.000 HD
ATOM     28  H   UNL     1      44.368   1.716   9.695  0.00  0.00    +0.000 HD
ENDBRANCH  20  24
ENDBRANCH  15  17
ENDBRANCH   1  15
TORSDOF 6
ENDMDL
MODEL 6
REMARK VINA RESULT:    -6.524      2.487      7.564
REMARK INTER + INTRA:          -9.794
REMARK INTER:                  -9.159
REMARK INTRA:                  -0.635
REMARK UNBOUND:                -0.982
REMARK  Name = 
REMARK  7 active torsions:
REMARK  status: ('A' for Active; 'I' for Inactive)
REMARK    1  A    between atoms: C_1  and  C_2
REMARK    2  A    between atoms: C_2  and  C_3
REMARK    3  A    between atoms: C_2  and  C_15
REMARK    4  A    between atoms: C_3  and  N_4
REMARK    5  A    between atoms: N_4  and  C_5
REMARK    6  A    between atoms: C_8  and  C_9
REMARK    7  A    between atoms: C_19  and  C_20
REMARK                            x       y       z     vdW  Elec       q    Type
REMARK                         _______ _______ _______ _____ _____    ______ ____
ROOT
ATOM      1  C   UNL     1      45.912   5.796   9.962  0.00  0.00    +0.000 C 
ENDROOT
BRANCH   1   3
ATOM      2  C   UNL     1      43.578   4.783  10.375  0.00  0.00    +0.000 C 
ATOM      3  C   UNL     1      44.870   4.772   9.618  0.00  0.00    +0.000 C 
BRANCH   3   4
ATOM      4  C   UNL     1      45.304   3.543   8.944  0.00  0.00    +0.000 A 
ATOM      5  C   UNL     1      44.817   2.298   9.366  0.00  0.00    +0.000 A 
ATOM      6  C   UNL     1      45.272   1.119   8.773  0.00  0.00    +0.000 A 
ATOM      7  C   UNL     1      46.192   1.177   7.730  0.00  0.00    +0.000 A 
ATOM      8  C   UNL     1      46.654   2.415   7.270  0.00  0.00    +0.000 A 
ATOM      9  C   UNL     1      46.232   3.595   7.898  0.00  0.00    +0.000 A 
BRANCH   8  10
ATOM     10  C   UNL     1      47.588   2.431   6.114  0.00  0.00    +0.000 C 
ATOM     11  N   UNL     1      47.367   3.370   5.143  0.00  0.00    +0.000 N 
ATOM     12  O   UNL     1      48.489   1.613   6.003  0.00  0.00    +0.000 OA
ATOM     13  H   UNL     1      46.502   3.886   5.074  0.00  0.00    +0.000 HD
ATOM     14  H   UNL     1      47.921   3.275   4.302  0.00  0.00    +0.000 HD
ENDBRANCH   8  10
ENDBRANCH   3   4
ENDBRANCH   1   3
BRANCH   1  15
ATOM     15  N   UNL     1      45.649   6.226  11.325  0.00  0.00    +0.000 N 
ATOM     16  H   UNL     1      44.889   5.712  11.764  0.00  0.00    +0.000 HD
BRANCH  15  17
ATOM     17  C   UNL     1      46.689   6.484  12.214  0.00  0.00    +0.000 A 
ATOM     18  C   UNL     1      47.565   7.567  12.095  0.00  0.00    +0.000 A 
ATOM     19  C   UNL     1      48.524   7.836  13.081  0.00  0.00    +0.000 A 
ATOM     20  C   UNL     1      48.606   7.040  14.228  0.00  0.00    +0.000 A 
ATOM     21  C   UNL     1      47.724   5.970  14.357  0.00  0.00    +0.000 A 
ATOM     22  F   UNL     1      47.744   5.177  15.440  0.00  0.00    +0.000 F 
ATOM     23  C   UNL     1      46.775   5.700  13.371  0.00  0.00    +0.000 A 
BRANCH  20  24
ATOM     24  C   UNL     1      49.610   7.394  15.263  0.00  0.00    +0.000 C 
ATOM     25  N   UNL     1      50.933   7.267  14.949  0.00  0.00    +0.000 N 
ATOM     26  O   UNL     1      49.272   7.782  16.371  0.00  0.00    +0.000 OA
ATOM     27  H   UNL     1      51.258   6.936  14.049  0.00  0.00    +0.000 HD
ATOM     28  H   UNL     1      51.614   7.490  15.662  0.00  0.00    +0.000 HD
ENDBRANCH  20  24
ENDBRANCH  15  17
ENDBRANCH   1  15
TORSDOF 6
ENDMDL
MODEL 7
REMARK VINA RESULT:    -6.433      3.418      7.837
REMARK INTER + INTRA:          -9.672
REMARK INTER:                  -8.722
REMARK INTRA:                  -0.951
REMARK UNBOUND:                -0.982
REMARK  Name = 
REMARK  7 active torsions:
REMARK  status: ('A' for Active; 'I' for Inactive)
REMARK    1  A    between atoms: C_1  and  C_2
REMARK    2  A    between atoms: C_2  and  C_3
REMARK    3  A    between atoms: C_2  and  C_15
REMARK    4  A    between atoms: C_3  and  N_4
REMARK    5  A    between atoms: N_4  and  C_5
REMARK    6  A    between atoms: C_8  and  C_9
REMARK    7  A    between atoms: C_19  and  C_20
REMARK                            x       y       z     vdW  Elec       q    Type
REMARK                         _______ _______ _______ _____ _____    ______ ____
ROOT
ATOM      1  C   UNL     1      47.422   6.621  12.578  0.00  0.00    +0.000 C 
ENDROOT
BRANCH   1   3
ATOM      2  C   UNL     1      45.395   8.194  12.335  0.00  0.00    +0.000 C 
ATOM      3  C   UNL     1      46.024   6.860  12.086  0.00  0.00    +0.000 C 
BRANCH   3   4
ATOM      4  C   UNL     1      45.171   5.692  11.833  0.00  0.00    +0.000 A 
ATOM      5  C   UNL     1      44.234   5.284  12.793  0.00  0.00    +0.000 A 
ATOM      6  C   UNL     1      43.462   4.138  12.590  0.00  0.00    +0.000 A 
ATOM      7  C   UNL     1      43.599   3.410  11.412  0.00  0.00    +0.000 A 
ATOM      8  C   UNL     1      44.499   3.830  10.428  0.00  0.00    +0.000 A 
ATOM      9  C   UNL     1      45.307   4.954  10.653  0.00  0.00    +0.000 A 
BRANCH   8  10
ATOM     10  C   UNL     1      44.566   3.056   9.160  0.00  0.00    +0.000 C 
ATOM     11  N   UNL     1      44.668   1.696   9.260  0.00  0.00    +0.000 N 
ATOM     12  O   UNL     1      44.579   3.609   8.070  0.00  0.00    +0.000 OA
ATOM     13  H   UNL     1      44.912   1.232  10.123  0.00  0.00    +0.000 HD
ATOM     14  H   UNL     1      44.854   1.201   8.398  0.00  0.00    +0.000 HD
ENDBRANCH   8  10
ENDBRANCH   3   4
ENDBRANCH   1   3
BRANCH   1  15
ATOM     15  N   UNL     1      47.445   6.998  13.982  0.00  0.00    +0.000 N 
ATOM     16  H   UNL     1      46.678   7.614  14.241  0.00  0.00    +0.000 HD
BRANCH  15  17
ATOM     17  C   UNL     1      47.724   6.063  14.975  0.00  0.00    +0.000 A 
ATOM     18  C   UNL     1      47.145   4.792  15.033  0.00  0.00    +0.000 A 
ATOM     19  C   UNL     1      47.548   3.855  15.995  0.00  0.00    +0.000 A 
ATOM     20  C   UNL     1      48.565   4.162  16.905  0.00  0.00    +0.000 A 
ATOM     21  C   UNL     1      49.154   5.423  16.839  0.00  0.00    +0.000 A 
ATOM     22  F   UNL     1      50.144   5.774  17.676  0.00  0.00    +0.000 F 
ATOM     23  C   UNL     1      48.747   6.356  15.885  0.00  0.00    +0.000 A 
BRANCH  20  24
ATOM     24  C   UNL     1      48.984   3.120  17.875  0.00  0.00    +0.000 C 
ATOM     25  N   UNL     1      48.386   3.103  19.103  0.00  0.00    +0.000 N 
ATOM     26  O   UNL     1      49.845   2.299  17.595  0.00  0.00    +0.000 OA
ATOM     27  H   UNL     1      47.679   3.771  19.382  0.00  0.00    +0.000 HD
ATOM     28  H   UNL     1      48.688   2.404  19.768  0.00  0.00    +0.000 HD
ENDBRANCH  20  24
ENDBRANCH  15  17
ENDBRANCH   1  15
TORSDOF 6
ENDMDL
MODEL 8
REMARK VINA RESULT:    -6.342      3.246      8.104
REMARK INTER + INTRA:          -9.549
REMARK INTER:                  -8.961
REMARK INTRA:                  -0.588
REMARK UNBOUND:                -0.982
REMARK  Name = 
REMARK  7 active torsions:
REMARK  status: ('A' for Active; 'I' for Inactive)
REMARK    1  A    between atoms: C_1  and  C_2
REMARK    2  A    between atoms: C_2  and  C_3
REMARK    3  A    between atoms: C_2  and  C_15
REMARK    4  A    between atoms: C_3  and  N_4
REMARK    5  A    between atoms: N_4  and  C_5
REMARK    6  A    between atoms: C_8  and  C_9
REMARK    7  A    between atoms: C_19  and  C_20
REMARK                            x       y       z     vdW  Elec       q    Type
REMARK                         _______ _______ _______ _____ _____    ______ ____
ROOT
ATOM      1  C   UNL     1      47.589   6.328  12.941  0.00  0.00    +0.000 C 
ENDROOT
BRANCH   1   3
ATOM      2  C   UNL     1      45.902   8.277  12.977  0.00  0.00    +0.000 C 
ATOM      3  C   UNL     1      46.264   6.896  12.525  0.00  0.00    +0.000 C 
BRANCH   3   4
ATOM      4  C   UNL     1      45.202   5.961  12.134  0.00  0.00    +0.000 A 
ATOM      5  C   UNL     1      44.054   5.827  12.927  0.00  0.00    +0.000 A 
ATOM      6  C   UNL     1      43.068   4.895  12.599  0.00  0.00    +0.000 A 
ATOM      7  C   UNL     1      43.207   4.113  11.455  0.00  0.00    +0.000 A 
ATOM      8  C   UNL     1      44.327   4.266  10.632  0.00  0.00    +0.000 A 
ATOM      9  C   UNL     1      45.338   5.169  10.989  0.00  0.00    +0.000 A 
BRANCH   8  10
ATOM     10  C   UNL     1      44.402   3.454   9.389  0.00  0.00    +0.000 C 
ATOM     11  N   UNL     1      44.110   4.084   8.210  0.00  0.00    +0.000 N 
ATOM     12  O   UNL     1      44.666   2.261   9.416  0.00  0.00    +0.000 OA
ATOM     13  H   UNL     1      43.651   4.982   8.174  0.00  0.00    +0.000 HD
ATOM     14  H   UNL     1      44.029   3.486   7.398  0.00  0.00    +0.000 HD
ENDBRANCH   8  10
ENDBRANCH   3   4
ENDBRANCH   1   3
BRANCH   1  15
ATOM     15  N   UNL     1      47.311   5.110  13.685  0.00  0.00    +0.000 N 
ATOM     16  H   UNL     1      47.541   4.266  13.166  0.00  0.00    +0.000 HD
BRANCH  15  17
ATOM     17  C   UNL     1      47.634   4.999  15.034  0.00  0.00    +0.000 A 
ATOM     18  C   UNL     1      48.323   5.980  15.754  0.00  0.00    +0.000 A 
ATOM     19  C   UNL     1      48.523   5.859  17.136  0.00  0.00    +0.000 A 
ATOM     20  C   UNL     1      48.008   4.764  17.836  0.00  0.00    +0.000 A 
ATOM     21  C   UNL     1      47.308   3.793  17.124  0.00  0.00    +0.000 A 
ATOM     22  F   UNL     1      46.778   2.724  17.740  0.00  0.00    +0.000 F 
ATOM     23  C   UNL     1      47.115   3.912  15.748  0.00  0.00    +0.000 A 
BRANCH  20  24
ATOM     24  C   UNL     1      48.210   4.705  19.305  0.00  0.00    +0.000 C 
ATOM     25  N   UNL     1      48.682   3.544  19.846  0.00  0.00    +0.000 N 
ATOM     26  O   UNL     1      47.957   5.663  20.021  0.00  0.00    +0.000 OA
ATOM     27  H   UNL     1      48.892   2.722  19.294  0.00  0.00    +0.000 HD
ATOM     28  H   UNL     1      48.800   3.500  20.849  0.00  0.00    +0.000 HD
ENDBRANCH  20  24
ENDBRANCH  15  17
ENDBRANCH   1  15
TORSDOF 6
ENDMDL
MODEL 9
REMARK VINA RESULT:    -6.327      3.668      5.952
REMARK INTER + INTRA:          -9.528
REMARK INTER:                  -8.978
REMARK INTRA:                  -0.550
REMARK UNBOUND:                -0.982
REMARK  Name = 
REMARK  7 active torsions:
REMARK  status: ('A' for Active; 'I' for Inactive)
REMARK    1  A    between atoms: C_1  and  C_2
REMARK    2  A    between atoms: C_2  and  C_3
REMARK    3  A    between atoms: C_2  and  C_15
REMARK    4  A    between atoms: C_3  and  N_4
REMARK    5  A    between atoms: N_4  and  C_5
REMARK    6  A    between atoms: C_8  and  C_9
REMARK    7  A    between atoms: C_19  and  C_20
REMARK                            x       y       z     vdW  Elec       q    Type
REMARK                         _______ _______ _______ _____ _____    ______ ____
ROOT
ATOM      1  C   UNL     1      47.491   3.978  15.851  0.00  0.00    +0.000 C 
ENDROOT
BRANCH   1   3
ATOM      2  C   UNL     1      47.236   5.121  18.148  0.00  0.00    +0.000 C 
ATOM      3  C   UNL     1      48.062   4.308  17.199  0.00  0.00    +0.000 C 
BRANCH   3   4
ATOM      4  C   UNL     1      49.520   4.266  17.362  0.00  0.00    +0.000 A 
ATOM      5  C   UNL     1      50.272   5.447  17.292  0.00  0.00    +0.000 A 
ATOM      6  C   UNL     1      51.664   5.410  17.382  0.00  0.00    +0.000 A 
ATOM      7  C   UNL     1      52.314   4.194  17.576  0.00  0.00    +0.000 A 
ATOM      8  C   UNL     1      51.574   3.013  17.692  0.00  0.00    +0.000 A 
ATOM      9  C   UNL     1      50.179   3.047  17.553  0.00  0.00    +0.000 A 
BRANCH   8  10
ATOM     10  C   UNL     1      52.306   1.748  17.961  0.00  0.00    +0.000 C 
ATOM     11  N   UNL     1      51.861   0.619  17.328  0.00  0.00    +0.000 N 
ATOM     12  O   UNL     1      53.237   1.700  18.751  0.00  0.00    +0.000 OA
ATOM     13  H   UNL     1      50.959   0.570  16.877  0.00  0.00    +0.000 HD
ATOM     14  H   UNL     1      52.279  -0.251  17.631  0.00  0.00    +0.000 HD
ENDBRANCH   8  10
ENDBRANCH   3   4
ENDBRANCH   1   3
BRANCH   1  15
ATOM     15  N   UNL     1      47.314   5.237  15.147  0.00  0.00    +0.000 N 
ATOM     16  H   UNL     1      48.127   5.846  15.212  0.00  0.00    +0.000 HD
BRANCH  15  17
ATOM     17  C   UNL     1      46.725   5.283  13.887  0.00  0.00    +0.000 A 
ATOM     18  C   UNL     1      46.850   6.362  13.007  0.00  0.00    +0.000 A 
ATOM     19  C   UNL     1      46.324   6.305  11.710  0.00  0.00    +0.000 A 
ATOM     20  C   UNL     1      45.685   5.148  11.252  0.00  0.00    +0.000 A 
ATOM     21  C   UNL     1      45.573   4.065  12.122  0.00  0.00    +0.000 A 
ATOM     22  F   UNL     1      44.982   2.922  11.737  0.00  0.00    +0.000 F 
ATOM     23  C   UNL     1      46.091   4.127  13.415  0.00  0.00    +0.000 A 
BRANCH  20  24
ATOM     24  C   UNL     1      45.184   5.122   9.855  0.00  0.00    +0.000 C 
ATOM     25  N   UNL     1      43.857   4.872   9.649  0.00  0.00    +0.000 N 
ATOM     26  O   UNL     1      45.932   5.312   8.907  0.00  0.00    +0.000 OA
ATOM     27  H   UNL     1      43.205   4.696  10.403  0.00  0.00    +0.000 HD
ATOM     28  H   UNL     1      43.523   4.836   8.696  0.00  0.00    +0.000 HD
ENDBRANCH  20  24
ENDBRANCH  15  17
ENDBRANCH   1  15
TORSDOF 6
ENDMDL
