MODEL 1
REMARK VINA RESULT:    -7.930      0.000      0.000
REMARK INTER + INTRA:          -9.807
REMARK INTER:                  -9.552
REMARK INTRA:                  -0.255
REMARK UNBOUND:                -0.255
REMARK  Name = 
REMARK  4 active torsions:
REMARK  status: ('A' for Active; 'I' for Inactive)
REMARK    1  A    between atoms: N_1  and  C_2
REMARK    2  A    between atoms: C_2  and  C_3
REMARK    3  A    between atoms: C_6  and  C_7
REMARK    4  A    between atoms: C_7  and  N_8
REMARK                            x       y       z     vdW  Elec       q    Type
REMARK                         _______ _______ _______ _____ _____    ______ ____
ROOT
ATOM      1  C   UNL     1      46.656   2.788   6.861  0.00  0.00    +0.000 A 
ATOM      2  C   UNL     1      46.456   1.619   7.607  0.00  0.00    +0.000 A 
ATOM      3  C   UNL     1      45.634   1.623   8.739  0.00  0.00    +0.000 A 
ATOM      4  C   UNL     1      44.995   2.804   9.152  0.00  0.00    +0.000 A 
ATOM      5  C   UNL     1      45.209   3.977   8.419  0.00  0.00    +0.000 A 
ATOM      6  C   UNL     1      46.027   3.968   7.284  0.00  0.00    +0.000 A 
ENDROOT
BRANCH   1   7
ATOM      7  C   UNL     1      47.537   2.779   5.643  0.00  0.00    +0.000 C 
BRANCH   7   8
ATOM      8  N   UNL     1      48.554   1.744   5.702  0.00  0.00    +0.000 NA
ATOM      9  H   UNL     1      49.479   2.174   5.731  0.00  0.00    +0.000 HD
ATOM     10  H   UNL     1      48.519   1.196   4.844  0.00  0.00    +0.000 HD
ENDBRANCH   7   8
ENDBRANCH   1   7
BRANCH   4  11
ATOM     11  C   UNL     1      44.018   2.779  10.295  0.00  0.00    +0.000 C 
BRANCH  11  12
ATOM     12  N   UNL     1      44.066   3.941  11.168  0.00  0.00    +0.000 N 
ATOM     13  C   UNL     1      43.486   5.147  10.871  0.00  0.00    +0.000 A 
ATOM     14  N   UNL     1      44.108   6.141  11.458  0.00  0.00    +0.000 NA
ATOM     15  C   UNL     1      45.100   5.557  12.206  0.00  0.00    +0.000 A 
ATOM     16  C   UNL     1      46.125   6.154  12.956  0.00  0.00    +0.000 A 
ATOM     17  C   UNL     1      47.026   5.330  13.642  0.00  0.00    +0.000 A 
ATOM     18  C   UNL     1      46.884   3.942  13.614  0.00  0.00    +0.000 A 
ATOM     19  C   UNL     1      45.881   3.327  12.854  0.00  0.00    +0.000 A 
ATOM     20  C   UNL     1      45.029   4.168  12.128  0.00  0.00    +0.000 A 
ENDBRANCH  11  12
ENDBRANCH   4  11
TORSDOF 4
ENDMDL
MODEL 2
REMARK VINA RESULT:    -7.045      1.900      5.928
REMARK INTER + INTRA:          -8.741
REMARK INTER:                  -8.696
REMARK INTRA:                  -0.045
REMARK UNBOUND:                -0.255
REMARK  Name = 
REMARK  4 active torsions:
REMARK  status: ('A' for Active; 'I' for Inactive)
REMARK    1  A    between atoms: N_1  and  C_2
REMARK    2  A    between atoms: C_2  and  C_3
REMARK    3  A    between atoms: C_6  and  C_7
REMARK    4  A    between atoms: C_7  and  N_8
REMARK                            x       y       z     vdW  Elec       q    Type
REMARK                         _______ _______ _______ _____ _____    ______ ____
ROOT
ATOM      1  C   UNL     1      46.366   4.843  13.180  0.00  0.00    +0.000 A 
ATOM      2  C   UNL     1      45.621   3.690  12.900  0.00  0.00    +0.000 A 
ATOM      3  C   UNL     1      44.941   3.554  11.686  0.00  0.00    +0.000 A 
ATOM      4  C   UNL     1      44.987   4.576  10.724  0.00  0.00    +0.000 A 
ATOM      5  C   UNL     1      45.715   5.737  11.010  0.00  0.00    +0.000 A 
ATOM      6  C   UNL     1      46.401   5.867  12.223  0.00  0.00    +0.000 A 
ENDROOT
BRANCH   1   7
ATOM      7  C   UNL     1      47.101   4.983  14.485  0.00  0.00    +0.000 C 
BRANCH   7   8
ATOM      8  N   UNL     1      47.362   3.701  15.114  0.00  0.00    +0.000 NA
ATOM      9  H   UNL     1      46.634   3.036  14.852  0.00  0.00    +0.000 HD
ATOM     10  H   UNL     1      47.299   3.811  16.126  0.00  0.00    +0.000 HD
ENDBRANCH   7   8
ENDBRANCH   1   7
BRANCH   4  11
ATOM     11  C   UNL     1      44.356   4.377   9.374  0.00  0.00    +0.000 C 
BRANCH  11  12
ATOM     12  N   UNL     1      44.719   3.138   8.704  0.00  0.00    +0.000 N 
ATOM     13  C   UNL     1      44.406   1.890   9.177  0.00  0.00    +0.000 A 
ATOM     14  N   UNL     1      45.271   0.990   8.778  0.00  0.00    +0.000 NA
ATOM     15  C   UNL     1      46.154   1.666   7.973  0.00  0.00    +0.000 A 
ATOM     16  C   UNL     1      47.333   1.215   7.360  0.00  0.00    +0.000 A 
ATOM     17  C   UNL     1      48.070   2.111   6.575  0.00  0.00    +0.000 A 
ATOM     18  C   UNL     1      47.619   3.416   6.371  0.00  0.00    +0.000 A 
ATOM     19  C   UNL     1      46.457   3.890   6.992  0.00  0.00    +0.000 A 
ATOM     20  C   UNL     1      45.769   2.996   7.822  0.00  0.00    +0.000 A 
ENDBRANCH  11  12
ENDBRANCH   4  11
TORSDOF 4
ENDMDL
MODEL 3
REMARK VINA RESULT:    -6.912      1.576      2.479
REMARK INTER + INTRA:          -8.581
REMARK INTER:                  -8.092
REMARK INTRA:                  -0.489
REMARK UNBOUND:                -0.255
REMARK  Name = 
REMARK  4 active torsions:
REMARK  status: ('A' for Active; 'I' for Inactive)
REMARK    1  A    between atoms: N_1  and  C_2
REMARK    2  A    between atoms: C_2  and  C_3
REMARK    3  A    between atoms: C_6  and  C_7
REMARK    4  A    between atoms: C_7  and  N_8
REMARK                            x       y       z     vdW  Elec       q    Type
REMARK                         _______ _______ _______ _____ _____    ______ ____
ROOT
ATOM      1  C   UNL     1      46.410   2.360   7.487  0.00  0.00    +0.000 A 
ATOM      2  C   UNL     1      46.487   3.756   7.402  0.00  0.00    +0.000 A 
ATOM      3  C   UNL     1      45.897   4.567   8.377  0.00  0.00    +0.000 A 
ATOM      4  C   UNL     1      45.211   3.995   9.460  0.00  0.00    +0.000 A 
ATOM      5  C   UNL     1      45.117   2.600   9.537  0.00  0.00    +0.000 A 
ATOM      6  C   UNL     1      45.714   1.791   8.564  0.00  0.00    +0.000 A 
ENDROOT
BRANCH   1   7
ATOM      7  C   UNL     1      47.050   1.490   6.439  0.00  0.00    +0.000 C 
BRANCH   7   8
ATOM      8  N   UNL     1      48.427   1.867   6.173  0.00  0.00    +0.000 NA
ATOM      9  H   UNL     1      48.766   1.365   5.352  0.00  0.00    +0.000 HD
ATOM     10  H   UNL     1      49.008   1.567   6.954  0.00  0.00    +0.000 HD
ENDBRANCH   7   8
ENDBRANCH   1   7
BRANCH   4  11
ATOM     11  C   UNL     1      44.684   4.863  10.569  0.00  0.00    +0.000 C 
BRANCH  11  12
ATOM     12  N   UNL     1      45.536   4.941  11.745  0.00  0.00    +0.000 N 
ATOM     13  C   UNL     1      45.226   4.376  12.955  0.00  0.00    +0.000 A 
ATOM     14  N   UNL     1      45.788   5.022  13.948  0.00  0.00    +0.000 NA
ATOM     15  C   UNL     1      46.532   6.015  13.362  0.00  0.00    +0.000 A 
ATOM     16  C   UNL     1      47.258   7.059  13.954  0.00  0.00    +0.000 A 
ATOM     17  C   UNL     1      47.946   7.957  13.128  0.00  0.00    +0.000 A 
ATOM     18  C   UNL     1      47.944   7.792  11.742  0.00  0.00    +0.000 A 
ATOM     19  C   UNL     1      47.208   6.769  11.131  0.00  0.00    +0.000 A 
ATOM     20  C   UNL     1      46.479   5.921  11.973  0.00  0.00    +0.000 A 
ENDBRANCH  11  12
ENDBRANCH   4  11
TORSDOF 4
ENDMDL
MODEL 4
REMARK VINA RESULT:    -6.818      1.993      5.869
REMARK INTER + INTRA:          -8.468
REMARK INTER:                  -7.999
REMARK INTRA:                  -0.468
REMARK UNBOUND:                -0.255
REMARK  Name = 
REMARK  4 active torsions:
REMARK  status: ('A' for Active; 'I' for Inactive)
REMARK    1  A    between atoms: N_1  and  C_2
REMARK    2  A    between atoms: C_2  and  C_3
REMARK    3  A    between atoms: C_6  and  C_7
REMARK    4  A    between atoms: C_7  and  N_8
REMARK                            x       y       z     vdW  Elec       q    Type
REMARK                         _______ _______ _______ _____ _____    ______ ____
ROOT
ATOM      1  C   UNL     1      47.591   6.193  13.673  0.00  0.00    +0.000 A 
ATOM      2  C   UNL     1      47.556   6.843  12.432  0.00  0.00    +0.000 A 
ATOM      3  C   UNL     1      46.478   6.662  11.560  0.00  0.00    +0.000 A 
ATOM      4  C   UNL     1      45.410   5.820  11.910  0.00  0.00    +0.000 A 
ATOM      5  C   UNL     1      45.453   5.155  13.141  0.00  0.00    +0.000 A 
ATOM      6  C   UNL     1      46.529   5.343  14.015  0.00  0.00    +0.000 A 
ENDROOT
BRANCH   1   7
ATOM      7  C   UNL     1      48.750   6.393  14.611  0.00  0.00    +0.000 C 
BRANCH   7   8
ATOM      8  N   UNL     1      49.877   7.043  13.967  0.00  0.00    +0.000 NA
ATOM      9  H   UNL     1      50.728   6.860  14.499  0.00  0.00    +0.000 HD
ATOM     10  H   UNL     1      49.735   8.052  13.991  0.00  0.00    +0.000 HD
ENDBRANCH   7   8
ENDBRANCH   1   7
BRANCH   4  11
ATOM     11  C   UNL     1      44.198   5.723  11.025  0.00  0.00    +0.000 C 
BRANCH  11  12
ATOM     12  N   UNL     1      44.003   4.428  10.393  0.00  0.00    +0.000 N 
ATOM     13  C   UNL     1      43.398   3.360  11.004  0.00  0.00    +0.000 A 
ATOM     14  N   UNL     1      43.830   2.219  10.523  0.00  0.00    +0.000 NA
ATOM     15  C   UNL     1      44.713   2.555   9.527  0.00  0.00    +0.000 A 
ATOM     16  C   UNL     1      45.540   1.732   8.749  0.00  0.00    +0.000 A 
ATOM     17  C   UNL     1      46.363   2.324   7.782  0.00  0.00    +0.000 A 
ATOM     18  C   UNL     1      46.331   3.703   7.567  0.00  0.00    +0.000 A 
ATOM     19  C   UNL     1      45.527   4.543   8.349  0.00  0.00    +0.000 A 
ATOM     20  C   UNL     1      44.759   3.936   9.350  0.00  0.00    +0.000 A 
ENDBRANCH  11  12
ENDBRANCH   4  11
TORSDOF 4
ENDMDL
MODEL 5
REMARK VINA RESULT:    -6.285      1.925      2.872
REMARK INTER + INTRA:          -7.825
REMARK INTER:                  -7.423
REMARK INTRA:                  -0.403
REMARK UNBOUND:                -0.255
REMARK  Name = 
REMARK  4 active torsions:
REMARK  status: ('A' for Active; 'I' for Inactive)
REMARK    1  A    between atoms: N_1  and  C_2
REMARK    2  A    between atoms: C_2  and  C_3
REMARK    3  A    between atoms: C_6  and  C_7
REMARK    4  A    between atoms: C_7  and  N_8
REMARK                            x       y       z     vdW  Elec       q    Type
REMARK                         _______ _______ _______ _____ _____    ______ ____
ROOT
ATOM      1  C   UNL     1      46.390   2.513   7.424  0.00  0.00    +0.000 A 
ATOM      2  C   UNL     1      45.732   1.859   8.474  0.00  0.00    +0.000 A 
ATOM      3  C   UNL     1      45.178   2.584   9.534  0.00  0.00    +0.000 A 
ATOM      4  C   UNL     1      45.275   3.984   9.568  0.00  0.00    +0.000 A 
ATOM      5  C   UNL     1      45.948   4.638   8.529  0.00  0.00    +0.000 A 
ATOM      6  C   UNL     1      46.495   3.911   7.466  0.00  0.00    +0.000 A 
ENDROOT
BRANCH   1   7
ATOM      7  C   UNL     1      46.980   1.731   6.283  0.00  0.00    +0.000 C 
BRANCH   7   8
ATOM      8  N   UNL     1      48.418   1.906   6.178  0.00  0.00    +0.000 NA
ATOM      9  H   UNL     1      48.701   2.733   6.703  0.00  0.00    +0.000 HD
ATOM     10  H   UNL     1      48.658   2.087   5.204  0.00  0.00    +0.000 HD
ENDBRANCH   7   8
ENDBRANCH   1   7
BRANCH   4  11
ATOM     11  C   UNL     1      44.575   4.768  10.644  0.00  0.00    +0.000 C 
BRANCH  11  12
ATOM     12  N   UNL     1      45.427   5.680  11.390  0.00  0.00    +0.000 N 
ATOM     13  C   UNL     1      46.220   5.302  12.443  0.00  0.00    +0.000 A 
ATOM     14  N   UNL     1      46.419   6.292  13.279  0.00  0.00    +0.000 NA
ATOM     15  C   UNL     1      45.773   7.370  12.726  0.00  0.00    +0.000 A 
ATOM     16  C   UNL     1      45.578   8.659  13.244  0.00  0.00    +0.000 A 
ATOM     17  C   UNL     1      44.877   9.596  12.475  0.00  0.00    +0.000 A 
ATOM     18  C   UNL     1      44.416   9.268  11.199  0.00  0.00    +0.000 A 
ATOM     19  C   UNL     1      44.583   7.980  10.674  0.00  0.00    +0.000 A 
ATOM     20  C   UNL     1      45.233   7.042  11.485  0.00  0.00    +0.000 A 
ENDBRANCH  11  12
ENDBRANCH   4  11
TORSDOF 4
ENDMDL
MODEL 6
REMARK VINA RESULT:    -5.806      2.631      6.078
REMARK INTER + INTRA:          -7.249
REMARK INTER:                  -6.851
REMARK INTRA:                  -0.398
REMARK UNBOUND:                -0.255
REMARK  Name = 
REMARK  4 active torsions:
REMARK  status: ('A' for Active; 'I' for Inactive)
REMARK    1  A    between atoms: N_1  and  C_2
REMARK    2  A    between atoms: C_2  and  C_3
REMARK    3  A    between atoms: C_6  and  C_7
REMARK    4  A    between atoms: C_7  and  N_8
REMARK                            x       y       z     vdW  Elec       q    Type
REMARK                         _______ _______ _______ _____ _____    ______ ____
ROOT
ATOM      1  C   UNL     1      48.057   7.342  13.935  0.00  0.00    +0.000 A 
ATOM      2  C   UNL     1      47.818   6.205  13.153  0.00  0.00    +0.000 A 
ATOM      3  C   UNL     1      46.706   6.137  12.307  0.00  0.00    +0.000 A 
ATOM      4  C   UNL     1      45.803   7.210  12.229  0.00  0.00    +0.000 A 
ATOM      5  C   UNL     1      46.030   8.340  13.024  0.00  0.00    +0.000 A 
ATOM      6  C   UNL     1      47.147   8.408  13.864  0.00  0.00    +0.000 A 
ENDROOT
BRANCH   1   7
ATOM      7  C   UNL     1      49.256   7.413  14.839  0.00  0.00    +0.000 C 
BRANCH   7   8
ATOM      8  N   UNL     1      49.456   6.187  15.591  0.00  0.00    +0.000 NA
ATOM      9  H   UNL     1      49.840   5.468  14.978  0.00  0.00    +0.000 HD
ATOM     10  H   UNL     1      48.551   5.842  15.907  0.00  0.00    +0.000 HD
ENDBRANCH   7   8
ENDBRANCH   1   7
BRANCH   4  11
ATOM     11  C   UNL     1      44.678   7.185  11.232  0.00  0.00    +0.000 C 
BRANCH  11  12
ATOM     12  N   UNL     1      43.952   5.927  11.158  0.00  0.00    +0.000 N 
ATOM     13  C   UNL     1      43.186   5.423  12.177  0.00  0.00    +0.000 A 
ATOM     14  N   UNL     1      43.121   4.114  12.132  0.00  0.00    +0.000 NA
ATOM     15  C   UNL     1      43.830   3.753  11.013  0.00  0.00    +0.000 A 
ATOM     16  C   UNL     1      44.167   2.477  10.539  0.00  0.00    +0.000 A 
ATOM     17  C   UNL     1      44.907   2.370   9.355  0.00  0.00    +0.000 A 
ATOM     18  C   UNL     1      45.268   3.511   8.636  0.00  0.00    +0.000 A 
ATOM     19  C   UNL     1      44.959   4.794   9.104  0.00  0.00    +0.000 A 
ATOM     20  C   UNL     1      44.272   4.879  10.321  0.00  0.00    +0.000 A 
ENDBRANCH  11  12
ENDBRANCH   4  11
TORSDOF 4
ENDMDL
MODEL 7
REMARK VINA RESULT:    -5.600      2.992      4.523
REMARK INTER + INTRA:          -7.000
REMARK INTER:                  -6.536
REMARK INTRA:                  -0.465
REMARK UNBOUND:                -0.255
REMARK  Name = 
REMARK  4 active torsions:
REMARK  status: ('A' for Active; 'I' for Inactive)
REMARK    1  A    between atoms: N_1  and  C_2
REMARK    2  A    between atoms: C_2  and  C_3
REMARK    3  A    between atoms: C_6  and  C_7
REMARK    4  A    between atoms: C_7  and  N_8
REMARK                            x       y       z     vdW  Elec       q    Type
REMARK                         _______ _______ _______ _____ _____    ______ ____
ROOT
ATOM      1  C   UNL     1      44.893   3.258   9.881  0.00  0.00    +0.000 A 
ATOM      2  C   UNL     1      44.934   2.929  11.242  0.00  0.00    +0.000 A 
ATOM      3  C   UNL     1      45.318   3.876  12.196  0.00  0.00    +0.000 A 
ATOM      4  C   UNL     1      45.677   5.177  11.807  0.00  0.00    +0.000 A 
ATOM      5  C   UNL     1      45.655   5.502  10.446  0.00  0.00    +0.000 A 
ATOM      6  C   UNL     1      45.263   4.555   9.493  0.00  0.00    +0.000 A 
ENDROOT
BRANCH   1   7
ATOM      7  C   UNL     1      44.474   2.239   8.857  0.00  0.00    +0.000 C 
BRANCH   7   8
ATOM      8  N   UNL     1      45.508   1.251   8.605  0.00  0.00    +0.000 NA
ATOM      9  H   UNL     1      45.754   1.257   7.615  0.00  0.00    +0.000 HD
ATOM     10  H   UNL     1      45.133   0.324   8.802  0.00  0.00    +0.000 HD
ENDBRANCH   7   8
ENDBRANCH   1   7
BRANCH   4  11
ATOM     11  C   UNL     1      45.972   6.225  12.843  0.00  0.00    +0.000 C 
BRANCH  11  12
ATOM     12  N   UNL     1      47.333   6.214  13.356  0.00  0.00    +0.000 N 
ATOM     13  C   UNL     1      47.671   5.820  14.626  0.00  0.00    +0.000 A 
ATOM     14  N   UNL     1      48.766   6.409  15.039  0.00  0.00    +0.000 NA
ATOM     15  C   UNL     1      49.187   7.178  13.983  0.00  0.00    +0.000 A 
ATOM     16  C   UNL     1      50.250   8.090  13.907  0.00  0.00    +0.000 A 
ATOM     17  C   UNL     1      50.480   8.759  12.698  0.00  0.00    +0.000 A 
ATOM     18  C   UNL     1      49.692   8.493  11.577  0.00  0.00    +0.000 A 
ATOM     19  C   UNL     1      48.613   7.602  11.639  0.00  0.00    +0.000 A 
ATOM     20  C   UNL     1      48.365   6.991  12.874  0.00  0.00    +0.000 A 
ENDBRANCH  11  12
ENDBRANCH   4  11
TORSDOF 4
ENDMDL
MODEL 8
REMARK VINA RESULT:    -5.484      4.368      6.274
REMARK INTER + INTRA:          -6.861
REMARK INTER:                  -6.400
REMARK INTRA:                  -0.460
REMARK UNBOUND:                -0.255
REMARK  Name = 
REMARK  4 active torsions:
REMARK  status: ('A' for Active; 'I' for Inactive)
REMARK    1  A    between atoms: N_1  and  C_2
REMARK    2  A    between atoms: C_2  and  C_3
REMARK    3  A    between atoms: C_6  and  C_7
REMARK    4  A    between atoms: C_7  and  N_8
REMARK                            x       y       z     vdW  Elec       q    Type
REMARK                         _______ _______ _______ _____ _____    ______ ____
ROOT
ATOM      1  C   UNL     1      44.036   5.287  12.276  0.00  0.00    +0.000 A 
ATOM      2  C   UNL     1      44.791   4.141  12.559  0.00  0.00    +0.000 A 
ATOM      3  C   UNL     1      46.112   4.246  13.006  0.00  0.00    +0.000 A 
ATOM      4  C   UNL     1      46.711   5.505  13.174  0.00  0.00    +0.000 A 
ATOM      5  C   UNL     1      45.964   6.651  12.873  0.00  0.00    +0.000 A 
ATOM      6  C   UNL     1      44.640   6.543  12.434  0.00  0.00    +0.000 A 
ENDROOT
BRANCH   1   7
ATOM      7  C   UNL     1      42.614   5.171  11.801  0.00  0.00    +0.000 C 
BRANCH   7   8
ATOM      8  N   UNL     1      41.922   6.447  11.811  0.00  0.00    +0.000 NA
ATOM      9  H   UNL     1      42.234   7.001  12.609  0.00  0.00    +0.000 HD
ATOM     10  H   UNL     1      40.926   6.282  11.948  0.00  0.00    +0.000 HD
ENDBRANCH   7   8
ENDBRANCH   1   7
BRANCH   4  11
ATOM     11  C   UNL     1      48.087   5.619  13.768  0.00  0.00    +0.000 C 
BRANCH  11  12
ATOM     12  N   UNL     1      48.118   5.922  15.190  0.00  0.00    +0.000 N 
ATOM     13  C   UNL     1      48.714   7.036  15.724  0.00  0.00    +0.000 A 
ATOM     14  N   UNL     1      49.118   6.826  16.953  0.00  0.00    +0.000 NA
ATOM     15  C   UNL     1      48.729   5.544  17.250  0.00  0.00    +0.000 A 
ATOM     16  C   UNL     1      48.988   4.771  18.392  0.00  0.00    +0.000 A 
ATOM     17  C   UNL     1      48.471   3.471  18.459  0.00  0.00    +0.000 A 
ATOM     18  C   UNL     1      47.676   2.967  17.427  0.00  0.00    +0.000 A 
ATOM     19  C   UNL     1      47.424   3.716  16.271  0.00  0.00    +0.000 A 
ATOM     20  C   UNL     1      48.002   4.990  16.199  0.00  0.00    +0.000 A 
ENDBRANCH  11  12
ENDBRANCH   4  11
TORSDOF 4
ENDMDL
MODEL 9
REMARK VINA RESULT:    -5.451      2.638      6.578
REMARK INTER + INTRA:          -6.821
REMARK INTER:                  -6.577
REMARK INTRA:                  -0.244
REMARK UNBOUND:                -0.255
REMARK  Name = 
REMARK  4 active torsions:
REMARK  status: ('A' for Active; 'I' for Inactive)
REMARK    1  A    between atoms: N_1  and  C_2
REMARK    2  A    between atoms: C_2  and  C_3
REMARK    3  A    between atoms: C_6  and  C_7
REMARK    4  A    between atoms: C_7  and  N_8
REMARK                            x       y       z     vdW  Elec       q    Type
REMARK                         _______ _______ _______ _____ _____    ______ ____
ROOT
ATOM      1  C   UNL     1      47.782   4.274  15.985  0.00  0.00    +0.000 A 
ATOM      2  C   UNL     1      47.068   3.712  14.919  0.00  0.00    +0.000 A 
ATOM      3  C   UNL     1      46.805   4.454  13.763  0.00  0.00    +0.000 A 
ATOM      4  C   UNL     1      47.250   5.781  13.651  0.00  0.00    +0.000 A 
ATOM      5  C   UNL     1      47.947   6.351  14.723  0.00  0.00    +0.000 A 
ATOM      6  C   UNL     1      48.214   5.604  15.876  0.00  0.00    +0.000 A 
ENDROOT
BRANCH   1   7
ATOM      7  C   UNL     1      48.066   3.472  17.225  0.00  0.00    +0.000 C 
BRANCH   7   8
ATOM      8  N   UNL     1      46.881   2.812  17.742  0.00  0.00    +0.000 NA
ATOM      9  H   UNL     1      46.058   3.141  17.236  0.00  0.00    +0.000 HD
ATOM     10  H   UNL     1      46.748   3.084  18.714  0.00  0.00    +0.000 HD
ENDBRANCH   7   8
ENDBRANCH   1   7
BRANCH   4  11
ATOM     11  C   UNL     1      47.073   6.536  12.362  0.00  0.00    +0.000 C 
BRANCH  11  12
ATOM     12  N   UNL     1      45.767   6.388  11.740  0.00  0.00    +0.000 N 
ATOM     13  C   UNL     1      44.579   6.460  12.422  0.00  0.00    +0.000 A 
ATOM     14  N   UNL     1      43.640   5.760  11.833  0.00  0.00    +0.000 NA
ATOM     15  C   UNL     1      44.222   5.252  10.698  0.00  0.00    +0.000 A 
ATOM     16  C   UNL     1      43.706   4.355   9.751  0.00  0.00    +0.000 A 
ATOM     17  C   UNL     1      44.507   3.986   8.664  0.00  0.00    +0.000 A 
ATOM     18  C   UNL     1      45.782   4.532   8.501  0.00  0.00    +0.000 A 
ATOM     19  C   UNL     1      46.322   5.412   9.447  0.00  0.00    +0.000 A 
ATOM     20  C   UNL     1      45.526   5.719  10.558  0.00  0.00    +0.000 A 
ENDBRANCH  11  12
ENDBRANCH   4  11
TORSDOF 4
ENDMDL
