MODEL 1
REMARK VINA RESULT:    -7.966      0.000      0.000
REMARK INTER + INTRA:          -9.802
REMARK INTER:                  -9.364
REMARK INTRA:                  -0.439
REMARK UNBOUND:                -0.439
REMARK  Name = 
REMARK  3 active torsions:
REMARK  status: ('A' for Active; 'I' for Inactive)
REMARK    1  A    between atoms: C_2  and  C_4
REMARK    2  A    between atoms: N_8  and  C_9
REMARK    3  A    between atoms: C_9  and  C_10
REMARK                            x       y       z     vdW  Elec       q    Type
REMARK                         _______ _______ _______ _____ _____    ______ ____
ROOT
ATOM      1  C   UNL     1      46.217   2.054   7.901  0.00  0.00    +0.000 A 
ATOM      2  C   UNL     1      46.261   3.367   7.452  0.00  0.00    +0.000 A 
ATOM      3  C   UNL     1      45.437   4.315   8.049  0.00  0.00    +0.000 A 
ATOM      4  C   UNL     1      44.607   3.953   9.109  0.00  0.00    +0.000 A 
ATOM      5  N   UNL     1      43.919   4.978   9.755  0.00  0.00    +0.000 N 
ATOM      6  N   UNL     1      44.537   2.674   9.537  0.00  0.00    +0.000 NA
ATOM      7  C   UNL     1      45.319   1.751   8.915  0.00  0.00    +0.000 A 
ATOM      8  H   UNL     1      43.346   5.516   9.116  0.00  0.00    +0.000 HD
ENDROOT
BRANCH   1  10
ATOM      9  N   UNL     1      46.765  -0.302   7.683  0.00  0.00    +0.000 N 
ATOM     10  C   UNL     1      47.082   0.992   7.352  0.00  0.00    +0.000 C 
ATOM     11  O   UNL     1      48.015   1.243   6.606  0.00  0.00    +0.000 OA
ATOM     12  H   UNL     1      47.296  -1.027   7.215  0.00  0.00    +0.000 HD
ATOM     13  H   UNL     1      45.875  -0.560   8.082  0.00  0.00    +0.000 HD
ENDBRANCH   1  10
BRANCH   5  14
ATOM     14  C   UNL     1      43.314   4.679  11.045  0.00  0.00    +0.000 C 
BRANCH  14  15
ATOM     15  C   UNL     1      44.152   5.280  12.194  0.00  0.00    +0.000 C 
ATOM     16  C   UNL     1      44.907   6.552  11.766  0.00  0.00    +0.000 C 
ATOM     17  C   UNL     1      45.799   7.089  12.879  0.00  0.00    +0.000 C 
ATOM     18  C   UNL     1      46.778   6.033  13.371  0.00  0.00    +0.000 C 
ATOM     19  C   UNL     1      46.049   4.770  13.821  0.00  0.00    +0.000 C 
ATOM     20  C   UNL     1      45.137   4.223  12.724  0.00  0.00    +0.000 C 
ENDBRANCH  14  15
ENDBRANCH   5  14
TORSDOF 3
ENDMDL
MODEL 2
REMARK VINA RESULT:    -7.517      2.845      6.351
REMARK INTER + INTRA:          -9.274
REMARK INTER:                  -8.947
REMARK INTRA:                  -0.328
REMARK UNBOUND:                -0.439
REMARK  Name = 
REMARK  3 active torsions:
REMARK  status: ('A' for Active; 'I' for Inactive)
REMARK    1  A    between atoms: C_2  and  C_4
REMARK    2  A    between atoms: N_8  and  C_9
REMARK    3  A    between atoms: C_9  and  C_10
REMARK                            x       y       z     vdW  Elec       q    Type
REMARK                         _______ _______ _______ _____ _____    ______ ____
ROOT
ATOM      1  C   UNL     1      46.510   5.515  12.884  0.00  0.00    +0.000 A 
ATOM      2  C   UNL     1      45.952   4.270  13.143  0.00  0.00    +0.000 A 
ATOM      3  C   UNL     1      45.198   3.647  12.156  0.00  0.00    +0.000 A 
ATOM      4  C   UNL     1      45.039   4.252  10.909  0.00  0.00    +0.000 A 
ATOM      5  N   UNL     1      44.397   3.509   9.920  0.00  0.00    +0.000 N 
ATOM      6  N   UNL     1      45.555   5.474  10.654  0.00  0.00    +0.000 NA
ATOM      7  C   UNL     1      46.255   6.088  11.646  0.00  0.00    +0.000 A 
ATOM      8  H   UNL     1      43.475   3.204  10.208  0.00  0.00    +0.000 HD
ENDROOT
BRANCH   1  10
ATOM      9  N   UNL     1      47.195   7.593  13.938  0.00  0.00    +0.000 N 
ATOM     10  C   UNL     1      47.354   6.232  13.859  0.00  0.00    +0.000 C 
ATOM     11  O   UNL     1      48.132   5.643  14.592  0.00  0.00    +0.000 OA
ATOM     12  H   UNL     1      47.698   8.060  14.682  0.00  0.00    +0.000 HD
ATOM     13  H   UNL     1      46.403   8.074  13.537  0.00  0.00    +0.000 HD
ENDBRANCH   1  10
BRANCH   5  14
ATOM     14  C   UNL     1      44.506   3.976   8.546  0.00  0.00    +0.000 C 
BRANCH  14  15
ATOM     15  C   UNL     1      45.272   2.953   7.680  0.00  0.00    +0.000 C 
ATOM     16  C   UNL     1      45.852   1.796   8.515  0.00  0.00    +0.000 C 
ATOM     17  C   UNL     1      46.680   0.839   7.666  0.00  0.00    +0.000 C 
ATOM     18  C   UNL     1      47.792   1.565   6.925  0.00  0.00    +0.000 C 
ATOM     19  C   UNL     1      47.237   2.704   6.073  0.00  0.00    +0.000 C 
ATOM     20  C   UNL     1      46.391   3.668   6.903  0.00  0.00    +0.000 C 
ENDBRANCH  14  15
ENDBRANCH   5  14
TORSDOF 3
ENDMDL
MODEL 3
REMARK VINA RESULT:    -7.466      2.890      6.452
REMARK INTER + INTRA:          -9.215
REMARK INTER:                  -8.909
REMARK INTRA:                  -0.305
REMARK UNBOUND:                -0.439
REMARK  Name = 
REMARK  3 active torsions:
REMARK  status: ('A' for Active; 'I' for Inactive)
REMARK    1  A    between atoms: C_2  and  C_4
REMARK    2  A    between atoms: N_8  and  C_9
REMARK    3  A    between atoms: C_9  and  C_10
REMARK                            x       y       z     vdW  Elec       q    Type
REMARK                         _______ _______ _______ _____ _____    ______ ____
ROOT
ATOM      1  C   UNL     1      45.518   6.617  12.505  0.00  0.00    +0.000 A 
ATOM      2  C   UNL     1      45.954   5.527  13.246  0.00  0.00    +0.000 A 
ATOM      3  C   UNL     1      45.684   4.244  12.786  0.00  0.00    +0.000 A 
ATOM      4  C   UNL     1      45.017   4.060  11.575  0.00  0.00    +0.000 A 
ATOM      5  N   UNL     1      44.910   2.753  11.102  0.00  0.00    +0.000 N 
ATOM      6  N   UNL     1      44.566   5.111  10.858  0.00  0.00    +0.000 NA
ATOM      7  C   UNL     1      44.801   6.360  11.344  0.00  0.00    +0.000 A 
ATOM      8  H   UNL     1      44.460   2.140  11.771  0.00  0.00    +0.000 HD
ENDROOT
BRANCH   1  10
ATOM      9  N   UNL     1      44.827   8.944  12.602  0.00  0.00    +0.000 N 
ATOM     10  C   UNL     1      45.791   8.013  12.899  0.00  0.00    +0.000 C 
ATOM     11  O   UNL     1      46.809   8.326  13.495  0.00  0.00    +0.000 OA
ATOM     12  H   UNL     1      44.975   9.875  12.971  0.00  0.00    +0.000 HD
ATOM     13  H   UNL     1      43.885   8.689  12.341  0.00  0.00    +0.000 HD
ENDBRANCH   1  10
BRANCH   5  14
ATOM     14  C   UNL     1      44.518   2.568   9.713  0.00  0.00    +0.000 C 
BRANCH  14  15
ATOM     15  C   UNL     1      45.749   2.628   8.784  0.00  0.00    +0.000 C 
ATOM     16  C   UNL     1      45.558   3.619   7.619  0.00  0.00    +0.000 C 
ATOM     17  C   UNL     1      46.741   3.607   6.660  0.00  0.00    +0.000 C 
ATOM     18  C   UNL     1      47.016   2.210   6.125  0.00  0.00    +0.000 C 
ATOM     19  C   UNL     1      47.230   1.215   7.263  0.00  0.00    +0.000 C 
ATOM     20  C   UNL     1      46.061   1.221   8.246  0.00  0.00    +0.000 C 
ENDBRANCH  14  15
ENDBRANCH   5  14
TORSDOF 3
ENDMDL
MODEL 4
REMARK VINA RESULT:    -7.050      3.197      6.122
REMARK INTER + INTRA:          -8.725
REMARK INTER:                  -8.431
REMARK INTRA:                  -0.294
REMARK UNBOUND:                -0.439
REMARK  Name = 
REMARK  3 active torsions:
REMARK  status: ('A' for Active; 'I' for Inactive)
REMARK    1  A    between atoms: C_2  and  C_4
REMARK    2  A    between atoms: N_8  and  C_9
REMARK    3  A    between atoms: C_9  and  C_10
REMARK                            x       y       z     vdW  Elec       q    Type
REMARK                         _______ _______ _______ _____ _____    ______ ____
ROOT
ATOM      1  C   UNL     1      46.840   4.823  13.913  0.00  0.00    +0.000 A 
ATOM      2  C   UNL     1      46.910   6.037  13.242  0.00  0.00    +0.000 A 
ATOM      3  C   UNL     1      46.354   6.142  11.973  0.00  0.00    +0.000 A 
ATOM      4  C   UNL     1      45.702   5.050  11.401  0.00  0.00    +0.000 A 
ATOM      5  N   UNL     1      45.042   5.266  10.193  0.00  0.00    +0.000 N 
ATOM      6  N   UNL     1      45.649   3.858  12.032  0.00  0.00    +0.000 NA
ATOM      7  C   UNL     1      46.235   3.760  13.256  0.00  0.00    +0.000 A 
ATOM      8  H   UNL     1      45.660   5.634   9.479  0.00  0.00    +0.000 HD
ENDROOT
BRANCH   1  10
ATOM      9  N   UNL     1      46.925   3.532  15.969  0.00  0.00    +0.000 N 
ATOM     10  C   UNL     1      47.370   4.630  15.277  0.00  0.00    +0.000 C 
ATOM     11  O   UNL     1      48.196   5.389  15.759  0.00  0.00    +0.000 OA
ATOM     12  H   UNL     1      47.375   3.351  16.858  0.00  0.00    +0.000 HD
ATOM     13  H   UNL     1      46.446   2.764  15.522  0.00  0.00    +0.000 HD
ENDBRANCH   1  10
BRANCH   5  14
ATOM     14  C   UNL     1      44.097   4.253   9.748  0.00  0.00    +0.000 C 
BRANCH  14  15
ATOM     15  C   UNL     1      44.716   3.380   8.635  0.00  0.00    +0.000 C 
ATOM     16  C   UNL     1      45.273   2.049   9.175  0.00  0.00    +0.000 C 
ATOM     17  C   UNL     1      45.959   1.233   8.086  0.00  0.00    +0.000 C 
ATOM     18  C   UNL     1      47.060   2.028   7.400  0.00  0.00    +0.000 C 
ATOM     19  C   UNL     1      46.525   3.342   6.838  0.00  0.00    +0.000 C 
ATOM     20  C   UNL     1      45.820   4.169   7.911  0.00  0.00    +0.000 C 
ENDBRANCH  14  15
ENDBRANCH   5  14
TORSDOF 3
ENDMDL
MODEL 5
REMARK VINA RESULT:    -5.865      4.041      5.724
REMARK INTER + INTRA:          -7.332
REMARK INTER:                  -7.132
REMARK INTRA:                  -0.200
REMARK UNBOUND:                -0.439
REMARK  Name = 
REMARK  3 active torsions:
REMARK  status: ('A' for Active; 'I' for Inactive)
REMARK    1  A    between atoms: C_2  and  C_4
REMARK    2  A    between atoms: N_8  and  C_9
REMARK    3  A    between atoms: C_9  and  C_10
REMARK                            x       y       z     vdW  Elec       q    Type
REMARK                         _______ _______ _______ _____ _____    ______ ____
ROOT
ATOM      1  C   UNL     1      45.132   4.452  11.259  0.00  0.00    +0.000 A 
ATOM      2  C   UNL     1      45.776   5.672  11.410  0.00  0.00    +0.000 A 
ATOM      3  C   UNL     1      46.364   5.980  12.632  0.00  0.00    +0.000 A 
ATOM      4  C   UNL     1      46.337   5.055  13.675  0.00  0.00    +0.000 A 
ATOM      5  N   UNL     1      47.070   5.366  14.819  0.00  0.00    +0.000 N 
ATOM      6  N   UNL     1      45.691   3.876  13.548  0.00  0.00    +0.000 NA
ATOM      7  C   UNL     1      45.085   3.608  12.359  0.00  0.00    +0.000 A 
ATOM      8  H   UNL     1      46.795   6.255  15.220  0.00  0.00    +0.000 HD
ENDROOT
BRANCH   1  10
ATOM      9  N   UNL     1      44.848   4.739   8.863  0.00  0.00    +0.000 N 
ATOM     10  C   UNL     1      44.512   4.028   9.988  0.00  0.00    +0.000 C 
ATOM     11  O   UNL     1      43.763   3.065   9.927  0.00  0.00    +0.000 OA
ATOM     12  H   UNL     1      44.504   4.374   7.983  0.00  0.00    +0.000 HD
ATOM     13  H   UNL     1      45.638   5.367   8.831  0.00  0.00    +0.000 HD
ENDBRANCH   1  10
BRANCH   5  14
ATOM     14  C   UNL     1      47.322   4.296  15.772  0.00  0.00    +0.000 C 
BRANCH  14  15
ATOM     15  C   UNL     1      48.118   4.821  16.986  0.00  0.00    +0.000 C 
ATOM     16  C   UNL     1      49.229   3.848  17.424  0.00  0.00    +0.000 C 
ATOM     17  C   UNL     1      49.951   4.332  18.676  0.00  0.00    +0.000 C 
ATOM     18  C   UNL     1      48.982   4.578  19.822  0.00  0.00    +0.000 C 
ATOM     19  C   UNL     1      47.883   5.557  19.417  0.00  0.00    +0.000 C 
ATOM     20  C   UNL     1      47.156   5.098  18.154  0.00  0.00    +0.000 C 
ENDBRANCH  14  15
ENDBRANCH   5  14
TORSDOF 3
ENDMDL
MODEL 6
REMARK VINA RESULT:    -5.479      5.728      8.102
REMARK INTER + INTRA:          -6.879
REMARK INTER:                  -6.624
REMARK INTRA:                  -0.254
REMARK UNBOUND:                -0.439
REMARK  Name = 
REMARK  3 active torsions:
REMARK  status: ('A' for Active; 'I' for Inactive)
REMARK    1  A    between atoms: C_2  and  C_4
REMARK    2  A    between atoms: N_8  and  C_9
REMARK    3  A    between atoms: C_9  and  C_10
REMARK                            x       y       z     vdW  Elec       q    Type
REMARK                         _______ _______ _______ _____ _____    ______ ____
ROOT
ATOM      1  C   UNL     1      49.421   4.332  17.815  0.00  0.00    +0.000 A 
ATOM      2  C   UNL     1      48.444   3.349  17.730  0.00  0.00    +0.000 A 
ATOM      3  C   UNL     1      47.461   3.455  16.753  0.00  0.00    +0.000 A 
ATOM      4  C   UNL     1      47.484   4.515  15.848  0.00  0.00    +0.000 A 
ATOM      5  N   UNL     1      46.560   4.481  14.806  0.00  0.00    +0.000 N 
ATOM      6  N   UNL     1      48.414   5.490  15.937  0.00  0.00    +0.000 NA
ATOM      7  C   UNL     1      49.344   5.394  16.926  0.00  0.00    +0.000 A 
ATOM      8  H   UNL     1      45.606   4.415  15.142  0.00  0.00    +0.000 HD
ENDROOT
BRANCH   1  10
ATOM      9  N   UNL     1      51.529   3.380  18.558  0.00  0.00    +0.000 N 
ATOM     10  C   UNL     1      50.522   4.282  18.797  0.00  0.00    +0.000 C 
ATOM     11  O   UNL     1      50.560   5.031  19.760  0.00  0.00    +0.000 OA
ATOM     12  H   UNL     1      52.330   3.429  19.176  0.00  0.00    +0.000 HD
ATOM     13  H   UNL     1      51.657   2.930  17.664  0.00  0.00    +0.000 HD
ENDBRANCH   1  10
BRANCH   5  14
ATOM     14  C   UNL     1      46.771   5.384  13.684  0.00  0.00    +0.000 C 
BRANCH  14  15
ATOM     15  C   UNL     1      45.744   5.114  12.564  0.00  0.00    +0.000 C 
ATOM     16  C   UNL     1      44.424   5.879  12.781  0.00  0.00    +0.000 C 
ATOM     17  C   UNL     1      43.386   5.539  11.719  0.00  0.00    +0.000 C 
ATOM     18  C   UNL     1      43.125   4.042  11.649  0.00  0.00    +0.000 C 
ATOM     19  C   UNL     1      44.418   3.266  11.412  0.00  0.00    +0.000 C 
ATOM     20  C   UNL     1      45.478   3.603  12.458  0.00  0.00    +0.000 C 
ENDBRANCH  14  15
ENDBRANCH   5  14
TORSDOF 3
ENDMDL
MODEL 7
REMARK VINA RESULT:    -5.400      3.718      5.407
REMARK INTER + INTRA:          -6.786
REMARK INTER:                  -6.535
REMARK INTRA:                  -0.251
REMARK UNBOUND:                -0.439
REMARK  Name = 
REMARK  3 active torsions:
REMARK  status: ('A' for Active; 'I' for Inactive)
REMARK    1  A    between atoms: C_2  and  C_4
REMARK    2  A    between atoms: N_8  and  C_9
REMARK    3  A    between atoms: C_9  and  C_10
REMARK                            x       y       z     vdW  Elec       q    Type
REMARK                         _______ _______ _______ _____ _____    ______ ____
ROOT
ATOM      1  C   UNL     1      44.964   3.875  11.514  0.00  0.00    +0.000 A 
ATOM      2  C   UNL     1      45.602   3.663  12.730  0.00  0.00    +0.000 A 
ATOM      3  C   UNL     1      46.438   4.651  13.236  0.00  0.00    +0.000 A 
ATOM      4  C   UNL     1      46.600   5.852  12.548  0.00  0.00    +0.000 A 
ATOM      5  N   UNL     1      47.333   6.854  13.182  0.00  0.00    +0.000 N 
ATOM      6  N   UNL     1      46.006   6.060  11.353  0.00  0.00    +0.000 NA
ATOM      7  C   UNL     1      45.224   5.066  10.851  0.00  0.00    +0.000 A 
ATOM      8  H   UNL     1      48.264   6.544  13.437  0.00  0.00    +0.000 HD
ENDROOT
BRANCH   1  10
ATOM      9  N   UNL     1      44.480   2.193   9.830  0.00  0.00    +0.000 N 
ATOM     10  C   UNL     1      44.032   2.897  10.919  0.00  0.00    +0.000 C 
ATOM     11  O   UNL     1      42.925   2.693  11.393  0.00  0.00    +0.000 OA
ATOM     12  H   UNL     1      43.876   1.451   9.497  0.00  0.00    +0.000 HD
ATOM     13  H   UNL     1      45.455   2.154   9.569  0.00  0.00    +0.000 HD
ENDBRANCH   1  10
BRANCH   5  14
ATOM     14  C   UNL     1      47.244   8.202  12.642  0.00  0.00    +0.000 C 
BRANCH  14  15
ATOM     15  C   UNL     1      48.461   8.515  11.745  0.00  0.00    +0.000 C 
ATOM     16  C   UNL     1      49.682   7.640  12.088  0.00  0.00    +0.000 C 
ATOM     17  C   UNL     1      50.904   8.016  11.258  0.00  0.00    +0.000 C 
ATOM     18  C   UNL     1      51.250   9.489  11.406  0.00  0.00    +0.000 C 
ATOM     19  C   UNL     1      50.060  10.376  11.051  0.00  0.00    +0.000 C 
ATOM     20  C   UNL     1      48.819  10.006  11.861  0.00  0.00    +0.000 C 
ENDBRANCH  14  15
ENDBRANCH   5  14
TORSDOF 3
ENDMDL
MODEL 8
REMARK VINA RESULT:    -5.267      4.785      7.356
REMARK INTER + INTRA:          -6.630
REMARK INTER:                  -6.383
REMARK INTRA:                  -0.246
REMARK UNBOUND:                -0.439
REMARK  Name = 
REMARK  3 active torsions:
REMARK  status: ('A' for Active; 'I' for Inactive)
REMARK    1  A    between atoms: C_2  and  C_4
REMARK    2  A    between atoms: N_8  and  C_9
REMARK    3  A    between atoms: C_9  and  C_10
REMARK                            x       y       z     vdW  Elec       q    Type
REMARK                         _______ _______ _______ _____ _____    ______ ____
ROOT
ATOM      1  C   UNL     1      48.269   4.726  16.740  0.00  0.00    +0.000 A 
ATOM      2  C   UNL     1      48.590   5.902  16.077  0.00  0.00    +0.000 A 
ATOM      3  C   UNL     1      48.013   6.160  14.839  0.00  0.00    +0.000 A 
ATOM      4  C   UNL     1      47.096   5.263  14.293  0.00  0.00    +0.000 A 
ATOM      5  N   UNL     1      46.447   5.652  13.123  0.00  0.00    +0.000 N 
ATOM      6  N   UNL     1      46.795   4.104  14.917  0.00  0.00    +0.000 NA
ATOM      7  C   UNL     1      47.401   3.847  16.108  0.00  0.00    +0.000 A 
ATOM      8  H   UNL     1      47.098   5.879  12.381  0.00  0.00    +0.000 HD
ENDROOT
BRANCH   1  10
ATOM      9  N   UNL     1      49.454   5.387  18.756  0.00  0.00    +0.000 N 
ATOM     10  C   UNL     1      48.805   4.388  18.073  0.00  0.00    +0.000 C 
ATOM     11  O   UNL     1      48.650   3.283  18.568  0.00  0.00    +0.000 OA
ATOM     12  H   UNL     1      49.721   5.177  19.710  0.00  0.00    +0.000 HD
ATOM     13  H   UNL     1      49.385   6.359  18.493  0.00  0.00    +0.000 HD
ENDBRANCH   1  10
BRANCH   5  14
ATOM     14  C   UNL     1      45.270   4.896  12.719  0.00  0.00    +0.000 C 
BRANCH  14  15
ATOM     15  C   UNL     1      45.471   4.277  11.319  0.00  0.00    +0.000 C 
ATOM     16  C   UNL     1      45.525   5.344  10.208  0.00  0.00    +0.000 C 
ATOM     17  C   UNL     1      45.635   4.719   8.822  0.00  0.00    +0.000 C 
ATOM     18  C   UNL     1      44.504   3.737   8.559  0.00  0.00    +0.000 C 
ATOM     19  C   UNL     1      44.446   2.658   9.637  0.00  0.00    +0.000 C 
ATOM     20  C   UNL     1      44.350   3.263  11.036  0.00  0.00    +0.000 C 
ENDBRANCH  14  15
ENDBRANCH   5  14
TORSDOF 3
ENDMDL
