MODEL 1
REMARK VINA RESULT:    -7.429      0.000      0.000
REMARK INTER + INTRA:         -12.523
REMARK INTER:                 -11.120
REMARK INTRA:                  -1.403
REMARK UNBOUND:                -1.403
REMARK  Name = 
REMARK  9 active torsions:
REMARK  status: ('A' for Active; 'I' for Inactive)
REMARK    1  A    between atoms: N_1  and  C_2
REMARK    2  A    between atoms: C_2  and  C_3
REMARK    3  A    between atoms: C_3  and  N_4
REMARK    4  A    between atoms: N_4  and  C_5
REMARK    5  A    between atoms: C_5  and  C_6
REMARK    6  A    between atoms: C_9  and  C_10
REMARK    7  A    between atoms: C_10  and  C_11
REMARK    8  A    between atoms: C_11  and  N_12
REMARK    9  A    between atoms: C_20  and  C_22
REMARK                            x       y       z     vdW  Elec       q    Type
REMARK                         _______ _______ _______ _____ _____    ______ ____
ROOT
ATOM      1  N   UNL     1      46.363   6.954  12.020  0.00  0.00    +0.000 N 
ATOM      2  C   UNL     1      45.104   6.636  11.461  0.00  0.00    +0.000 C 
ATOM      3  O   UNL     1      44.355   7.517  11.042  0.00  0.00    +0.000 OA
ENDROOT
BRANCH   2   4
ATOM      4  C   UNL     1      44.666   5.228  11.397  0.00  0.00    +0.000 A 
ATOM      5  C   UNL     1      43.904   4.584  12.360  0.00  0.00    +0.000 A 
ATOM      6  S   UNL     1      43.510   2.968  11.967  0.00  0.00    +0.000 S 
ATOM      7  C   UNL     1      44.218   3.125  10.424  0.00  0.00    +0.000 A 
ATOM      8  N   UNL     1      44.137   2.113   9.518  0.00  0.00    +0.000 NA
ATOM      9  C   UNL     1      44.667   2.390   8.375  0.00  0.00    +0.000 A 
ATOM     10  N   UNL     1      45.302   3.571   8.070  0.00  0.00    +0.000 N 
ATOM     11  C   UNL     1      45.517   4.569   8.999  0.00  0.00    +0.000 A 
ATOM     12  O   UNL     1      46.274   5.497   8.764  0.00  0.00    +0.000 OA
ATOM     13  C   UNL     1      44.831   4.349  10.261  0.00  0.00    +0.000 A 
ATOM     14  H   UNL     1      45.754   3.697   7.181  0.00  0.00    +0.000 HD
ENDBRANCH   2   4
BRANCH   1  15
ATOM     15  C   UNL     1      46.733   8.381  12.059  0.00  0.00    +0.000 C 
BRANCH  15  16
ATOM     16  C   UNL     1      46.105   9.179  13.222  0.00  0.00    +0.000 C 
BRANCH  16  17
ATOM     17  N   UNL     1      44.832   9.799  12.829  0.00  0.00    +0.000 NA
ATOM     18  H   UNL     1      44.152   9.682  13.580  0.00  0.00    +0.000 HD
ATOM     19  H   UNL     1      44.448   9.283  12.034  0.00  0.00    +0.000 HD
ENDBRANCH  16  17
ENDBRANCH  15  16
ENDBRANCH   1  15
BRANCH   1  20
ATOM     20  C   UNL     1      47.278   5.920  12.497  0.00  0.00    +0.000 C 
BRANCH  20  21
ATOM     21  C   UNL     1      47.437   5.610  13.954  0.00  0.00    +0.000 A 
ATOM     22  C   UNL     1      46.874   4.460  14.517  0.00  0.00    +0.000 A 
ATOM     23  C   UNL     1      47.259   4.052  15.793  0.00  0.00    +0.000 A 
ATOM     24  C   UNL     1      48.181   4.821  16.496  0.00  0.00    +0.000 A 
ATOM     25  N   UNL     1      48.697   5.968  15.987  0.00  0.00    +0.000 NA
ATOM     26  C   UNL     1      48.310   6.341  14.747  0.00  0.00    +0.000 A 
BRANCH  24  27
ATOM     27  C   UNL     1      48.733   4.324  17.813  0.00  0.00    +0.000 C 
BRANCH  27  28
ATOM     28  C   UNL     1      50.222   4.000  17.715  0.00  0.00    +0.000 C 
BRANCH  28  29
ATOM     29  N   UNL     1      50.475   2.566  17.756  0.00  0.00    +0.000 N 
ATOM     30  C   UNL     1      51.731   2.072  17.747  0.00  0.00    +0.000 C 
ATOM     31  N   UNL     1      52.816   2.685  18.112  0.00  0.00    +0.000 NA
ATOM     32  C   UNL     1      53.902   1.715  17.827  0.00  0.00    +0.000 C 
ATOM     33  C   UNL     1      53.242   0.464  17.239  0.00  0.00    +0.000 C 
ATOM     34  N   UNL     1      51.833   0.797  17.292  0.00  0.00    +0.000 N 
ATOM     35  H   UNL     1      49.774   2.002  17.301  0.00  0.00    +0.000 HD
ATOM     36  H   UNL     1      51.321   0.614  16.439  0.00  0.00    +0.000 HD
ENDBRANCH  28  29
ENDBRANCH  27  28
ENDBRANCH  24  27
ENDBRANCH  20  21
ENDBRANCH   1  20
TORSDOF 9
ENDMDL
MODEL 2
REMARK VINA RESULT:    -7.038      1.629      2.410
REMARK INTER + INTRA:         -11.939
REMARK INTER:                 -10.750
REMARK INTRA:                  -1.189
REMARK UNBOUND:                -1.403
REMARK  Name = 
REMARK  9 active torsions:
REMARK  status: ('A' for Active; 'I' for Inactive)
REMARK    1  A    between atoms: N_1  and  C_2
REMARK    2  A    between atoms: C_2  and  C_3
REMARK    3  A    between atoms: C_3  and  N_4
REMARK    4  A    between atoms: N_4  and  C_5
REMARK    5  A    between atoms: C_5  and  C_6
REMARK    6  A    between atoms: C_9  and  C_10
REMARK    7  A    between atoms: C_10  and  C_11
REMARK    8  A    between atoms: C_11  and  N_12
REMARK    9  A    between atoms: C_20  and  C_22
REMARK                            x       y       z     vdW  Elec       q    Type
REMARK                         _______ _______ _______ _____ _____    ______ ____
ROOT
ATOM      1  N   UNL     1      46.296   7.530  12.317  0.00  0.00    +0.000 N 
ATOM      2  C   UNL     1      45.148   7.326  11.518  0.00  0.00    +0.000 C 
ATOM      3  O   UNL     1      44.277   8.190  11.426  0.00  0.00    +0.000 OA
ENDROOT
BRANCH   2   4
ATOM      4  C   UNL     1      44.974   6.049  10.798  0.00  0.00    +0.000 A 
ATOM      5  C   UNL     1      45.540   5.740   9.570  0.00  0.00    +0.000 A 
ATOM      6  S   UNL     1      45.196   4.157   9.027  0.00  0.00    +0.000 S 
ATOM      7  C   UNL     1      44.404   3.780  10.488  0.00  0.00    +0.000 A 
ATOM      8  N   UNL     1      43.948   2.520  10.726  0.00  0.00    +0.000 NA
ATOM      9  C   UNL     1      43.421   2.365  11.893  0.00  0.00    +0.000 A 
ATOM     10  N   UNL     1      43.276   3.363  12.827  0.00  0.00    +0.000 N 
ATOM     11  C   UNL     1      43.608   4.679  12.577  0.00  0.00    +0.000 A 
ATOM     12  O   UNL     1      43.261   5.572  13.333  0.00  0.00    +0.000 OA
ATOM     13  C   UNL     1      44.316   4.874  11.323  0.00  0.00    +0.000 A 
ATOM     14  H   UNL     1      42.794   3.191  13.693  0.00  0.00    +0.000 HD
ENDBRANCH   2   4
BRANCH   1  15
ATOM     15  C   UNL     1      46.403   8.825  13.013  0.00  0.00    +0.000 C 
BRANCH  15  16
ATOM     16  C   UNL     1      47.195   9.907  12.247  0.00  0.00    +0.000 C 
BRANCH  16  17
ATOM     17  N   UNL     1      46.407  11.135  12.074  0.00  0.00    +0.000 NA
ATOM     18  H   UNL     1      46.680  11.593  11.204  0.00  0.00    +0.000 HD
ATOM     19  H   UNL     1      46.658  11.793  12.816  0.00  0.00    +0.000 HD
ENDBRANCH  16  17
ENDBRANCH  15  16
ENDBRANCH   1  15
BRANCH   1  20
ATOM     20  C   UNL     1      47.354   6.527  12.415  0.00  0.00    +0.000 C 
BRANCH  20  21
ATOM     21  C   UNL     1      47.578   5.727  13.663  0.00  0.00    +0.000 A 
ATOM     22  C   UNL     1      48.292   6.255  14.744  0.00  0.00    +0.000 A 
ATOM     23  C   UNL     1      48.253   5.612  15.980  0.00  0.00    +0.000 A 
ATOM     24  C   UNL     1      47.523   4.435  16.104  0.00  0.00    +0.000 A 
ATOM     25  N   UNL     1      46.869   3.881  15.053  0.00  0.00    +0.000 NA
ATOM     26  C   UNL     1      46.919   4.523  13.866  0.00  0.00    +0.000 A 
BRANCH  24  27
ATOM     27  C   UNL     1      47.336   3.801  17.464  0.00  0.00    +0.000 C 
BRANCH  27  28
ATOM     28  C   UNL     1      48.383   2.723  17.734  0.00  0.00    +0.000 C 
BRANCH  28  29
ATOM     29  N   UNL     1      49.722   3.281  17.869  0.00  0.00    +0.000 N 
ATOM     30  C   UNL     1      50.822   2.510  17.743  0.00  0.00    +0.000 C 
ATOM     31  N   UNL     1      50.917   1.378  17.114  0.00  0.00    +0.000 NA
ATOM     32  C   UNL     1      52.312   0.936  17.358  0.00  0.00    +0.000 C 
ATOM     33  C   UNL     1      52.976   2.007  18.230  0.00  0.00    +0.000 C 
ATOM     34  N   UNL     1      51.928   2.998  18.363  0.00  0.00    +0.000 N 
ATOM     35  H   UNL     1      49.794   4.053  18.515  0.00  0.00    +0.000 HD
ATOM     36  H   UNL     1      51.769   3.324  19.307  0.00  0.00    +0.000 HD
ENDBRANCH  28  29
ENDBRANCH  27  28
ENDBRANCH  24  27
ENDBRANCH  20  21
ENDBRANCH   1  20
TORSDOF 9
ENDMDL
MODEL 3
REMARK VINA RESULT:    -6.843      2.423      3.697
REMARK INTER + INTRA:         -11.646
REMARK INTER:                 -10.023
REMARK INTRA:                  -1.623
REMARK UNBOUND:                -1.403
REMARK  Name = 
REMARK  9 active torsions:
REMARK  status: ('A' for Active; 'I' for Inactive)
REMARK    1  A    between atoms: N_1  and  C_2
REMARK    2  A    between atoms: C_2  and  C_3
REMARK    3  A    between atoms: C_3  and  N_4
REMARK    4  A    between atoms: N_4  and  C_5
REMARK    5  A    between atoms: C_5  and  C_6
REMARK    6  A    between atoms: C_9  and  C_10
REMARK    7  A    between atoms: C_10  and  C_11
REMARK    8  A    between atoms: C_11  and  N_12
REMARK    9  A    between atoms: C_20  and  C_22
REMARK                            x       y       z     vdW  Elec       q    Type
REMARK                         _______ _______ _______ _____ _____    ______ ____
ROOT
ATOM      1  N   UNL     1      46.282   7.224  12.067  0.00  0.00    +0.000 N 
ATOM      2  C   UNL     1      44.994   6.892  11.588  0.00  0.00    +0.000 C 
ATOM      3  O   UNL     1      44.204   7.765  11.233  0.00  0.00    +0.000 OA
ENDROOT
BRANCH   2   4
ATOM      4  C   UNL     1      44.576   5.477  11.532  0.00  0.00    +0.000 A 
ATOM      5  C   UNL     1      43.796   4.837  12.483  0.00  0.00    +0.000 A 
ATOM      6  S   UNL     1      43.434   3.211  12.101  0.00  0.00    +0.000 S 
ATOM      7  C   UNL     1      44.182   3.355  10.577  0.00  0.00    +0.000 A 
ATOM      8  N   UNL     1      44.140   2.330   9.683  0.00  0.00    +0.000 NA
ATOM      9  C   UNL     1      44.698   2.599   8.551  0.00  0.00    +0.000 A 
ATOM     10  N   UNL     1      45.326   3.783   8.248  0.00  0.00    +0.000 N 
ATOM     11  C   UNL     1      45.503   4.796   9.168  0.00  0.00    +0.000 A 
ATOM     12  O   UNL     1      46.254   5.731   8.941  0.00  0.00    +0.000 OA
ATOM     13  C   UNL     1      44.784   4.585  10.414  0.00  0.00    +0.000 A 
ATOM     14  H   UNL     1      45.801   3.903   7.370  0.00  0.00    +0.000 HD
ENDBRANCH   2   4
BRANCH   1  15
ATOM     15  C   UNL     1      46.632   8.656  12.103  0.00  0.00    +0.000 C 
BRANCH  15  16
ATOM     16  C   UNL     1      48.148   8.951  12.090  0.00  0.00    +0.000 C 
BRANCH  16  17
ATOM     17  N   UNL     1      48.457  10.170  11.331  0.00  0.00    +0.000 NA
ATOM     18  H   UNL     1      47.801  10.907  11.592  0.00  0.00    +0.000 HD
ATOM     19  H   UNL     1      48.283   9.992  10.339  0.00  0.00    +0.000 HD
ENDBRANCH  16  17
ENDBRANCH  15  16
ENDBRANCH   1  15
BRANCH   1  20
ATOM     20  C   UNL     1      47.244   6.199  12.465  0.00  0.00    +0.000 C 
BRANCH  20  21
ATOM     21  C   UNL     1      47.425   5.791  13.896  0.00  0.00    +0.000 A 
ATOM     22  C   UNL     1      46.776   4.667  14.417  0.00  0.00    +0.000 A 
ATOM     23  C   UNL     1      47.166   4.153  15.653  0.00  0.00    +0.000 A 
ATOM     24  C   UNL     1      48.180   4.792  16.359  0.00  0.00    +0.000 A 
ATOM     25  N   UNL     1      48.783   5.914  15.893  0.00  0.00    +0.000 NA
ATOM     26  C   UNL     1      48.389   6.393  14.692  0.00  0.00    +0.000 A 
BRANCH  24  27
ATOM     27  C   UNL     1      48.729   4.171  17.623  0.00  0.00    +0.000 C 
BRANCH  27  28
ATOM     28  C   UNL     1      48.530   5.082  18.833  0.00  0.00    +0.000 C 
BRANCH  28  29
ATOM     29  N   UNL     1      47.632   6.191  18.541  0.00  0.00    +0.000 N 
ATOM     30  C   UNL     1      47.994   7.471  18.776  0.00  0.00    +0.000 C 
ATOM     31  N   UNL     1      49.202   7.939  18.861  0.00  0.00    +0.000 NA
ATOM     32  C   UNL     1      49.018   9.372  19.202  0.00  0.00    +0.000 C 
ATOM     33  C   UNL     1      47.509   9.620  19.297  0.00  0.00    +0.000 C 
ATOM     34  N   UNL     1      46.955   8.329  18.945  0.00  0.00    +0.000 N 
ATOM     35  H   UNL     1      46.651   5.981  18.654  0.00  0.00    +0.000 HD
ATOM     36  H   UNL     1      46.231   7.994  19.566  0.00  0.00    +0.000 HD
ENDBRANCH  28  29
ENDBRANCH  27  28
ENDBRANCH  24  27
ENDBRANCH  20  21
ENDBRANCH   1  20
TORSDOF 9
ENDMDL
MODEL 4
REMARK VINA RESULT:    -6.735      4.004      8.193
REMARK INTER + INTRA:         -11.485
REMARK INTER:                  -9.964
REMARK INTRA:                  -1.521
REMARK UNBOUND:                -1.403
REMARK  Name = 
REMARK  9 active torsions:
REMARK  status: ('A' for Active; 'I' for Inactive)
REMARK    1  A    between atoms: N_1  and  C_2
REMARK    2  A    between atoms: C_2  and  C_3
REMARK    3  A    between atoms: C_3  and  N_4
REMARK    4  A    between atoms: N_4  and  C_5
REMARK    5  A    between atoms: C_5  and  C_6
REMARK    6  A    between atoms: C_9  and  C_10
REMARK    7  A    between atoms: C_10  and  C_11
REMARK    8  A    between atoms: C_11  and  N_12
REMARK    9  A    between atoms: C_20  and  C_22
REMARK                            x       y       z     vdW  Elec       q    Type
REMARK                         _______ _______ _______ _____ _____    ______ ____
ROOT
ATOM      1  N   UNL     1      49.124   7.695  13.685  0.00  0.00    +0.000 N 
ATOM      2  C   UNL     1      49.921   7.888  14.837  0.00  0.00    +0.000 C 
ATOM      3  O   UNL     1      51.141   7.739  14.797  0.00  0.00    +0.000 OA
ENDROOT
BRANCH   2   4
ATOM      4  C   UNL     1      49.281   8.250  16.117  0.00  0.00    +0.000 A 
ATOM      5  C   UNL     1      49.000   9.543  16.531  0.00  0.00    +0.000 A 
ATOM      6  S   UNL     1      48.202   9.629  18.040  0.00  0.00    +0.000 S 
ATOM      7  C   UNL     1      48.071   7.932  18.118  0.00  0.00    +0.000 A 
ATOM      8  N   UNL     1      47.388   7.334  19.131  0.00  0.00    +0.000 NA
ATOM      9  C   UNL     1      47.323   6.049  19.033  0.00  0.00    +0.000 A 
ATOM     10  N   UNL     1      47.910   5.308  18.035  0.00  0.00    +0.000 N 
ATOM     11  C   UNL     1      48.717   5.864  17.064  0.00  0.00    +0.000 A 
ATOM     12  O   UNL     1      49.401   5.164  16.335  0.00  0.00    +0.000 OA
ATOM     13  C   UNL     1      48.717   7.317  17.066  0.00  0.00    +0.000 A 
ATOM     14  H   UNL     1      47.878   4.303  18.055  0.00  0.00    +0.000 HD
ENDBRANCH   2   4
BRANCH   1  15
ATOM     15  C   UNL     1      49.827   7.327  12.442  0.00  0.00    +0.000 C 
BRANCH  15  16
ATOM     16  C   UNL     1      50.692   8.453  11.832  0.00  0.00    +0.000 C 
BRANCH  16  17
ATOM     17  N   UNL     1      52.121   8.116  11.865  0.00  0.00    +0.000 NA
ATOM     18  H   UNL     1      52.420   7.816  10.937  0.00  0.00    +0.000 HD
ATOM     19  H   UNL     1      52.253   7.302  12.469  0.00  0.00    +0.000 HD
ENDBRANCH  16  17
ENDBRANCH  15  16
ENDBRANCH   1  15
BRANCH   1  20
ATOM     20  C   UNL     1      47.677   7.895  13.706  0.00  0.00    +0.000 C 
BRANCH  20  21
ATOM     21  C   UNL     1      46.719   6.812  13.314  0.00  0.00    +0.000 A 
ATOM     22  C   UNL     1      46.913   5.489  13.724  0.00  0.00    +0.000 A 
ATOM     23  C   UNL     1      45.882   4.562  13.584  0.00  0.00    +0.000 A 
ATOM     24  C   UNL     1      44.683   4.969  13.008  0.00  0.00    +0.000 A 
ATOM     25  N   UNL     1      44.497   6.234  12.555  0.00  0.00    +0.000 NA
ATOM     26  C   UNL     1      45.510   7.116  12.704  0.00  0.00    +0.000 A 
BRANCH  24  27
ATOM     27  C   UNL     1      43.497   4.031  12.984  0.00  0.00    +0.000 C 
BRANCH  27  28
ATOM     28  C   UNL     1      43.143   3.604  11.562  0.00  0.00    +0.000 C 
BRANCH  28  29
ATOM     29  N   UNL     1      44.125   2.684  11.005  0.00  0.00    +0.000 N 
ATOM     30  C   UNL     1      44.819   2.986   9.887  0.00  0.00    +0.000 C 
ATOM     31  N   UNL     1      45.058   4.170   9.410  0.00  0.00    +0.000 NA
ATOM     32  C   UNL     1      45.786   3.917   8.142  0.00  0.00    +0.000 C 
ATOM     33  C   UNL     1      45.908   2.397   7.992  0.00  0.00    +0.000 C 
ATOM     34  N   UNL     1      45.295   1.910   9.210  0.00  0.00    +0.000 N 
ATOM     35  H   UNL     1      43.913   1.707  11.144  0.00  0.00    +0.000 HD
ATOM     36  H   UNL     1      44.623   1.166   9.079  0.00  0.00    +0.000 HD
ENDBRANCH  28  29
ENDBRANCH  27  28
ENDBRANCH  24  27
ENDBRANCH  20  21
ENDBRANCH   1  20
TORSDOF 9
ENDMDL
MODEL 5
REMARK VINA RESULT:    -6.673      3.022      8.130
REMARK INTER + INTRA:         -11.393
REMARK INTER:                 -10.173
REMARK INTRA:                  -1.219
REMARK UNBOUND:                -1.403
REMARK  Name = 
REMARK  9 active torsions:
REMARK  status: ('A' for Active; 'I' for Inactive)
REMARK    1  A    between atoms: N_1  and  C_2
REMARK    2  A    between atoms: C_2  and  C_3
REMARK    3  A    between atoms: C_3  and  N_4
REMARK    4  A    between atoms: N_4  and  C_5
REMARK    5  A    between atoms: C_5  and  C_6
REMARK    6  A    between atoms: C_9  and  C_10
REMARK    7  A    between atoms: C_10  and  C_11
REMARK    8  A    between atoms: C_11  and  N_12
REMARK    9  A    between atoms: C_20  and  C_22
REMARK                            x       y       z     vdW  Elec       q    Type
REMARK                         _______ _______ _______ _____ _____    ______ ____
ROOT
ATOM      1  N   UNL     1      48.637   7.496  15.712  0.00  0.00    +0.000 N 
ATOM      2  C   UNL     1      48.516   6.982  17.023  0.00  0.00    +0.000 C 
ATOM      3  O   UNL     1      48.469   7.731  17.997  0.00  0.00    +0.000 OA
ENDROOT
BRANCH   2   4
ATOM      4  C   UNL     1      48.468   5.522  17.236  0.00  0.00    +0.000 A 
ATOM      5  C   UNL     1      47.323   4.742  17.169  0.00  0.00    +0.000 A 
ATOM      6  S   UNL     1      47.606   3.073  17.405  0.00  0.00    +0.000 S 
ATOM      7  C   UNL     1      49.291   3.321  17.453  0.00  0.00    +0.000 A 
ATOM      8  N   UNL     1      50.146   2.265  17.535  0.00  0.00    +0.000 NA
ATOM      9  C   UNL     1      51.393   2.597  17.506  0.00  0.00    +0.000 A 
ATOM     10  N   UNL     1      51.860   3.888  17.442  0.00  0.00    +0.000 N 
ATOM     11  C   UNL     1      51.030   4.989  17.488  0.00  0.00    +0.000 A 
ATOM     12  O   UNL     1      51.478   6.112  17.657  0.00  0.00    +0.000 OA
ATOM     13  C   UNL     1      49.617   4.659  17.396  0.00  0.00    +0.000 A 
ATOM     14  H   UNL     1      52.845   4.081  17.492  0.00  0.00    +0.000 HD
ENDBRANCH   2   4
BRANCH   1  15
ATOM     15  C   UNL     1      48.687   8.963  15.573  0.00  0.00    +0.000 C 
BRANCH  15  16
ATOM     16  C   UNL     1      49.191   9.465  14.202  0.00  0.00    +0.000 C 
BRANCH  16  17
ATOM     17  N   UNL     1      48.261  10.431  13.603  0.00  0.00    +0.000 NA
ATOM     18  H   UNL     1      48.140  10.215  12.613  0.00  0.00    +0.000 HD
ATOM     19  H   UNL     1      48.690  11.359  13.627  0.00  0.00    +0.000 HD
ENDBRANCH  16  17
ENDBRANCH  15  16
ENDBRANCH   1  15
BRANCH   1  20
ATOM     20  C   UNL     1      48.665   6.623  14.541  0.00  0.00    +0.000 C 
BRANCH  20  21
ATOM     21  C   UNL     1      47.416   6.232  13.811  0.00  0.00    +0.000 A 
ATOM     22  C   UNL     1      46.960   4.910  13.809  0.00  0.00    +0.000 A 
ATOM     23  C   UNL     1      45.671   4.621  13.364  0.00  0.00    +0.000 A 
ATOM     24  C   UNL     1      44.870   5.660  12.901  0.00  0.00    +0.000 A 
ATOM     25  N   UNL     1      45.315   6.940  12.846  0.00  0.00    +0.000 NA
ATOM     26  C   UNL     1      46.567   7.195  13.284  0.00  0.00    +0.000 A 
BRANCH  24  27
ATOM     27  C   UNL     1      43.420   5.402  12.559  0.00  0.00    +0.000 C 
BRANCH  27  28
ATOM     28  C   UNL     1      43.271   4.265  11.551  0.00  0.00    +0.000 C 
BRANCH  28  29
ATOM     29  N   UNL     1      43.661   4.670  10.207  0.00  0.00    +0.000 N 
ATOM     30  C   UNL     1      44.428   3.878   9.428  0.00  0.00    +0.000 C 
ATOM     31  N   UNL     1      44.571   2.591   9.521  0.00  0.00    +0.000 NA
ATOM     32  C   UNL     1      45.574   2.256   8.480  0.00  0.00    +0.000 C 
ATOM     33  C   UNL     1      45.968   3.569   7.797  0.00  0.00    +0.000 C 
ATOM     34  N   UNL     1      45.117   4.536   8.460  0.00  0.00    +0.000 N 
ATOM     35  H   UNL     1      43.784   5.664  10.086  0.00  0.00    +0.000 HD
ATOM     36  H   UNL     1      45.591   5.372   8.777  0.00  0.00    +0.000 HD
ENDBRANCH  28  29
ENDBRANCH  27  28
ENDBRANCH  24  27
ENDBRANCH  20  21
ENDBRANCH   1  20
TORSDOF 9
ENDMDL
MODEL 6
REMARK VINA RESULT:    -6.160      3.892      8.809
REMARK INTER + INTRA:         -10.623
REMARK INTER:                  -9.210
REMARK INTRA:                  -1.413
REMARK UNBOUND:                -1.403
REMARK  Name = 
REMARK  9 active torsions:
REMARK  status: ('A' for Active; 'I' for Inactive)
REMARK    1  A    between atoms: N_1  and  C_2
REMARK    2  A    between atoms: C_2  and  C_3
REMARK    3  A    between atoms: C_3  and  N_4
REMARK    4  A    between atoms: N_4  and  C_5
REMARK    5  A    between atoms: C_5  and  C_6
REMARK    6  A    between atoms: C_9  and  C_10
REMARK    7  A    between atoms: C_10  and  C_11
REMARK    8  A    between atoms: C_11  and  N_12
REMARK    9  A    between atoms: C_20  and  C_22
REMARK                            x       y       z     vdW  Elec       q    Type
REMARK                         _______ _______ _______ _____ _____    ______ ____
ROOT
ATOM      1  N   UNL     1      48.304   5.844  16.719  0.00  0.00    +0.000 N 
ATOM      2  C   UNL     1      48.999   7.017  17.092  0.00  0.00    +0.000 C 
ATOM      3  O   UNL     1      48.878   7.494  18.220  0.00  0.00    +0.000 OA
ENDROOT
BRANCH   2   4
ATOM      4  C   UNL     1      49.865   7.699  16.111  0.00  0.00    +0.000 A 
ATOM      5  C   UNL     1      49.513   8.824  15.381  0.00  0.00    +0.000 A 
ATOM      6  S   UNL     1      50.759   9.411  14.370  0.00  0.00    +0.000 S 
ATOM      7  C   UNL     1      51.861   8.268  14.988  0.00  0.00    +0.000 A 
ATOM      8  N   UNL     1      53.169   8.288  14.610  0.00  0.00    +0.000 NA
ATOM      9  C   UNL     1      53.898   7.402  15.199  0.00  0.00    +0.000 A 
ATOM     10  N   UNL     1      53.432   6.476  16.102  0.00  0.00    +0.000 N 
ATOM     11  C   UNL     1      52.095   6.340  16.415  0.00  0.00    +0.000 A 
ATOM     12  O   UNL     1      51.687   5.373  17.039  0.00  0.00    +0.000 OA
ATOM     13  C   UNL     1      51.257   7.395  15.868  0.00  0.00    +0.000 A 
ATOM     14  H   UNL     1      54.042   5.769  16.475  0.00  0.00    +0.000 HD
ENDBRANCH   2   4
BRANCH   1  15
ATOM     15  C   UNL     1      47.450   5.219  17.746  0.00  0.00    +0.000 C 
BRANCH  15  16
ATOM     16  C   UNL     1      47.770   3.736  18.036  0.00  0.00    +0.000 C 
BRANCH  16  17
ATOM     17  N   UNL     1      46.659   2.856  17.648  0.00  0.00    +0.000 NA
ATOM     18  H   UNL     1      47.029   1.950  17.361  0.00  0.00    +0.000 HD
ATOM     19  H   UNL     1      46.211   3.241  16.813  0.00  0.00    +0.000 HD
ENDBRANCH  16  17
ENDBRANCH  15  16
ENDBRANCH   1  15
BRANCH   1  20
ATOM     20  C   UNL     1      48.456   5.247  15.394  0.00  0.00    +0.000 C 
BRANCH  20  21
ATOM     21  C   UNL     1      47.415   5.404  14.327  0.00  0.00    +0.000 A 
ATOM     22  C   UNL     1      46.399   4.458  14.160  0.00  0.00    +0.000 A 
ATOM     23  C   UNL     1      45.299   4.756  13.357  0.00  0.00    +0.000 A 
ATOM     24  C   UNL     1      45.250   5.988  12.712  0.00  0.00    +0.000 A 
ATOM     25  N   UNL     1      46.252   6.896  12.821  0.00  0.00    +0.000 NA
ATOM     26  C   UNL     1      47.307   6.585  13.606  0.00  0.00    +0.000 A 
BRANCH  24  27
ATOM     27  C   UNL     1      44.003   6.401  11.964  0.00  0.00    +0.000 C 
BRANCH  27  28
ATOM     28  C   UNL     1      43.346   5.214  11.263  0.00  0.00    +0.000 C 
BRANCH  28  29
ATOM     29  N   UNL     1      43.769   5.095   9.874  0.00  0.00    +0.000 N 
ATOM     30  C   UNL     1      44.299   3.950   9.395  0.00  0.00    +0.000 C 
ATOM     31  N   UNL     1      44.141   2.753   9.873  0.00  0.00    +0.000 NA
ATOM     32  C   UNL     1      44.997   1.897   9.016  0.00  0.00    +0.000 C 
ATOM     33  C   UNL     1      45.661   2.815   7.985  0.00  0.00    +0.000 C 
ATOM     34  N   UNL     1      45.086   4.107   8.299  0.00  0.00    +0.000 N 
ATOM     35  H   UNL     1      44.117   5.949   9.465  0.00  0.00    +0.000 HD
ATOM     36  H   UNL     1      45.753   4.864   8.367  0.00  0.00    +0.000 HD
ENDBRANCH  28  29
ENDBRANCH  27  28
ENDBRANCH  24  27
ENDBRANCH  20  21
ENDBRANCH   1  20
TORSDOF 9
ENDMDL
MODEL 7
REMARK VINA RESULT:    -6.023      3.699      4.935
REMARK INTER + INTRA:         -10.419
REMARK INTER:                  -9.109
REMARK INTRA:                  -1.310
REMARK UNBOUND:                -1.403
REMARK  Name = 
REMARK  9 active torsions:
REMARK  status: ('A' for Active; 'I' for Inactive)
REMARK    1  A    between atoms: N_1  and  C_2
REMARK    2  A    between atoms: C_2  and  C_3
REMARK    3  A    between atoms: C_3  and  N_4
REMARK    4  A    between atoms: N_4  and  C_5
REMARK    5  A    between atoms: C_5  and  C_6
REMARK    6  A    between atoms: C_9  and  C_10
REMARK    7  A    between atoms: C_10  and  C_11
REMARK    8  A    between atoms: C_11  and  N_12
REMARK    9  A    between atoms: C_20  and  C_22
REMARK                            x       y       z     vdW  Elec       q    Type
REMARK                         _______ _______ _______ _____ _____    ______ ____
ROOT
ATOM      1  N   UNL     1      45.184   6.825  12.468  0.00  0.00    +0.000 N 
ATOM      2  C   UNL     1      44.105   6.276  11.737  0.00  0.00    +0.000 C 
ATOM      3  O   UNL     1      43.172   6.982  11.358  0.00  0.00    +0.000 OA
ENDROOT
BRANCH   2   4
ATOM      4  C   UNL     1      44.081   4.830  11.440  0.00  0.00    +0.000 A 
ATOM      5  C   UNL     1      43.361   3.882  12.150  0.00  0.00    +0.000 A 
ATOM      6  S   UNL     1      43.494   2.298  11.522  0.00  0.00    +0.000 S 
ATOM      7  C   UNL     1      44.399   2.855  10.190  0.00  0.00    +0.000 A 
ATOM      8  N   UNL     1      44.758   2.004   9.190  0.00  0.00    +0.000 NA
ATOM      9  C   UNL     1      45.391   2.573   8.220  0.00  0.00    +0.000 A 
ATOM     10  N   UNL     1      45.728   3.905   8.177  0.00  0.00    +0.000 N 
ATOM     11  C   UNL     1      45.496   4.772   9.226  0.00  0.00    +0.000 A 
ATOM     12  O   UNL     1      46.004   5.881   9.252  0.00  0.00    +0.000 OA
ATOM     13  C   UNL     1      44.679   4.202  10.284  0.00  0.00    +0.000 A 
ATOM     14  H   UNL     1      46.282   4.272   7.422  0.00  0.00    +0.000 HD
ENDBRANCH   2   4
BRANCH   1  15
ATOM     15  C   UNL     1      45.140   8.274  12.736  0.00  0.00    +0.000 C 
BRANCH  15  16
ATOM     16  C   UNL     1      45.462   9.165  11.516  0.00  0.00    +0.000 C 
BRANCH  16  17
ATOM     17  N   UNL     1      44.240   9.675  10.879  0.00  0.00    +0.000 NA
ATOM     18  H   UNL     1      43.917   9.005  10.181  0.00  0.00    +0.000 HD
ATOM     19  H   UNL     1      44.472  10.522  10.354  0.00  0.00    +0.000 HD
ENDBRANCH  16  17
ENDBRANCH  15  16
ENDBRANCH   1  15
BRANCH   1  20
ATOM     20  C   UNL     1      46.315   6.008  12.902  0.00  0.00    +0.000 C 
BRANCH  20  21
ATOM     21  C   UNL     1      47.719   6.532  12.906  0.00  0.00    +0.000 A 
ATOM     22  C   UNL     1      48.295   7.069  11.751  0.00  0.00    +0.000 A 
ATOM     23  C   UNL     1      49.484   7.792  11.840  0.00  0.00    +0.000 A 
ATOM     24  C   UNL     1      50.089   7.940  13.084  0.00  0.00    +0.000 A 
ATOM     25  N   UNL     1      49.572   7.382  14.206  0.00  0.00    +0.000 NA
ATOM     26  C   UNL     1      48.419   6.687  14.094  0.00  0.00    +0.000 A 
BRANCH  24  27
ATOM     27  C   UNL     1      51.290   8.846  13.237  0.00  0.00    +0.000 C 
BRANCH  27  28
ATOM     28  C   UNL     1      52.086   8.954  11.939  0.00  0.00    +0.000 C 
BRANCH  28  29
ATOM     29  N   UNL     1      52.962   7.808  11.736  0.00  0.00    +0.000 N 
ATOM     30  C   UNL     1      53.181   7.297  10.506  0.00  0.00    +0.000 C 
ATOM     31  N   UNL     1      53.046   7.909   9.369  0.00  0.00    +0.000 NA
ATOM     32  C   UNL     1      53.337   6.868   8.353  0.00  0.00    +0.000 C 
ATOM     33  C   UNL     1      53.652   5.575   9.113  0.00  0.00    +0.000 C 
ATOM     34  N   UNL     1      53.573   5.997  10.496  0.00  0.00    +0.000 N 
ATOM     35  H   UNL     1      52.975   7.147  12.499  0.00  0.00    +0.000 HD
ATOM     36  H   UNL     1      53.029   5.390  11.095  0.00  0.00    +0.000 HD
ENDBRANCH  28  29
ENDBRANCH  27  28
ENDBRANCH  24  27
ENDBRANCH  20  21
ENDBRANCH   1  20
TORSDOF 9
ENDMDL
MODEL 8
REMARK VINA RESULT:    -5.857      4.378      9.447
REMARK INTER + INTRA:         -10.170
REMARK INTER:                  -8.925
REMARK INTRA:                  -1.245
REMARK UNBOUND:                -1.403
REMARK  Name = 
REMARK  9 active torsions:
REMARK  status: ('A' for Active; 'I' for Inactive)
REMARK    1  A    between atoms: N_1  and  C_2
REMARK    2  A    between atoms: C_2  and  C_3
REMARK    3  A    between atoms: C_3  and  N_4
REMARK    4  A    between atoms: N_4  and  C_5
REMARK    5  A    between atoms: C_5  and  C_6
REMARK    6  A    between atoms: C_9  and  C_10
REMARK    7  A    between atoms: C_10  and  C_11
REMARK    8  A    between atoms: C_11  and  N_12
REMARK    9  A    between atoms: C_20  and  C_22
REMARK                            x       y       z     vdW  Elec       q    Type
REMARK                         _______ _______ _______ _____ _____    ______ ____
ROOT
ATOM      1  N   UNL     1      48.865   6.131  16.581  0.00  0.00    +0.000 N 
ATOM      2  C   UNL     1      48.741   6.885  17.771  0.00  0.00    +0.000 C 
ATOM      3  O   UNL     1      48.491   6.339  18.845  0.00  0.00    +0.000 OA
ENDROOT
BRANCH   2   4
ATOM      4  C   UNL     1      48.889   8.353  17.727  0.00  0.00    +0.000 A 
ATOM      5  C   UNL     1      47.881   9.247  17.399  0.00  0.00    +0.000 A 
ATOM      6  S   UNL     1      48.352  10.887  17.497  0.00  0.00    +0.000 S 
ATOM      7  C   UNL     1      49.876  10.458  18.128  0.00  0.00    +0.000 A 
ATOM      8  N   UNL     1      50.754  11.416  18.534  0.00  0.00    +0.000 NA
ATOM      9  C   UNL     1      51.843  10.947  19.042  0.00  0.00    +0.000 A 
ATOM     10  N   UNL     1      52.148   9.610  19.147  0.00  0.00    +0.000 N 
ATOM     11  C   UNL     1      51.343   8.615  18.632  0.00  0.00    +0.000 A 
ATOM     12  O   UNL     1      51.742   7.465  18.538  0.00  0.00    +0.000 OA
ATOM     13  C   UNL     1      50.053   9.092  18.162  0.00  0.00    +0.000 A 
ATOM     14  H   UNL     1      53.044   9.313  19.492  0.00  0.00    +0.000 HD
ENDBRANCH   2   4
BRANCH   1  15
ATOM     15  C   UNL     1      48.698   4.671  16.697  0.00  0.00    +0.000 C 
BRANCH  15  16
ATOM     16  C   UNL     1      47.232   4.186  16.682  0.00  0.00    +0.000 C 
BRANCH  16  17
ATOM     17  N   UNL     1      46.725   3.952  18.041  0.00  0.00    +0.000 NA
ATOM     18  H   UNL     1      45.709   3.861  18.013  0.00  0.00    +0.000 HD
ATOM     19  H   UNL     1      46.906   4.784  18.607  0.00  0.00    +0.000 HD
ENDBRANCH  16  17
ENDBRANCH  15  16
ENDBRANCH   1  15
BRANCH   1  20
ATOM     20  C   UNL     1      49.190   6.759  15.303  0.00  0.00    +0.000 C 
BRANCH  20  21
ATOM     21  C   UNL     1      48.190   6.862  14.191  0.00  0.00    +0.000 A 
ATOM     22  C   UNL     1      47.600   5.721  13.639  0.00  0.00    +0.000 A 
ATOM     23  C   UNL     1      46.486   5.848  12.810  0.00  0.00    +0.000 A 
ATOM     24  C   UNL     1      46.000   7.120  12.526  0.00  0.00    +0.000 A 
ATOM     25  N   UNL     1      46.592   8.240  13.010  0.00  0.00    +0.000 NA
ATOM     26  C   UNL     1      47.669   8.091  13.812  0.00  0.00    +0.000 A 
BRANCH  24  27
ATOM     27  C   UNL     1      44.707   7.282  11.760  0.00  0.00    +0.000 C 
BRANCH  27  28
ATOM     28  C   UNL     1      43.866   6.008  11.795  0.00  0.00    +0.000 C 
BRANCH  28  29
ATOM     29  N   UNL     1      43.538   5.529  10.459  0.00  0.00    +0.000 N 
ATOM     30  C   UNL     1      44.077   4.394   9.966  0.00  0.00    +0.000 C 
ATOM     31  N   UNL     1      44.562   3.399  10.645  0.00  0.00    +0.000 NA
ATOM     32  C   UNL     1      45.082   2.468   9.612  0.00  0.00    +0.000 C 
ATOM     33  C   UNL     1      44.808   3.111   8.249  0.00  0.00    +0.000 C 
ATOM     34  N   UNL     1      44.105   4.325   8.610  0.00  0.00    +0.000 N 
ATOM     35  H   UNL     1      43.346   6.257   9.787  0.00  0.00    +0.000 HD
ATOM     36  H   UNL     1      44.442   5.163   8.155  0.00  0.00    +0.000 HD
ENDBRANCH  28  29
ENDBRANCH  27  28
ENDBRANCH  24  27
ENDBRANCH  20  21
ENDBRANCH   1  20
TORSDOF 9
ENDMDL
MODEL 9
REMARK VINA RESULT:    -5.628      4.037      5.332
REMARK INTER + INTRA:          -9.828
REMARK INTER:                  -8.770
REMARK INTRA:                  -1.058
REMARK UNBOUND:                -1.403
REMARK  Name = 
REMARK  9 active torsions:
REMARK  status: ('A' for Active; 'I' for Inactive)
REMARK    1  A    between atoms: N_1  and  C_2
REMARK    2  A    between atoms: C_2  and  C_3
REMARK    3  A    between atoms: C_3  and  N_4
REMARK    4  A    between atoms: N_4  and  C_5
REMARK    5  A    between atoms: C_5  and  C_6
REMARK    6  A    between atoms: C_9  and  C_10
REMARK    7  A    between atoms: C_10  and  C_11
REMARK    8  A    between atoms: C_11  and  N_12
REMARK    9  A    between atoms: C_20  and  C_22
REMARK                            x       y       z     vdW  Elec       q    Type
REMARK                         _______ _______ _______ _____ _____    ______ ____
ROOT
ATOM      1  N   UNL     1      46.081   7.579  12.370  0.00  0.00    +0.000 N 
ATOM      2  C   UNL     1      44.977   7.332  11.523  0.00  0.00    +0.000 C 
ATOM      3  O   UNL     1      44.076   8.160  11.396  0.00  0.00    +0.000 OA
ENDROOT
BRANCH   2   4
ATOM      4  C   UNL     1      44.885   6.051  10.795  0.00  0.00    +0.000 A 
ATOM      5  C   UNL     1      45.527   5.764   9.600  0.00  0.00    +0.000 A 
ATOM      6  S   UNL     1      45.267   4.171   9.039  0.00  0.00    +0.000 S 
ATOM      7  C   UNL     1      44.408   3.765  10.454  0.00  0.00    +0.000 A 
ATOM      8  N   UNL     1      43.981   2.490  10.665  0.00  0.00    +0.000 NA
ATOM      9  C   UNL     1      43.395   2.316  11.802  0.00  0.00    +0.000 A 
ATOM     10  N   UNL     1      43.166   3.307  12.726  0.00  0.00    +0.000 N 
ATOM     11  C   UNL     1      43.468   4.633  12.495  0.00  0.00    +0.000 A 
ATOM     12  O   UNL     1      43.051   5.514  13.231  0.00  0.00    +0.000 OA
ATOM     13  C   UNL     1      44.238   4.854  11.282  0.00  0.00    +0.000 A 
ATOM     14  H   UNL     1      42.643   3.117  13.564  0.00  0.00    +0.000 HD
ENDBRANCH   2   4
BRANCH   1  15
ATOM     15  C   UNL     1      46.106   8.875  13.072  0.00  0.00    +0.000 C 
BRANCH  15  16
ATOM     16  C   UNL     1      46.435  10.089  12.176  0.00  0.00    +0.000 C 
BRANCH  16  17
ATOM     17  N   UNL     1      45.313  11.036  12.112  0.00  0.00    +0.000 NA
ATOM     18  H   UNL     1      45.554  11.882  12.628  0.00  0.00    +0.000 HD
ATOM     19  H   UNL     1      44.515  10.634  12.609  0.00  0.00    +0.000 HD
ENDBRANCH  16  17
ENDBRANCH  15  16
ENDBRANCH   1  15
BRANCH   1  20
ATOM     20  C   UNL     1      47.174   6.620  12.511  0.00  0.00    +0.000 C 
BRANCH  20  21
ATOM     21  C   UNL     1      48.604   7.055  12.627  0.00  0.00    +0.000 A 
ATOM     22  C   UNL     1      49.276   7.632  11.545  0.00  0.00    +0.000 A 
ATOM     23  C   UNL     1      50.497   8.272  11.750  0.00  0.00    +0.000 A 
ATOM     24  C   UNL     1      51.038   8.298  13.031  0.00  0.00    +0.000 A 
ATOM     25  N   UNL     1      50.425   7.697  14.082  0.00  0.00    +0.000 NA
ATOM     26  C   UNL     1      49.242   7.084  13.859  0.00  0.00    +0.000 A 
BRANCH  24  27
ATOM     27  C   UNL     1      52.279   9.115  13.313  0.00  0.00    +0.000 C 
BRANCH  27  28
ATOM     28  C   UNL     1      53.315   8.969  12.201  0.00  0.00    +0.000 C 
BRANCH  28  29
ATOM     29  N   UNL     1      53.711   7.582  11.999  0.00  0.00    +0.000 N 
ATOM     30  C   UNL     1      53.973   7.096  10.767  0.00  0.00    +0.000 C 
ATOM     31  N   UNL     1      54.323   7.774   9.717  0.00  0.00    +0.000 NA
ATOM     32  C   UNL     1      54.404   6.762   8.635  0.00  0.00    +0.000 C 
ATOM     33  C   UNL     1      54.036   5.411   9.256  0.00  0.00    +0.000 C 
ATOM     34  N   UNL     1      53.834   5.750  10.650  0.00  0.00    +0.000 N 
ATOM     35  H   UNL     1      53.311   6.929  12.657  0.00  0.00    +0.000 HD
ATOM     36  H   UNL     1      52.987   5.379  11.059  0.00  0.00    +0.000 HD
ENDBRANCH  28  29
ENDBRANCH  27  28
ENDBRANCH  24  27
ENDBRANCH  20  21
ENDBRANCH   1  20
TORSDOF 9
ENDMDL
