MODEL 1
REMARK VINA RESULT:    -7.115      0.000      0.000
REMARK INTER + INTRA:         -11.291
REMARK INTER:                 -10.027
REMARK INTRA:                  -1.264
REMARK UNBOUND:                -1.264
REMARK  Name = 
REMARK  9 active torsions:
REMARK  status: ('A' for Active; 'I' for Inactive)
REMARK    1  A    between atoms: C_1  and  O_2
REMARK    2  A    between atoms: O_2  and  C_3
REMARK    3  A    between atoms: C_10  and  C_11
REMARK    4  A    between atoms: N_13  and  C_14
REMARK    5  A    between atoms: C_14  and  C_15
REMARK    6  A    between atoms: C_18  and  N_19
REMARK    7  A    between atoms: N_19  and  C_20
REMARK    8  A    between atoms: C_20  and  C_21
REMARK    9  A    between atoms: N_24  and  C_25
REMARK                            x       y       z     vdW  Elec       q    Type
REMARK                         _______ _______ _______ _____ _____    ______ ____
ROOT
ATOM      1  C   UNL     1      49.090   7.347  13.734  0.00  0.00    +0.000 C 
ENDROOT
BRANCH   1   2
ATOM      2  C   UNL     1      47.921   6.633  13.112  0.00  0.00    +0.000 A 
ATOM      3  C   UNL     1      47.447   7.020  11.859  0.00  0.00    +0.000 A 
ATOM      4  C   UNL     1      46.393   6.329  11.255  0.00  0.00    +0.000 A 
ATOM      5  C   UNL     1      45.756   5.254  11.877  0.00  0.00    +0.000 A 
ATOM      6  C   UNL     1      46.225   4.891  13.149  0.00  0.00    +0.000 A 
ATOM      7  C   UNL     1      47.282   5.576  13.766  0.00  0.00    +0.000 A 
BRANCH   5   8
ATOM      8  N   UNL     1      44.796   4.458  11.269  0.00  0.00    +0.000 N 
ATOM      9  H   UNL     1      44.066   4.973  10.783  0.00  0.00    +0.000 HD
BRANCH   8  10
ATOM     10  C   UNL     1      45.035   3.110  10.775  0.00  0.00    +0.000 C 
BRANCH  10  11
ATOM     11  C   UNL     1      44.349   2.880   9.412  0.00  0.00    +0.000 C 
ATOM     12  C   UNL     1      44.712   1.541   8.752  0.00  0.00    +0.000 C 
ATOM     13  C   UNL     1      46.167   1.501   8.286  0.00  0.00    +0.000 C 
ATOM     14  N   UNL     1      46.452   2.595   7.348  0.00  0.00    +0.000 NA
ATOM     15  C   UNL     1      47.844   2.525   6.897  0.00  0.00    +0.000 C 
ATOM     16  C   UNL     1      46.160   3.912   7.926  0.00  0.00    +0.000 C 
ATOM     17  C   UNL     1      44.713   4.010   8.430  0.00  0.00    +0.000 C 
ENDBRANCH  10  11
ENDBRANCH   8  10
ENDBRANCH   5   8
ENDBRANCH   1   2
BRANCH   1  20
ATOM     18  C   UNL     1      50.312   7.163  15.850  0.00  0.00    +0.000 C 
ATOM     19  O   UNL     1      51.380   7.329  15.270  0.00  0.00    +0.000 OA
ATOM     20  N   UNL     1      49.129   7.153  15.160  0.00  0.00    +0.000 N 
ATOM     21  H   UNL     1      48.262   6.946  15.635  0.00  0.00    +0.000 HD
BRANCH  18  29
ATOM     22  C   UNL     1      48.950   4.737  17.894  0.00  0.00    +0.000 A 
ATOM     23  N   UNL     1      48.451   4.006  18.913  0.00  0.00    +0.000 NA
ATOM     24  C   UNL     1      48.648   4.439  20.160  0.00  0.00    +0.000 A 
ATOM     25  N   UNL     1      49.300   5.535  20.531  0.00  0.00    +0.000 NA
ATOM     26  C   UNL     1      49.770   6.244  19.488  0.00  0.00    +0.000 A 
ATOM     27  S   UNL     1      50.643   7.670  19.781  0.00  0.00    +0.000 S 
ATOM     28  C   UNL     1      50.844   7.949  18.118  0.00  0.00    +0.000 A 
ATOM     29  C   UNL     1      50.249   6.983  17.310  0.00  0.00    +0.000 A 
ATOM     30  C   UNL     1      49.637   5.943  18.138  0.00  0.00    +0.000 A 
BRANCH  22  32
ATOM     31  C   UNL     1      48.298   2.922  16.559  0.00  0.00    +0.000 C 
ATOM     32  O   UNL     1      48.797   4.257  16.610  0.00  0.00    +0.000 OA
ENDBRANCH  22  32
ENDBRANCH  18  29
ENDBRANCH   1  20
TORSDOF 7
ENDMDL
MODEL 2
REMARK VINA RESULT:    -6.785      1.944      2.125
REMARK INTER + INTRA:         -10.826
REMARK INTER:                  -9.660
REMARK INTRA:                  -1.166
REMARK UNBOUND:                -1.264
REMARK  Name = 
REMARK  9 active torsions:
REMARK  status: ('A' for Active; 'I' for Inactive)
REMARK    1  A    between atoms: C_1  and  O_2
REMARK    2  A    between atoms: O_2  and  C_3
REMARK    3  A    between atoms: C_10  and  C_11
REMARK    4  A    between atoms: N_13  and  C_14
REMARK    5  A    between atoms: C_14  and  C_15
REMARK    6  A    between atoms: C_18  and  N_19
REMARK    7  A    between atoms: N_19  and  C_20
REMARK    8  A    between atoms: C_20  and  C_21
REMARK    9  A    between atoms: N_24  and  C_25
REMARK                            x       y       z     vdW  Elec       q    Type
REMARK                         _______ _______ _______ _____ _____    ______ ____
ROOT
ATOM      1  C   UNL     1      48.072   8.431  13.868  0.00  0.00    +0.000 C 
ENDROOT
BRANCH   1   2
ATOM      2  C   UNL     1      47.250   7.401  13.142  0.00  0.00    +0.000 A 
ATOM      3  C   UNL     1      47.447   6.043  13.389  0.00  0.00    +0.000 A 
ATOM      4  C   UNL     1      46.652   5.083  12.754  0.00  0.00    +0.000 A 
ATOM      5  C   UNL     1      45.658   5.431  11.837  0.00  0.00    +0.000 A 
ATOM      6  C   UNL     1      45.487   6.799  11.579  0.00  0.00    +0.000 A 
ATOM      7  C   UNL     1      46.277   7.772  12.209  0.00  0.00    +0.000 A 
BRANCH   5   8
ATOM      8  N   UNL     1      44.762   4.530  11.281  0.00  0.00    +0.000 N 
ATOM      9  H   UNL     1      43.937   4.955  10.867  0.00  0.00    +0.000 HD
BRANCH   8  10
ATOM     10  C   UNL     1      45.131   3.233  10.731  0.00  0.00    +0.000 C 
BRANCH  10  11
ATOM     11  C   UNL     1      44.397   2.956   9.402  0.00  0.00    +0.000 C 
ATOM     12  C   UNL     1      44.706   1.578   8.797  0.00  0.00    +0.000 C 
ATOM     13  C   UNL     1      46.144   1.479   8.289  0.00  0.00    +0.000 C 
ATOM     14  N   UNL     1      46.425   2.520   7.290  0.00  0.00    +0.000 NA
ATOM     15  C   UNL     1      47.799   2.392   6.800  0.00  0.00    +0.000 C 
ATOM     16  C   UNL     1      46.183   3.869   7.812  0.00  0.00    +0.000 C 
ATOM     17  C   UNL     1      44.756   4.028   8.355  0.00  0.00    +0.000 C 
ENDBRANCH  10  11
ENDBRANCH   8  10
ENDBRANCH   5   8
ENDBRANCH   1   2
BRANCH   1  20
ATOM     18  C   UNL     1      48.342   9.334  16.129  0.00  0.00    +0.000 C 
ATOM     19  O   UNL     1      48.953  10.303  15.690  0.00  0.00    +0.000 OA
ATOM     20  N   UNL     1      47.875   8.357  15.292  0.00  0.00    +0.000 N 
ATOM     21  H   UNL     1      47.433   7.529  15.668  0.00  0.00    +0.000 HD
BRANCH  18  29
ATOM     22  C   UNL     1      48.174   6.617  18.252  0.00  0.00    +0.000 A 
ATOM     23  N   UNL     1      47.963   5.756  19.269  0.00  0.00    +0.000 NA
ATOM     24  C   UNL     1      47.596   6.251  20.453  0.00  0.00    +0.000 A 
ATOM     25  N   UNL     1      47.413   7.530  20.762  0.00  0.00    +0.000 NA
ATOM     26  C   UNL     1      47.618   8.356  19.720  0.00  0.00    +0.000 A 
ATOM     27  S   UNL     1      47.441  10.029  19.940  0.00  0.00    +0.000 S 
ATOM     28  C   UNL     1      47.815  10.334  18.313  0.00  0.00    +0.000 A 
ATOM     29  C   UNL     1      48.067   9.184  17.568  0.00  0.00    +0.000 A 
ATOM     30  C   UNL     1      47.985   8.002  18.427  0.00  0.00    +0.000 A 
BRANCH  22  32
ATOM     31  C   UNL     1      48.460   4.694  16.939  0.00  0.00    +0.000 C 
ATOM     32  O   UNL     1      48.609   6.108  17.046  0.00  0.00    +0.000 OA
ENDBRANCH  22  32
ENDBRANCH  18  29
ENDBRANCH   1  20
TORSDOF 7
ENDMDL
MODEL 3
REMARK VINA RESULT:    -6.712      4.523      9.547
REMARK INTER + INTRA:         -10.724
REMARK INTER:                  -9.679
REMARK INTRA:                  -1.044
REMARK UNBOUND:                -1.264
REMARK  Name = 
REMARK  9 active torsions:
REMARK  status: ('A' for Active; 'I' for Inactive)
REMARK    1  A    between atoms: C_1  and  O_2
REMARK    2  A    between atoms: O_2  and  C_3
REMARK    3  A    between atoms: C_10  and  C_11
REMARK    4  A    between atoms: N_13  and  C_14
REMARK    5  A    between atoms: C_14  and  C_15
REMARK    6  A    between atoms: C_18  and  N_19
REMARK    7  A    between atoms: N_19  and  C_20
REMARK    8  A    between atoms: C_20  and  C_21
REMARK    9  A    between atoms: N_24  and  C_25
REMARK                            x       y       z     vdW  Elec       q    Type
REMARK                         _______ _______ _______ _____ _____    ______ ____
ROOT
ATOM      1  C   UNL     1      47.308   3.362  16.685  0.00  0.00    +0.000 C 
ENDROOT
BRANCH   1   2
ATOM      2  C   UNL     1      48.766   3.483  17.031  0.00  0.00    +0.000 A 
ATOM      3  C   UNL     1      49.316   4.728  17.336  0.00  0.00    +0.000 A 
ATOM      4  C   UNL     1      50.660   4.839  17.706  0.00  0.00    +0.000 A 
ATOM      5  C   UNL     1      51.509   3.732  17.761  0.00  0.00    +0.000 A 
ATOM      6  C   UNL     1      50.950   2.489  17.427  0.00  0.00    +0.000 A 
ATOM      7  C   UNL     1      49.604   2.364  17.055  0.00  0.00    +0.000 A 
BRANCH   5   8
ATOM      8  N   UNL     1      52.809   3.771  18.244  0.00  0.00    +0.000 N 
ATOM      9  H   UNL     1      53.143   4.700  18.487  0.00  0.00    +0.000 HD
BRANCH   8  10
ATOM     10  C   UNL     1      53.458   2.676  18.950  0.00  0.00    +0.000 C 
BRANCH  10  11
ATOM     11  C   UNL     1      54.675   2.142  18.164  0.00  0.00    +0.000 C 
ATOM     12  C   UNL     1      54.326   1.033  17.159  0.00  0.00    +0.000 C 
ATOM     13  C   UNL     1      53.912  -0.265  17.850  0.00  0.00    +0.000 C 
ATOM     14  N   UNL     1      54.970  -0.744  18.751  0.00  0.00    +0.000 NA
ATOM     15  C   UNL     1      54.562  -2.000  19.384  0.00  0.00    +0.000 C 
ATOM     16  C   UNL     1      55.331   0.255  19.763  0.00  0.00    +0.000 C 
ATOM     17  C   UNL     1      55.740   1.592  19.130  0.00  0.00    +0.000 C 
ENDBRANCH  10  11
ENDBRANCH   8  10
ENDBRANCH   5   8
ENDBRANCH   1   2
BRANCH   1  20
ATOM     18  C   UNL     1      46.850   4.260  14.452  0.00  0.00    +0.000 C 
ATOM     19  O   UNL     1      47.190   3.201  13.934  0.00  0.00    +0.000 OA
ATOM     20  N   UNL     1      46.883   4.424  15.810  0.00  0.00    +0.000 N 
ATOM     21  H   UNL     1      46.667   5.321  16.223  0.00  0.00    +0.000 HD
BRANCH  18  29
ATOM     22  C   UNL     1      43.979   4.846  12.626  0.00  0.00    +0.000 A 
ATOM     23  N   UNL     1      43.027   5.302  11.786  0.00  0.00    +0.000 NA
ATOM     24  C   UNL     1      43.211   6.488  11.203  0.00  0.00    +0.000 A 
ATOM     25  N   UNL     1      44.249   7.302  11.360  0.00  0.00    +0.000 NA
ATOM     26  C   UNL     1      45.183   6.808  12.192  0.00  0.00    +0.000 A 
ATOM     27  S   UNL     1      46.573   7.725  12.519  0.00  0.00    +0.000 S 
ATOM     28  C   UNL     1      47.194   6.517  13.536  0.00  0.00    +0.000 A 
ATOM     29  C   UNL     1      46.375   5.394  13.641  0.00  0.00    +0.000 A 
ATOM     30  C   UNL     1      45.152   5.590  12.862  0.00  0.00    +0.000 A 
BRANCH  22  32
ATOM     31  C   UNL     1      43.585   2.546  12.382  0.00  0.00    +0.000 C 
ATOM     32  O   UNL     1      43.760   3.647  13.272  0.00  0.00    +0.000 OA
ENDBRANCH  22  32
ENDBRANCH  18  29
ENDBRANCH   1  20
TORSDOF 7
ENDMDL
MODEL 4
REMARK VINA RESULT:    -6.665      1.803      2.176
REMARK INTER + INTRA:         -10.657
REMARK INTER:                  -9.412
REMARK INTRA:                  -1.245
REMARK UNBOUND:                -1.264
REMARK  Name = 
REMARK  9 active torsions:
REMARK  status: ('A' for Active; 'I' for Inactive)
REMARK    1  A    between atoms: C_1  and  O_2
REMARK    2  A    between atoms: O_2  and  C_3
REMARK    3  A    between atoms: C_10  and  C_11
REMARK    4  A    between atoms: N_13  and  C_14
REMARK    5  A    between atoms: C_14  and  C_15
REMARK    6  A    between atoms: C_18  and  N_19
REMARK    7  A    between atoms: N_19  and  C_20
REMARK    8  A    between atoms: C_20  and  C_21
REMARK    9  A    between atoms: N_24  and  C_25
REMARK                            x       y       z     vdW  Elec       q    Type
REMARK                         _______ _______ _______ _____ _____    ______ ____
ROOT
ATOM      1  C   UNL     1      49.044   7.991  13.457  0.00  0.00    +0.000 C 
ENDROOT
BRANCH   1   2
ATOM      2  C   UNL     1      48.012   7.038  12.919  0.00  0.00    +0.000 A 
ATOM      3  C   UNL     1      47.549   5.984  13.706  0.00  0.00    +0.000 A 
ATOM      4  C   UNL     1      46.555   5.125  13.230  0.00  0.00    +0.000 A 
ATOM      5  C   UNL     1      46.006   5.260  11.953  0.00  0.00    +0.000 A 
ATOM      6  C   UNL     1      46.499   6.308  11.161  0.00  0.00    +0.000 A 
ATOM      7  C   UNL     1      47.496   7.178  11.627  0.00  0.00    +0.000 A 
BRANCH   5   8
ATOM      8  N   UNL     1      44.933   4.517  11.483  0.00  0.00    +0.000 N 
ATOM      9  H   UNL     1      44.165   5.071  11.112  0.00  0.00    +0.000 HD
BRANCH   8  10
ATOM     10  C   UNL     1      45.037   3.167  10.948  0.00  0.00    +0.000 C 
BRANCH  10  11
ATOM     11  C   UNL     1      44.282   3.033   9.608  0.00  0.00    +0.000 C 
ATOM     12  C   UNL     1      44.571   1.723   8.861  0.00  0.00    +0.000 C 
ATOM     13  C   UNL     1      46.001   1.665   8.325  0.00  0.00    +0.000 C 
ATOM     14  N   UNL     1      46.277   2.800   7.434  0.00  0.00    +0.000 NA
ATOM     15  C   UNL     1      47.644   2.714   6.915  0.00  0.00    +0.000 C 
ATOM     16  C   UNL     1      46.055   4.091   8.096  0.00  0.00    +0.000 C 
ATOM     17  C   UNL     1      44.637   4.204   8.673  0.00  0.00    +0.000 C 
ENDBRANCH  10  11
ENDBRANCH   8  10
ENDBRANCH   5   8
ENDBRANCH   1   2
BRANCH   1  20
ATOM     18  C   UNL     1      50.735   7.892  15.228  0.00  0.00    +0.000 C 
ATOM     19  O   UNL     1      50.475   9.042  15.567  0.00  0.00    +0.000 OA
ATOM     20  N   UNL     1      50.074   7.297  14.187  0.00  0.00    +0.000 N 
ATOM     21  H   UNL     1      50.341   6.376  13.870  0.00  0.00    +0.000 HD
BRANCH  18  29
ATOM     22  C   UNL     1      50.611   5.008  17.121  0.00  0.00    +0.000 A 
ATOM     23  N   UNL     1      50.845   3.973  17.953  0.00  0.00    +0.000 NA
ATOM     24  C   UNL     1      52.091   3.780  18.391  0.00  0.00    +0.000 A 
ATOM     25  N   UNL     1      53.163   4.505  18.093  0.00  0.00    +0.000 NA
ATOM     26  C   UNL     1      52.888   5.536  17.273  0.00  0.00    +0.000 A 
ATOM     27  S   UNL     1      54.147   6.560  16.777  0.00  0.00    +0.000 S 
ATOM     28  C   UNL     1      53.079   7.518  15.869  0.00  0.00    +0.000 A 
ATOM     29  C   UNL     1      51.753   7.094  15.931  0.00  0.00    +0.000 A 
ATOM     30  C   UNL     1      51.650   5.883  16.745  0.00  0.00    +0.000 A 
BRANCH  22  32
ATOM     31  C   UNL     1      48.316   4.723  17.516  0.00  0.00    +0.000 C 
ATOM     32  O   UNL     1      49.335   5.170  16.623  0.00  0.00    +0.000 OA
ENDBRANCH  22  32
ENDBRANCH  18  29
ENDBRANCH   1  20
TORSDOF 7
ENDMDL
MODEL 5
REMARK VINA RESULT:    -6.495      2.249      2.564
REMARK INTER + INTRA:         -10.417
REMARK INTER:                  -9.535
REMARK INTRA:                  -0.883
REMARK UNBOUND:                -1.264
REMARK  Name = 
REMARK  9 active torsions:
REMARK  status: ('A' for Active; 'I' for Inactive)
REMARK    1  A    between atoms: C_1  and  O_2
REMARK    2  A    between atoms: O_2  and  C_3
REMARK    3  A    between atoms: C_10  and  C_11
REMARK    4  A    between atoms: N_13  and  C_14
REMARK    5  A    between atoms: C_14  and  C_15
REMARK    6  A    between atoms: C_18  and  N_19
REMARK    7  A    between atoms: N_19  and  C_20
REMARK    8  A    between atoms: C_20  and  C_21
REMARK    9  A    between atoms: N_24  and  C_25
REMARK                            x       y       z     vdW  Elec       q    Type
REMARK                         _______ _______ _______ _____ _____    ______ ____
ROOT
ATOM      1  C   UNL     1      49.183   7.440  15.532  0.00  0.00    +0.000 C 
ENDROOT
BRANCH   1   2
ATOM      2  C   UNL     1      48.224   6.868  14.524  0.00  0.00    +0.000 A 
ATOM      3  C   UNL     1      47.852   7.613  13.405  0.00  0.00    +0.000 A 
ATOM      4  C   UNL     1      46.999   7.068  12.441  0.00  0.00    +0.000 A 
ATOM      5  C   UNL     1      46.466   5.783  12.562  0.00  0.00    +0.000 A 
ATOM      6  C   UNL     1      46.828   5.053  13.705  0.00  0.00    +0.000 A 
ATOM      7  C   UNL     1      47.683   5.588  14.679  0.00  0.00    +0.000 A 
BRANCH   5   8
ATOM      8  N   UNL     1      45.723   5.151  11.575  0.00  0.00    +0.000 N 
ATOM      9  H   UNL     1      45.892   5.495  10.633  0.00  0.00    +0.000 HD
BRANCH   8  10
ATOM     10  C   UNL     1      45.243   3.779  11.656  0.00  0.00    +0.000 C 
BRANCH  10  11
ATOM     11  C   UNL     1      44.108   3.520  10.643  0.00  0.00    +0.000 C 
ATOM     12  C   UNL     1      44.180   2.141   9.969  0.00  0.00    +0.000 C 
ATOM     13  C   UNL     1      45.369   2.025   9.016  0.00  0.00    +0.000 C 
ATOM     14  N   UNL     1      45.320   3.067   7.981  0.00  0.00    +0.000 NA
ATOM     15  C   UNL     1      46.454   2.923   7.066  0.00  0.00    +0.000 C 
ATOM     16  C   UNL     1      45.284   4.417   8.555  0.00  0.00    +0.000 C 
ATOM     17  C   UNL     1      44.118   4.592   9.538  0.00  0.00    +0.000 C 
ENDBRANCH  10  11
ENDBRANCH   8  10
ENDBRANCH   5   8
ENDBRANCH   1   2
BRANCH   1  20
ATOM     18  C   UNL     1      50.311   6.081  17.229  0.00  0.00    +0.000 C 
ATOM     19  O   UNL     1      49.594   6.549  18.108  0.00  0.00    +0.000 OA
ATOM     20  N   UNL     1      50.175   6.474  15.925  0.00  0.00    +0.000 N 
ATOM     21  H   UNL     1      50.814   6.135  15.220  0.00  0.00    +0.000 HD
BRANCH  18  29
ATOM     22  C   UNL     1      50.361   2.632  17.090  0.00  0.00    +0.000 A 
ATOM     23  N   UNL     1      50.633   1.316  17.214  0.00  0.00    +0.000 NA
ATOM     24  C   UNL     1      51.828   0.957  17.688  0.00  0.00    +0.000 A 
ATOM     25  N   UNL     1      52.814   1.765  18.059  0.00  0.00    +0.000 NA
ATOM     26  C   UNL     1      52.501   3.068  17.935  0.00  0.00    +0.000 A 
ATOM     27  S   UNL     1      53.654   4.242  18.353  0.00  0.00    +0.000 S 
ATOM     28  C   UNL     1      52.583   5.502  17.969  0.00  0.00    +0.000 A 
ATOM     29  C   UNL     1      51.335   5.067  17.531  0.00  0.00    +0.000 A 
ATOM     30  C   UNL     1      51.304   3.605  17.477  0.00  0.00    +0.000 A 
BRANCH  22  32
ATOM     31  C   UNL     1      48.075   2.982  17.484  0.00  0.00    +0.000 C 
ATOM     32  O   UNL     1      49.148   2.999  16.545  0.00  0.00    +0.000 OA
ENDBRANCH  22  32
ENDBRANCH  18  29
ENDBRANCH   1  20
TORSDOF 7
ENDMDL
MODEL 6
REMARK VINA RESULT:    -6.168      3.458      5.278
REMARK INTER + INTRA:          -9.956
REMARK INTER:                  -8.888
REMARK INTRA:                  -1.068
REMARK UNBOUND:                -1.264
REMARK  Name = 
REMARK  9 active torsions:
REMARK  status: ('A' for Active; 'I' for Inactive)
REMARK    1  A    between atoms: C_1  and  O_2
REMARK    2  A    between atoms: O_2  and  C_3
REMARK    3  A    between atoms: C_10  and  C_11
REMARK    4  A    between atoms: N_13  and  C_14
REMARK    5  A    between atoms: C_14  and  C_15
REMARK    6  A    between atoms: C_18  and  N_19
REMARK    7  A    between atoms: N_19  and  C_20
REMARK    8  A    between atoms: C_20  and  C_21
REMARK    9  A    between atoms: N_24  and  C_25
REMARK                            x       y       z     vdW  Elec       q    Type
REMARK                         _______ _______ _______ _____ _____    ______ ____
ROOT
ATOM      1  C   UNL     1      48.346   3.242  18.069  0.00  0.00    +0.000 C 
ENDROOT
BRANCH   1   2
ATOM      2  C   UNL     1      48.085   4.088  16.853  0.00  0.00    +0.000 A 
ATOM      3  C   UNL     1      47.280   3.606  15.821  0.00  0.00    +0.000 A 
ATOM      4  C   UNL     1      46.994   4.406  14.711  0.00  0.00    +0.000 A 
ATOM      5  C   UNL     1      47.513   5.694  14.570  0.00  0.00    +0.000 A 
ATOM      6  C   UNL     1      48.343   6.157  15.603  0.00  0.00    +0.000 A 
ATOM      7  C   UNL     1      48.637   5.365  16.722  0.00  0.00    +0.000 A 
BRANCH   5   8
ATOM      8  N   UNL     1      47.158   6.571  13.555  0.00  0.00    +0.000 N 
ATOM      9  H   UNL     1      47.414   7.540  13.725  0.00  0.00    +0.000 HD
BRANCH   8  10
ATOM     10  C   UNL     1      47.033   6.201  12.153  0.00  0.00    +0.000 C 
BRANCH  10  11
ATOM     11  C   UNL     1      45.685   6.672  11.565  0.00  0.00    +0.000 C 
ATOM     12  C   UNL     1      44.500   6.521  12.531  0.00  0.00    +0.000 C 
ATOM     13  C   UNL     1      44.142   5.057  12.783  0.00  0.00    +0.000 C 
ATOM     14  N   UNL     1      43.830   4.365  11.525  0.00  0.00    +0.000 NA
ATOM     15  C   UNL     1      43.467   2.972  11.790  0.00  0.00    +0.000 C 
ATOM     16  C   UNL     1      44.936   4.439  10.563  0.00  0.00    +0.000 C 
ATOM     17  C   UNL     1      45.356   5.889  10.281  0.00  0.00    +0.000 C 
ENDBRANCH  10  11
ENDBRANCH   8  10
ENDBRANCH   5   8
ENDBRANCH   1   2
BRANCH   1  20
ATOM     18  C   UNL     1      50.448   2.180  17.392  0.00  0.00    +0.000 C 
ATOM     19  O   UNL     1      49.888   1.629  16.449  0.00  0.00    +0.000 OA
ATOM     20  N   UNL     1      49.753   2.993  18.246  0.00  0.00    +0.000 N 
ATOM     21  H   UNL     1      50.206   3.387  19.059  0.00  0.00    +0.000 HD
BRANCH  18  29
ATOM     22  C   UNL     1      53.085   4.380  17.735  0.00  0.00    +0.000 A 
ATOM     23  N   UNL     1      54.288   4.986  17.821  0.00  0.00    +0.000 NA
ATOM     24  C   UNL     1      55.375   4.222  17.952  0.00  0.00    +0.000 A 
ATOM     25  N   UNL     1      55.415   2.896  18.016  0.00  0.00    +0.000 NA
ATOM     26  C   UNL     1      54.200   2.328  17.912  0.00  0.00    +0.000 A 
ATOM     27  S   UNL     1      54.065   0.638  17.988  0.00  0.00    +0.000 S 
ATOM     28  C   UNL     1      52.382   0.712  17.781  0.00  0.00    +0.000 A 
ATOM     29  C   UNL     1      51.889   2.007  17.638  0.00  0.00    +0.000 A 
ATOM     30  C   UNL     1      52.980   2.975  17.755  0.00  0.00    +0.000 A 
BRANCH  22  32
ATOM     31  C   UNL     1      52.144   6.348  16.871  0.00  0.00    +0.000 C 
ATOM     32  O   UNL     1      51.959   5.173  17.659  0.00  0.00    +0.000 OA
ENDBRANCH  22  32
ENDBRANCH  18  29
ENDBRANCH   1  20
TORSDOF 7
ENDMDL
MODEL 7
REMARK VINA RESULT:    -6.003      2.443      3.037
REMARK INTER + INTRA:          -9.724
REMARK INTER:                  -9.163
REMARK INTRA:                  -0.560
REMARK UNBOUND:                -1.264
REMARK  Name = 
REMARK  9 active torsions:
REMARK  status: ('A' for Active; 'I' for Inactive)
REMARK    1  A    between atoms: C_1  and  O_2
REMARK    2  A    between atoms: O_2  and  C_3
REMARK    3  A    between atoms: C_10  and  C_11
REMARK    4  A    between atoms: N_13  and  C_14
REMARK    5  A    between atoms: C_14  and  C_15
REMARK    6  A    between atoms: C_18  and  N_19
REMARK    7  A    between atoms: N_19  and  C_20
REMARK    8  A    between atoms: C_20  and  C_21
REMARK    9  A    between atoms: N_24  and  C_25
REMARK                            x       y       z     vdW  Elec       q    Type
REMARK                         _______ _______ _______ _____ _____    ______ ____
ROOT
ATOM      1  C   UNL     1      48.781   8.644  13.155  0.00  0.00    +0.000 C 
ENDROOT
BRANCH   1   2
ATOM      2  C   UNL     1      47.450   8.193  12.618  0.00  0.00    +0.000 A 
ATOM      3  C   UNL     1      47.377   7.114  11.737  0.00  0.00    +0.000 A 
ATOM      4  C   UNL     1      46.139   6.659  11.273  0.00  0.00    +0.000 A 
ATOM      5  C   UNL     1      44.938   7.269  11.640  0.00  0.00    +0.000 A 
ATOM      6  C   UNL     1      45.028   8.370  12.506  0.00  0.00    +0.000 A 
ATOM      7  C   UNL     1      46.263   8.836  12.979  0.00  0.00    +0.000 A 
BRANCH   5   8
ATOM      8  N   UNL     1      43.683   6.780  11.311  0.00  0.00    +0.000 N 
ATOM      9  H   UNL     1      42.977   7.495  11.159  0.00  0.00    +0.000 HD
BRANCH   8  10
ATOM     10  C   UNL     1      43.444   5.520  10.622  0.00  0.00    +0.000 C 
BRANCH  10  11
ATOM     11  C   UNL     1      42.953   4.430  11.599  0.00  0.00    +0.000 C 
ATOM     12  C   UNL     1      43.196   4.766  13.078  0.00  0.00    +0.000 C 
ATOM     13  C   UNL     1      44.681   4.746  13.440  0.00  0.00    +0.000 C 
ATOM     14  N   UNL     1      45.281   3.440  13.137  0.00  0.00    +0.000 NA
ATOM     15  C   UNL     1      46.696   3.435  13.513  0.00  0.00    +0.000 C 
ATOM     16  C   UNL     1      45.116   3.068  11.727  0.00  0.00    +0.000 C 
ATOM     17  C   UNL     1      43.643   3.086  11.297  0.00  0.00    +0.000 C 
ENDBRANCH  10  11
ENDBRANCH   8  10
ENDBRANCH   5   8
ENDBRANCH   1   2
BRANCH   1  20
ATOM     18  C   UNL     1      49.177   7.681  15.373  0.00  0.00    +0.000 C 
ATOM     19  O   UNL     1      49.560   6.629  14.869  0.00  0.00    +0.000 OA
ATOM     20  N   UNL     1      48.768   8.729  14.592  0.00  0.00    +0.000 N 
ATOM     21  H   UNL     1      48.390   9.565  15.016  0.00  0.00    +0.000 HD
BRANCH  18  29
ATOM     22  C   UNL     1      48.051   5.756  18.008  0.00  0.00    +0.000 A 
ATOM     23  N   UNL     1      47.631   5.271  19.194  0.00  0.00    +0.000 NA
ATOM     24  C   UNL     1      47.814   6.018  20.286  0.00  0.00    +0.000 A 
ATOM     25  N   UNL     1      48.383   7.216  20.346  0.00  0.00    +0.000 NA
ATOM     26  C   UNL     1      48.776   7.672  19.143  0.00  0.00    +0.000 A 
ATOM     27  S   UNL     1      49.536   9.186  19.037  0.00  0.00    +0.000 S 
ATOM     28  C   UNL     1      49.685   9.050  17.351  0.00  0.00    +0.000 A 
ATOM     29  C   UNL     1      49.155   7.871  16.833  0.00  0.00    +0.000 A 
ATOM     30  C   UNL     1      48.644   7.031  17.917  0.00  0.00    +0.000 A 
BRANCH  22  32
ATOM     31  C   UNL     1      47.426   3.650  17.184  0.00  0.00    +0.000 C 
ATOM     32  O   UNL     1      47.914   4.958  16.891  0.00  0.00    +0.000 OA
ENDBRANCH  22  32
ENDBRANCH  18  29
ENDBRANCH   1  20
TORSDOF 7
ENDMDL
MODEL 8
REMARK VINA RESULT:    -5.861      2.715      3.635
REMARK INTER + INTRA:          -9.523
REMARK INTER:                  -8.027
REMARK INTRA:                  -1.496
REMARK UNBOUND:                -1.264
REMARK  Name = 
REMARK  9 active torsions:
REMARK  status: ('A' for Active; 'I' for Inactive)
REMARK    1  A    between atoms: C_1  and  O_2
REMARK    2  A    between atoms: O_2  and  C_3
REMARK    3  A    between atoms: C_10  and  C_11
REMARK    4  A    between atoms: N_13  and  C_14
REMARK    5  A    between atoms: C_14  and  C_15
REMARK    6  A    between atoms: C_18  and  N_19
REMARK    7  A    between atoms: N_19  and  C_20
REMARK    8  A    between atoms: C_20  and  C_21
REMARK    9  A    between atoms: N_24  and  C_25
REMARK                            x       y       z     vdW  Elec       q    Type
REMARK                         _______ _______ _______ _____ _____    ______ ____
ROOT
ATOM      1  C   UNL     1      49.242   9.564  11.874  0.00  0.00    +0.000 C 
ENDROOT
BRANCH   1   2
ATOM      2  C   UNL     1      47.985   8.763  12.080  0.00  0.00    +0.000 A 
ATOM      3  C   UNL     1      47.994   7.381  11.894  0.00  0.00    +0.000 A 
ATOM      4  C   UNL     1      46.842   6.626  12.131  0.00  0.00    +0.000 A 
ATOM      5  C   UNL     1      45.639   7.211  12.532  0.00  0.00    +0.000 A 
ATOM      6  C   UNL     1      45.637   8.606  12.690  0.00  0.00    +0.000 A 
ATOM      7  C   UNL     1      46.786   9.375  12.456  0.00  0.00    +0.000 A 
BRANCH   5   8
ATOM      8  N   UNL     1      44.509   6.497  12.902  0.00  0.00    +0.000 N 
ATOM      9  H   UNL     1      43.629   6.922  12.622  0.00  0.00    +0.000 HD
BRANCH   8  10
ATOM     10  C   UNL     1      44.469   5.052  13.078  0.00  0.00    +0.000 C 
BRANCH  10  11
ATOM     11  C   UNL     1      43.258   4.430  12.351  0.00  0.00    +0.000 C 
ATOM     12  C   UNL     1      43.415   2.931  12.054  0.00  0.00    +0.000 C 
ATOM     13  C   UNL     1      44.483   2.659  10.995  0.00  0.00    +0.000 C 
ATOM     14  N   UNL     1      44.181   3.369   9.746  0.00  0.00    +0.000 NA
ATOM     15  C   UNL     1      45.203   3.077   8.739  0.00  0.00    +0.000 C 
ATOM     16  C   UNL     1      44.051   4.817   9.948  0.00  0.00    +0.000 C 
ATOM     17  C   UNL     1      43.002   5.155  11.016  0.00  0.00    +0.000 C 
ENDBRANCH  10  11
ENDBRANCH   8  10
ENDBRANCH   5   8
ENDBRANCH   1   2
BRANCH   1  20
ATOM     18  C   UNL     1      50.498   9.945  13.943  0.00  0.00    +0.000 C 
ATOM     19  O   UNL     1      49.848  10.960  14.174  0.00  0.00    +0.000 OA
ATOM     20  N   UNL     1      50.263   9.197  12.820  0.00  0.00    +0.000 N 
ATOM     21  H   UNL     1      50.848   8.403  12.604  0.00  0.00    +0.000 HD
BRANCH  18  29
ATOM     22  C   UNL     1      50.998   7.002  15.676  0.00  0.00    +0.000 A 
ATOM     23  N   UNL     1      51.394   6.024  16.517  0.00  0.00    +0.000 NA
ATOM     24  C   UNL     1      52.487   6.227  17.256  0.00  0.00    +0.000 A 
ATOM     25  N   UNL     1      53.259   7.307  17.259  0.00  0.00    +0.000 NA
ATOM     26  C   UNL     1      52.825   8.265  16.420  0.00  0.00    +0.000 A 
ATOM     27  S   UNL     1      53.703   9.712  16.287  0.00  0.00    +0.000 S 
ATOM     28  C   UNL     1      52.600  10.336  15.157  0.00  0.00    +0.000 A 
ATOM     29  C   UNL     1      51.544   9.475  14.866  0.00  0.00    +0.000 A 
ATOM     30  C   UNL     1      51.704   8.219  15.599  0.00  0.00    +0.000 A 
BRANCH  22  32
ATOM     31  C   UNL     1      48.687   6.608  15.599  0.00  0.00    +0.000 C 
ATOM     32  O   UNL     1      49.903   6.767  14.871  0.00  0.00    +0.000 OA
ENDBRANCH  22  32
ENDBRANCH  18  29
ENDBRANCH   1  20
TORSDOF 7
ENDMDL
