MODEL 1
REMARK VINA RESULT:    -7.586      0.000      0.000
REMARK INTER + INTRA:          -9.938
REMARK INTER:                  -9.360
REMARK INTRA:                  -0.578
REMARK UNBOUND:                -0.578
REMARK  Name = 
REMARK  5 active torsions:
REMARK  status: ('A' for Active; 'I' for Inactive)
REMARK    1  A    between atoms: C_1  and  C_2
REMARK    2  A    between atoms: C_2  and  C_3
REMARK    3  A    between atoms: C_2  and  C_14
REMARK    4  A    between atoms: C_3  and  N_4
REMARK    5  A    between atoms: C_8  and  C_9
REMARK                            x       y       z     vdW  Elec       q    Type
REMARK                         _______ _______ _______ _____ _____    ______ ____
ROOT
ATOM      1  N   UNL     1      43.945   3.236  10.373  0.00  0.00    +0.000 N 
ATOM      2  C   UNL     1      44.860   3.039   9.325  0.00  0.00    +0.000 A 
ATOM      3  C   UNL     1      45.272   1.741   8.984  0.00  0.00    +0.000 A 
ATOM      4  N   UNL     1      46.151   1.452   7.985  0.00  0.00    +0.000 NA
ATOM      5  C   UNL     1      46.624   2.544   7.327  0.00  0.00    +0.000 A 
ATOM      6  C   UNL     1      46.244   3.831   7.658  0.00  0.00    +0.000 A 
ATOM      7  N   UNL     1      45.368   4.098   8.659  0.00  0.00    +0.000 NA
ATOM      8  H   UNL     1      43.110   2.690  10.191  0.00  0.00    +0.000 HD
ENDROOT
BRANCH   5   9
ATOM      9  C   UNL     1      47.582   2.335   6.205  0.00  0.00    +0.000 C 
ATOM     10  N   UNL     1      47.499   3.225   5.169  0.00  0.00    +0.000 N 
ATOM     11  O   UNL     1      48.401   1.426   6.207  0.00  0.00    +0.000 OA
ATOM     12  H   UNL     1      46.810   3.967   5.189  0.00  0.00    +0.000 HD
ATOM     13  H   UNL     1      48.125   3.127   4.384  0.00  0.00    +0.000 HD
ENDBRANCH   5   9
BRANCH   1  14
ATOM     14  C   UNL     1      43.607   4.640  10.599  0.00  0.00    +0.000 C 
BRANCH  14  16
ATOM     15  C   UNL     1      42.904   5.280  12.993  0.00  0.00    +0.000 C 
ATOM     16  C   UNL     1      43.992   4.968  12.014  0.00  0.00    +0.000 C 
BRANCH  16  17
ATOM     17  C   UNL     1      45.362   5.442  12.261  0.00  0.00    +0.000 A 
ATOM     18  C   UNL     1      45.978   6.349  11.386  0.00  0.00    +0.000 A 
ATOM     19  C   UNL     1      47.230   6.887  11.694  0.00  0.00    +0.000 A 
ATOM     20  C   UNL     1      47.872   6.527  12.877  0.00  0.00    +0.000 A 
ATOM     21  C   UNL     1      47.282   5.601  13.734  0.00  0.00    +0.000 A 
ATOM     22  C   UNL     1      46.040   5.052  13.420  0.00  0.00    +0.000 A 
ENDBRANCH  16  17
ENDBRANCH  14  16
ENDBRANCH   1  14
TORSDOF 4
ENDMDL
MODEL 2
REMARK VINA RESULT:    -7.167      3.183      6.360
REMARK INTER + INTRA:          -9.420
REMARK INTER:                  -9.071
REMARK INTRA:                  -0.349
REMARK UNBOUND:                -0.578
REMARK  Name = 
REMARK  5 active torsions:
REMARK  status: ('A' for Active; 'I' for Inactive)
REMARK    1  A    between atoms: C_1  and  C_2
REMARK    2  A    between atoms: C_2  and  C_3
REMARK    3  A    between atoms: C_2  and  C_14
REMARK    4  A    between atoms: C_3  and  N_4
REMARK    5  A    between atoms: C_8  and  C_9
REMARK                            x       y       z     vdW  Elec       q    Type
REMARK                         _______ _______ _______ _____ _____    ______ ____
ROOT
ATOM      1  N   UNL     1      43.784   4.788  10.189  0.00  0.00    +0.000 N 
ATOM      2  C   UNL     1      44.674   5.507  11.004  0.00  0.00    +0.000 A 
ATOM      3  C   UNL     1      44.313   5.838  12.321  0.00  0.00    +0.000 A 
ATOM      4  N   UNL     1      45.107   6.530  13.183  0.00  0.00    +0.000 NA
ATOM      5  C   UNL     1      46.308   6.899  12.660  0.00  0.00    +0.000 A 
ATOM      6  C   UNL     1      46.673   6.598  11.362  0.00  0.00    +0.000 A 
ATOM      7  N   UNL     1      45.867   5.909  10.517  0.00  0.00    +0.000 NA
ATOM      8  H   UNL     1      43.526   3.926  10.659  0.00  0.00    +0.000 HD
ENDROOT
BRANCH   5   9
ATOM      9  C   UNL     1      47.257   7.649  13.529  0.00  0.00    +0.000 C 
ATOM     10  N   UNL     1      46.774   8.796  14.099  0.00  0.00    +0.000 N 
ATOM     11  O   UNL     1      48.402   7.265  13.729  0.00  0.00    +0.000 OA
ATOM     12  H   UNL     1      45.824   9.095  13.915  0.00  0.00    +0.000 HD
ATOM     13  H   UNL     1      47.377   9.341  14.695  0.00  0.00    +0.000 HD
ENDBRANCH   5   9
BRANCH   1  14
ATOM     14  C   UNL     1      44.306   4.512   8.852  0.00  0.00    +0.000 C 
BRANCH  14  16
ATOM     15  C   UNL     1      44.300   2.197   9.981  0.00  0.00    +0.000 C 
ATOM     16  C   UNL     1      44.637   3.048   8.797  0.00  0.00    +0.000 C 
BRANCH  16  17
ATOM     17  C   UNL     1      45.674   2.613   7.850  0.00  0.00    +0.000 A 
ATOM     18  C   UNL     1      46.053   3.427   6.773  0.00  0.00    +0.000 A 
ATOM     19  C   UNL     1      47.122   3.062   5.952  0.00  0.00    +0.000 A 
ATOM     20  C   UNL     1      47.823   1.884   6.203  0.00  0.00    +0.000 A 
ATOM     21  C   UNL     1      47.431   1.052   7.250  0.00  0.00    +0.000 A 
ATOM     22  C   UNL     1      46.354   1.409   8.060  0.00  0.00    +0.000 A 
ENDBRANCH  16  17
ENDBRANCH  14  16
ENDBRANCH   1  14
TORSDOF 4
ENDMDL
MODEL 3
REMARK VINA RESULT:    -6.838      3.600      6.017
REMARK INTER + INTRA:          -9.015
REMARK INTER:                  -8.487
REMARK INTRA:                  -0.528
REMARK UNBOUND:                -0.578
REMARK  Name = 
REMARK  5 active torsions:
REMARK  status: ('A' for Active; 'I' for Inactive)
REMARK    1  A    between atoms: C_1  and  C_2
REMARK    2  A    between atoms: C_2  and  C_3
REMARK    3  A    between atoms: C_2  and  C_14
REMARK    4  A    between atoms: C_3  and  N_4
REMARK    5  A    between atoms: C_8  and  C_9
REMARK                            x       y       z     vdW  Elec       q    Type
REMARK                         _______ _______ _______ _____ _____    ______ ____
ROOT
ATOM      1  N   UNL     1      45.117   4.887  12.436  0.00  0.00    +0.000 N 
ATOM      2  C   UNL     1      46.319   5.602  12.565  0.00  0.00    +0.000 A 
ATOM      3  C   UNL     1      47.112   5.446  13.714  0.00  0.00    +0.000 A 
ATOM      4  N   UNL     1      48.290   6.094  13.927  0.00  0.00    +0.000 NA
ATOM      5  C   UNL     1      48.651   6.939  12.923  0.00  0.00    +0.000 A 
ATOM      6  C   UNL     1      47.875   7.119  11.794  0.00  0.00    +0.000 A 
ATOM      7  N   UNL     1      46.703   6.465  11.600  0.00  0.00    +0.000 NA
ATOM      8  H   UNL     1      45.308   3.895  12.540  0.00  0.00    +0.000 HD
ENDROOT
BRANCH   5   9
ATOM      9  C   UNL     1      49.932   7.686  13.053  0.00  0.00    +0.000 C 
ATOM     10  N   UNL     1      50.756   7.663  11.960  0.00  0.00    +0.000 N 
ATOM     11  O   UNL     1      50.235   8.292  14.072  0.00  0.00    +0.000 OA
ATOM     12  H   UNL     1      50.486   7.152  11.129  0.00  0.00    +0.000 HD
ATOM     13  H   UNL     1      51.637   8.153  11.997  0.00  0.00    +0.000 HD
ENDBRANCH   5   9
BRANCH   1  14
ATOM     14  C   UNL     1      44.411   5.148  11.183  0.00  0.00    +0.000 C 
BRANCH  14  16
ATOM     15  C   UNL     1      43.403   2.786  11.373  0.00  0.00    +0.000 C 
ATOM     16  C   UNL     1      44.113   3.817  10.553  0.00  0.00    +0.000 C 
BRANCH  16  17
ATOM     17  C   UNL     1      44.923   3.408   9.397  0.00  0.00    +0.000 A 
ATOM     18  C   UNL     1      45.491   4.362   8.541  0.00  0.00    +0.000 A 
ATOM     19  C   UNL     1      46.358   3.969   7.520  0.00  0.00    +0.000 A 
ATOM     20  C   UNL     1      46.665   2.621   7.346  0.00  0.00    +0.000 A 
ATOM     21  C   UNL     1      46.077   1.663   8.169  0.00  0.00    +0.000 A 
ATOM     22  C   UNL     1      45.200   2.054   9.180  0.00  0.00    +0.000 A 
ENDBRANCH  16  17
ENDBRANCH  14  16
ENDBRANCH   1  14
TORSDOF 4
ENDMDL
MODEL 4
REMARK VINA RESULT:    -6.498      4.533      7.206
REMARK INTER + INTRA:          -8.595
REMARK INTER:                  -8.236
REMARK INTRA:                  -0.360
REMARK UNBOUND:                -0.578
REMARK  Name = 
REMARK  5 active torsions:
REMARK  status: ('A' for Active; 'I' for Inactive)
REMARK    1  A    between atoms: C_1  and  C_2
REMARK    2  A    between atoms: C_2  and  C_3
REMARK    3  A    between atoms: C_2  and  C_14
REMARK    4  A    between atoms: C_3  and  N_4
REMARK    5  A    between atoms: C_8  and  C_9
REMARK                            x       y       z     vdW  Elec       q    Type
REMARK                         _______ _______ _______ _____ _____    ______ ____
ROOT
ATOM      1  N   UNL     1      46.143   5.421  12.711  0.00  0.00    +0.000 N 
ATOM      2  C   UNL     1      46.832   5.202  13.916  0.00  0.00    +0.000 A 
ATOM      3  C   UNL     1      47.862   6.074  14.306  0.00  0.00    +0.000 A 
ATOM      4  N   UNL     1      48.583   5.944  15.454  0.00  0.00    +0.000 NA
ATOM      5  C   UNL     1      48.232   4.871  16.214  0.00  0.00    +0.000 A 
ATOM      6  C   UNL     1      47.233   3.993  15.838  0.00  0.00    +0.000 A 
ATOM      7  N   UNL     1      46.527   4.138  14.689  0.00  0.00    +0.000 NA
ATOM      8  H   UNL     1      45.761   6.361  12.713  0.00  0.00    +0.000 HD
ENDROOT
BRANCH   5   9
ATOM      9  C   UNL     1      48.952   4.648  17.498  0.00  0.00    +0.000 C 
ATOM     10  N   UNL     1      50.260   5.049  17.532  0.00  0.00    +0.000 N 
ATOM     11  O   UNL     1      48.411   4.140  18.471  0.00  0.00    +0.000 OA
ATOM     12  H   UNL     1      50.687   5.463  16.713  0.00  0.00    +0.000 HD
ATOM     13  H   UNL     1      50.793   4.920  18.379  0.00  0.00    +0.000 HD
ENDBRANCH   5   9
BRANCH   1  14
ATOM     14  C   UNL     1      45.094   4.437  12.449  0.00  0.00    +0.000 C 
BRANCH  14  16
ATOM     15  C   UNL     1      43.142   5.458  11.116  0.00  0.00    +0.000 C 
ATOM     16  C   UNL     1      44.478   4.785  11.124  0.00  0.00    +0.000 C 
BRANCH  16  17
ATOM     17  C   UNL     1      44.937   4.048   9.938  0.00  0.00    +0.000 A 
ATOM     18  C   UNL     1      45.584   4.710   8.884  0.00  0.00    +0.000 A 
ATOM     19  C   UNL     1      46.125   3.986   7.820  0.00  0.00    +0.000 A 
ATOM     20  C   UNL     1      46.028   2.596   7.802  0.00  0.00    +0.000 A 
ATOM     21  C   UNL     1      45.356   1.933   8.827  0.00  0.00    +0.000 A 
ATOM     22  C   UNL     1      44.803   2.657   9.882  0.00  0.00    +0.000 A 
ENDBRANCH  16  17
ENDBRANCH  14  16
ENDBRANCH   1  14
TORSDOF 4
ENDMDL
MODEL 5
REMARK VINA RESULT:    -6.249      4.441      6.347
REMARK INTER + INTRA:          -8.288
REMARK INTER:                  -7.929
REMARK INTRA:                  -0.359
REMARK UNBOUND:                -0.578
REMARK  Name = 
REMARK  5 active torsions:
REMARK  status: ('A' for Active; 'I' for Inactive)
REMARK    1  A    between atoms: C_1  and  C_2
REMARK    2  A    between atoms: C_2  and  C_3
REMARK    3  A    between atoms: C_2  and  C_14
REMARK    4  A    between atoms: C_3  and  N_4
REMARK    5  A    between atoms: C_8  and  C_9
REMARK                            x       y       z     vdW  Elec       q    Type
REMARK                         _______ _______ _______ _____ _____    ______ ____
ROOT
ATOM      1  N   UNL     1      47.208   4.997  15.257  0.00  0.00    +0.000 N 
ATOM      2  C   UNL     1      46.567   4.894  14.011  0.00  0.00    +0.000 A 
ATOM      3  C   UNL     1      46.441   6.025  13.187  0.00  0.00    +0.000 A 
ATOM      4  N   UNL     1      45.838   6.023  11.966  0.00  0.00    +0.000 NA
ATOM      5  C   UNL     1      45.342   4.812  11.593  0.00  0.00    +0.000 A 
ATOM      6  C   UNL     1      45.441   3.692  12.396  0.00  0.00    +0.000 A 
ATOM      7  N   UNL     1      46.043   3.715  13.611  0.00  0.00    +0.000 NA
ATOM      8  H   UNL     1      48.138   5.378  15.120  0.00  0.00    +0.000 HD
ENDROOT
BRANCH   5   9
ATOM      9  C   UNL     1      44.675   4.699  10.266  0.00  0.00    +0.000 C 
ATOM     10  N   UNL     1      45.385   5.170   9.194  0.00  0.00    +0.000 N 
ATOM     11  O   UNL     1      43.561   4.212  10.134  0.00  0.00    +0.000 OA
ATOM     12  H   UNL     1      46.304   5.572   9.329  0.00  0.00    +0.000 HD
ATOM     13  H   UNL     1      44.979   5.117   8.273  0.00  0.00    +0.000 HD
ENDBRANCH   5   9
BRANCH   1  14
ATOM     14  C   UNL     1      47.269   3.734  15.990  0.00  0.00    +0.000 C 
BRANCH  14  16
ATOM     15  C   UNL     1      47.571   5.108  18.147  0.00  0.00    +0.000 C 
ATOM     16  C   UNL     1      48.028   3.993  17.260  0.00  0.00    +0.000 C 
BRANCH  16  17
ATOM     17  C   UNL     1      49.413   3.506  17.344  0.00  0.00    +0.000 A 
ATOM     18  C   UNL     1      50.437   4.331  17.829  0.00  0.00    +0.000 A 
ATOM     19  C   UNL     1      51.724   3.822  18.020  0.00  0.00    +0.000 A 
ATOM     20  C   UNL     1      51.995   2.486  17.733  0.00  0.00    +0.000 A 
ATOM     21  C   UNL     1      50.991   1.669  17.217  0.00  0.00    +0.000 A 
ATOM     22  C   UNL     1      49.711   2.181  17.012  0.00  0.00    +0.000 A 
ENDBRANCH  16  17
ENDBRANCH  14  16
ENDBRANCH   1  14
TORSDOF 4
ENDMDL
MODEL 6
REMARK VINA RESULT:    -6.039      4.278      7.005
REMARK INTER + INTRA:          -8.028
REMARK INTER:                  -7.648
REMARK INTRA:                  -0.381
REMARK UNBOUND:                -0.578
REMARK  Name = 
REMARK  5 active torsions:
REMARK  status: ('A' for Active; 'I' for Inactive)
REMARK    1  A    between atoms: C_1  and  C_2
REMARK    2  A    between atoms: C_2  and  C_3
REMARK    3  A    between atoms: C_2  and  C_14
REMARK    4  A    between atoms: C_3  and  N_4
REMARK    5  A    between atoms: C_8  and  C_9
REMARK                            x       y       z     vdW  Elec       q    Type
REMARK                         _______ _______ _______ _____ _____    ______ ____
ROOT
ATOM      1  N   UNL     1      45.823   4.774  12.424  0.00  0.00    +0.000 N 
ATOM      2  C   UNL     1      46.745   5.307  13.341  0.00  0.00    +0.000 A 
ATOM      3  C   UNL     1      47.038   4.615  14.528  0.00  0.00    +0.000 A 
ATOM      4  N   UNL     1      47.916   5.051  15.473  0.00  0.00    +0.000 NA
ATOM      5  C   UNL     1      48.499   6.245  15.182  0.00  0.00    +0.000 A 
ATOM      6  C   UNL     1      48.211   6.948  14.028  0.00  0.00    +0.000 A 
ATOM      7  N   UNL     1      47.331   6.499  13.099  0.00  0.00    +0.000 NA
ATOM      8  H   UNL     1      46.115   3.837  12.165  0.00  0.00    +0.000 HD
ENDROOT
BRANCH   5   9
ATOM      9  C   UNL     1      49.488   6.803  16.147  0.00  0.00    +0.000 C 
ATOM     10  N   UNL     1      50.436   7.639  15.621  0.00  0.00    +0.000 N 
ATOM     11  O   UNL     1      49.458   6.537  17.341  0.00  0.00    +0.000 OA
ATOM     12  H   UNL     1      50.443   7.841  14.629  0.00  0.00    +0.000 HD
ATOM     13  H   UNL     1      51.129   8.044  16.231  0.00  0.00    +0.000 HD
ENDBRANCH   5   9
BRANCH   1  14
ATOM     14  C   UNL     1      45.632   5.603  11.236  0.00  0.00    +0.000 C 
BRANCH  14  16
ATOM     15  C   UNL     1      43.306   4.643  10.690  0.00  0.00    +0.000 C 
ATOM     16  C   UNL     1      44.737   4.842  10.300  0.00  0.00    +0.000 C 
BRANCH  16  17
ATOM     17  C   UNL     1      45.368   3.935   9.331  0.00  0.00    +0.000 A 
ATOM     18  C   UNL     1      45.255   2.544   9.467  0.00  0.00    +0.000 A 
ATOM     19  C   UNL     1      45.752   1.695   8.476  0.00  0.00    +0.000 A 
ATOM     20  C   UNL     1      46.361   2.227   7.342  0.00  0.00    +0.000 A 
ATOM     21  C   UNL     1      46.509   3.607   7.215  0.00  0.00    +0.000 A 
ATOM     22  C   UNL     1      46.026   4.455   8.211  0.00  0.00    +0.000 A 
ENDBRANCH  16  17
ENDBRANCH  14  16
ENDBRANCH   1  14
TORSDOF 4
ENDMDL
MODEL 7
REMARK VINA RESULT:    -5.964      3.331      6.262
REMARK INTER + INTRA:          -7.937
REMARK INTER:                  -8.501
REMARK INTRA:                   0.564
REMARK UNBOUND:                -0.578
REMARK  Name = 
REMARK  5 active torsions:
REMARK  status: ('A' for Active; 'I' for Inactive)
REMARK    1  A    between atoms: C_1  and  C_2
REMARK    2  A    between atoms: C_2  and  C_3
REMARK    3  A    between atoms: C_2  and  C_14
REMARK    4  A    between atoms: C_3  and  N_4
REMARK    5  A    between atoms: C_8  and  C_9
REMARK                            x       y       z     vdW  Elec       q    Type
REMARK                         _______ _______ _______ _____ _____    ______ ____
ROOT
ATOM      1  N   UNL     1      45.136   5.599  10.105  0.00  0.00    +0.000 N 
ATOM      2  C   UNL     1      45.819   5.705  11.329  0.00  0.00    +0.000 A 
ATOM      3  C   UNL     1      47.069   6.341  11.386  0.00  0.00    +0.000 A 
ATOM      4  N   UNL     1      47.803   6.492  12.523  0.00  0.00    +0.000 NA
ATOM      5  C   UNL     1      47.225   5.956  13.633  0.00  0.00    +0.000 A 
ATOM      6  C   UNL     1      46.004   5.311  13.593  0.00  0.00    +0.000 A 
ATOM      7  N   UNL     1      45.289   5.169  12.449  0.00  0.00    +0.000 NA
ATOM      8  H   UNL     1      45.024   6.526   9.707  0.00  0.00    +0.000 HD
ENDROOT
BRANCH   5   9
ATOM      9  C   UNL     1      47.941   6.081  14.933  0.00  0.00    +0.000 C 
ATOM     10  N   UNL     1      47.573   5.195  15.910  0.00  0.00    +0.000 N 
ATOM     11  O   UNL     1      48.812   6.919  15.122  0.00  0.00    +0.000 OA
ATOM     12  H   UNL     1      46.847   4.513  15.731  0.00  0.00    +0.000 HD
ATOM     13  H   UNL     1      48.027   5.238  16.809  0.00  0.00    +0.000 HD
ENDBRANCH   5   9
BRANCH   1  14
ATOM     14  C   UNL     1      43.846   4.921  10.210  0.00  0.00    +0.000 C 
BRANCH  14  16
ATOM     15  C   UNL     1      43.827   2.505  11.100  0.00  0.00    +0.000 C 
ATOM     16  C   UNL     1      44.092   3.457   9.977  0.00  0.00    +0.000 C 
BRANCH  16  17
ATOM     17  C   UNL     1      45.009   3.079   8.893  0.00  0.00    +0.000 A 
ATOM     18  C   UNL     1      45.427   4.020   7.941  0.00  0.00    +0.000 A 
ATOM     19  C   UNL     1      46.392   3.683   6.990  0.00  0.00    +0.000 A 
ATOM     20  C   UNL     1      46.948   2.406   6.983  0.00  0.00    +0.000 A 
ATOM     21  C   UNL     1      46.513   1.453   7.902  0.00  0.00    +0.000 A 
ATOM     22  C   UNL     1      45.539   1.785   8.843  0.00  0.00    +0.000 A 
ENDBRANCH  16  17
ENDBRANCH  14  16
ENDBRANCH   1  14
TORSDOF 4
ENDMDL
MODEL 8
REMARK VINA RESULT:    -5.884      3.437      5.243
REMARK INTER + INTRA:          -7.838
REMARK INTER:                  -7.323
REMARK INTRA:                  -0.515
REMARK UNBOUND:                -0.578
REMARK  Name = 
REMARK  5 active torsions:
REMARK  status: ('A' for Active; 'I' for Inactive)
REMARK    1  A    between atoms: C_1  and  C_2
REMARK    2  A    between atoms: C_2  and  C_3
REMARK    3  A    between atoms: C_2  and  C_14
REMARK    4  A    between atoms: C_3  and  N_4
REMARK    5  A    between atoms: C_8  and  C_9
REMARK                            x       y       z     vdW  Elec       q    Type
REMARK                         _______ _______ _______ _____ _____    ______ ____
ROOT
ATOM      1  N   UNL     1      44.851   8.223  12.364  0.00  0.00    +0.000 N 
ATOM      2  C   UNL     1      44.615   6.872  12.055  0.00  0.00    +0.000 A 
ATOM      3  C   UNL     1      43.460   6.503  11.347  0.00  0.00    +0.000 A 
ATOM      4  N   UNL     1      43.148   5.223  11.002  0.00  0.00    +0.000 NA
ATOM      5  C   UNL     1      44.057   4.298  11.414  0.00  0.00    +0.000 A 
ATOM      6  C   UNL     1      45.190   4.640  12.127  0.00  0.00    +0.000 A 
ATOM      7  N   UNL     1      45.483   5.921  12.463  0.00  0.00    +0.000 NA
ATOM      8  H   UNL     1      44.833   8.767  11.507  0.00  0.00    +0.000 HD
ENDROOT
BRANCH   5   9
ATOM      9  C   UNL     1      43.815   2.868  11.074  0.00  0.00    +0.000 C 
ATOM     10  N   UNL     1      44.609   2.340  10.092  0.00  0.00    +0.000 N 
ATOM     11  O   UNL     1      42.961   2.198  11.639  0.00  0.00    +0.000 OA
ATOM     12  H   UNL     1      45.306   2.916   9.636  0.00  0.00    +0.000 HD
ATOM     13  H   UNL     1      44.485   1.376   9.824  0.00  0.00    +0.000 HD
ENDBRANCH   5   9
BRANCH   1  14
ATOM     14  C   UNL     1      46.097   8.448  13.093  0.00  0.00    +0.000 C 
BRANCH  14  16
ATOM     15  C   UNL     1      46.117  10.590  11.664  0.00  0.00    +0.000 C 
ATOM     16  C   UNL     1      46.873   9.489  12.338  0.00  0.00    +0.000 C 
BRANCH  16  17
ATOM     17  C   UNL     1      48.227   9.140  11.882  0.00  0.00    +0.000 A 
ATOM     18  C   UNL     1      49.158  10.138  11.560  0.00  0.00    +0.000 A 
ATOM     19  C   UNL     1      50.476   9.801  11.247  0.00  0.00    +0.000 A 
ATOM     20  C   UNL     1      50.875   8.465  11.257  0.00  0.00    +0.000 A 
ATOM     21  C   UNL     1      49.948   7.465  11.542  0.00  0.00    +0.000 A 
ATOM     22  C   UNL     1      48.628   7.801  11.840  0.00  0.00    +0.000 A 
ENDBRANCH  16  17
ENDBRANCH  14  16
ENDBRANCH   1  14
TORSDOF 4
ENDMDL
MODEL 9
REMARK VINA RESULT:    -5.833      4.677      6.613
REMARK INTER + INTRA:          -7.775
REMARK INTER:                  -7.457
REMARK INTRA:                  -0.318
REMARK UNBOUND:                -0.578
REMARK  Name = 
REMARK  5 active torsions:
REMARK  status: ('A' for Active; 'I' for Inactive)
REMARK    1  A    between atoms: C_1  and  C_2
REMARK    2  A    between atoms: C_2  and  C_3
REMARK    3  A    between atoms: C_2  and  C_14
REMARK    4  A    between atoms: C_3  and  N_4
REMARK    5  A    between atoms: C_8  and  C_9
REMARK                            x       y       z     vdW  Elec       q    Type
REMARK                         _______ _______ _______ _____ _____    ______ ____
ROOT
ATOM      1  N   UNL     1      47.469   5.118  15.296  0.00  0.00    +0.000 N 
ATOM      2  C   UNL     1      46.753   5.055  14.088  0.00  0.00    +0.000 A 
ATOM      3  C   UNL     1      47.039   5.958  13.051  0.00  0.00    +0.000 A 
ATOM      4  N   UNL     1      46.401   5.973  11.849  0.00  0.00    +0.000 NA
ATOM      5  C   UNL     1      45.430   5.029  11.722  0.00  0.00    +0.000 A 
ATOM      6  C   UNL     1      45.122   4.143  12.737  0.00  0.00    +0.000 A 
ATOM      7  N   UNL     1      45.768   4.145  13.930  0.00  0.00    +0.000 NA
ATOM      8  H   UNL     1      48.462   5.047  15.097  0.00  0.00    +0.000 HD
ENDROOT
BRANCH   5   9
ATOM      9  C   UNL     1      44.681   4.952  10.437  0.00  0.00    +0.000 C 
ATOM     10  N   UNL     1      45.430   5.058   9.296  0.00  0.00    +0.000 N 
ATOM     11  O   UNL     1      43.467   4.800  10.396  0.00  0.00    +0.000 OA
ATOM     12  H   UNL     1      46.433   5.187   9.356  0.00  0.00    +0.000 HD
ATOM     13  H   UNL     1      44.971   5.013   8.400  0.00  0.00    +0.000 HD
ENDBRANCH   5   9
BRANCH   1  14
ATOM     14  C   UNL     1      47.064   4.107  16.270  0.00  0.00    +0.000 C 
BRANCH  14  16
ATOM     15  C   UNL     1      49.091   2.709  17.025  0.00  0.00    +0.000 C 
ATOM     16  C   UNL     1      48.217   3.909  17.213  0.00  0.00    +0.000 C 
BRANCH  16  17
ATOM     17  C   UNL     1      48.159   4.580  18.519  0.00  0.00    +0.000 A 
ATOM     18  C   UNL     1      47.292   5.660  18.736  0.00  0.00    +0.000 A 
ATOM     19  C   UNL     1      47.154   6.211  20.012  0.00  0.00    +0.000 A 
ATOM     20  C   UNL     1      47.878   5.685  21.081  0.00  0.00    +0.000 A 
ATOM     21  C   UNL     1      48.768   4.635  20.866  0.00  0.00    +0.000 A 
ATOM     22  C   UNL     1      48.917   4.095  19.590  0.00  0.00    +0.000 A 
ENDBRANCH  16  17
ENDBRANCH  14  16
ENDBRANCH   1  14
TORSDOF 4
ENDMDL
