MODEL 1
REMARK VINA RESULT:    -8.520      0.000      0.000
REMARK INTER + INTRA:         -13.609
REMARK INTER:                 -12.505
REMARK INTRA:                  -1.104
REMARK UNBOUND:                -1.104
REMARK  Name = 
REMARK  8 active torsions:
REMARK  status: ('A' for Active; 'I' for Inactive)
REMARK    1  A    between atoms: C_2  and  C_4
REMARK    2  A    between atoms: C_7  and  N_8
REMARK    3  A    between atoms: N_8  and  C_9
REMARK    4  A    between atoms: C_9  and  C_10
REMARK    5  A    between atoms: C_10  and  C_11
REMARK    6  A    between atoms: C_10  and  C_13
REMARK    7  A    between atoms: C_17  and  O_18
REMARK    8  A    between atoms: O_18  and  C_19
REMARK                            x       y       z     vdW  Elec       q    Type
REMARK                         _______ _______ _______ _____ _____    ______ ____
ROOT
ATOM      1  C   UNL     1      44.765   4.713  12.013  0.00  0.00    +0.000 C 
ENDROOT
BRANCH   1   2
ATOM      2  C   UNL     1      46.016   5.429  12.525  0.00  0.00    +0.000 A 
ATOM      3  C   UNL     1      46.617   6.482  11.821  0.00  0.00    +0.000 A 
ATOM      4  C   UNL     1      47.800   7.069  12.280  0.00  0.00    +0.000 A 
ATOM      5  C   UNL     1      48.375   6.654  13.480  0.00  0.00    +0.000 A 
ATOM      6  C   UNL     1      47.744   5.673  14.239  0.00  0.00    +0.000 A 
ATOM      7  C   UNL     1      46.578   5.062  13.761  0.00  0.00    +0.000 A 
BRANCH   6   8
ATOM      8  O   UNL     1      48.150   5.266  15.486  0.00  0.00    +0.000 OA
BRANCH   8   9
ATOM      9  C   UNL     1      47.351   4.300  16.208  0.00  0.00    +0.000 C 
ATOM     10  C   UNL     1      47.140   4.551  17.714  0.00  0.00    +0.000 C 
ATOM     11  N   UNL     1      47.660   3.213  18.031  0.00  0.00    +0.000 NA
ATOM     12  C   UNL     1      48.103   3.026  16.643  0.00  0.00    +0.000 C 
ATOM     13  H   UNL     1      46.949   2.550  18.335  0.00  0.00    +0.000 HD
ENDBRANCH   8   9
ENDBRANCH   6   8
ENDBRANCH   1   2
BRANCH   1  14
ATOM     14  C   UNL     1      43.905   4.243  13.189  0.00  0.00    +0.000 C 
ATOM     15  F   UNL     1      42.714   4.905  13.194  0.00  0.00    +0.000 F 
ENDBRANCH   1  14
BRANCH   1  16
ATOM     16  C   UNL     1      43.941   5.561  11.014  0.00  0.00    +0.000 C 
BRANCH  16  17
ATOM     17  N   UNL     1      43.653   4.833   9.778  0.00  0.00    +0.000 N 
ATOM     18  H   UNL     1      43.037   5.354   9.154  0.00  0.00    +0.000 HD
BRANCH  17  22
ATOM     19  C   UNL     1      46.416   2.353   7.777  0.00  0.00    +0.000 A 
ATOM     20  C   UNL     1      46.518   3.742   7.646  0.00  0.00    +0.000 A 
ATOM     21  C   UNL     1      45.613   4.586   8.308  0.00  0.00    +0.000 A 
ATOM     22  C   UNL     1      44.569   4.070   9.070  0.00  0.00    +0.000 A 
ATOM     23  C   UNL     1      44.502   2.673   9.215  0.00  0.00    +0.000 A 
ATOM     24  C   UNL     1      45.402   1.819   8.570  0.00  0.00    +0.000 A 
BRANCH  19  26
ATOM     25  N   UNL     1      48.421   1.971   6.451  0.00  0.00    +0.000 N 
ATOM     26  C   UNL     1      47.342   1.416   7.083  0.00  0.00    +0.000 C 
ATOM     27  O   UNL     1      47.175   0.208   7.107  0.00  0.00    +0.000 OA
ATOM     28  H   UNL     1      49.101   1.320   6.081  0.00  0.00    +0.000 HD
ATOM     29  H   UNL     1      48.730   2.911   6.644  0.00  0.00    +0.000 HD
ENDBRANCH  19  26
ENDBRANCH  17  22
ENDBRANCH  16  17
ENDBRANCH   1  16
TORSDOF 8
ENDMDL
MODEL 2
REMARK VINA RESULT:    -8.514      0.980      1.466
REMARK INTER + INTRA:         -13.601
REMARK INTER:                 -12.494
REMARK INTRA:                  -1.107
REMARK UNBOUND:                -1.104
REMARK  Name = 
REMARK  8 active torsions:
REMARK  status: ('A' for Active; 'I' for Inactive)
REMARK    1  A    between atoms: C_2  and  C_4
REMARK    2  A    between atoms: C_7  and  N_8
REMARK    3  A    between atoms: N_8  and  C_9
REMARK    4  A    between atoms: C_9  and  C_10
REMARK    5  A    between atoms: C_10  and  C_11
REMARK    6  A    between atoms: C_10  and  C_13
REMARK    7  A    between atoms: C_17  and  O_18
REMARK    8  A    between atoms: O_18  and  C_19
REMARK                            x       y       z     vdW  Elec       q    Type
REMARK                         _______ _______ _______ _____ _____    ______ ____
ROOT
ATOM      1  C   UNL     1      43.962   4.856  12.424  0.00  0.00    +0.000 C 
ENDROOT
BRANCH   1   2
ATOM      2  C   UNL     1      45.371   5.399  12.673  0.00  0.00    +0.000 A 
ATOM      3  C   UNL     1      45.961   6.359  11.838  0.00  0.00    +0.000 A 
ATOM      4  C   UNL     1      47.276   6.783  12.051  0.00  0.00    +0.000 A 
ATOM      5  C   UNL     1      48.008   6.300  13.134  0.00  0.00    +0.000 A 
ATOM      6  C   UNL     1      47.407   5.416  14.027  0.00  0.00    +0.000 A 
ATOM      7  C   UNL     1      46.102   4.965  13.792  0.00  0.00    +0.000 A 
BRANCH   6   8
ATOM      8  O   UNL     1      47.985   4.964  15.188  0.00  0.00    +0.000 OA
BRANCH   8   9
ATOM      9  C   UNL     1      47.198   4.164  16.101  0.00  0.00    +0.000 C 
ATOM     10  C   UNL     1      47.094   4.661  17.556  0.00  0.00    +0.000 C 
ATOM     11  N   UNL     1      47.583   3.368  18.055  0.00  0.00    +0.000 NA
ATOM     12  C   UNL     1      47.930   2.941  16.693  0.00  0.00    +0.000 C 
ATOM     13  H   UNL     1      46.869   2.795  18.503  0.00  0.00    +0.000 HD
ENDBRANCH   8   9
ENDBRANCH   6   8
ENDBRANCH   1   2
BRANCH   1  14
ATOM     14  C   UNL     1      43.184   5.802  11.505  0.00  0.00    +0.000 C 
ATOM     15  F   UNL     1      41.859   5.780  11.822  0.00  0.00    +0.000 F 
ENDBRANCH   1  14
BRANCH   1  16
ATOM     16  C   UNL     1      43.952   3.407  11.882  0.00  0.00    +0.000 C 
BRANCH  16  17
ATOM     17  N   UNL     1      43.712   3.358  10.439  0.00  0.00    +0.000 N 
ATOM     18  H   UNL     1      43.092   4.103  10.122  0.00  0.00    +0.000 HD
BRANCH  17  22
ATOM     19  C   UNL     1      46.544   2.581   7.412  0.00  0.00    +0.000 A 
ATOM     20  C   UNL     1      46.076   1.526   8.202  0.00  0.00    +0.000 A 
ATOM     21  C   UNL     1      45.128   1.762   9.211  0.00  0.00    +0.000 A 
ATOM     22  C   UNL     1      44.666   3.046   9.483  0.00  0.00    +0.000 A 
ATOM     23  C   UNL     1      45.126   4.088   8.658  0.00  0.00    +0.000 A 
ATOM     24  C   UNL     1      46.062   3.868   7.643  0.00  0.00    +0.000 A 
BRANCH  19  26
ATOM     25  N   UNL     1      47.514   3.252   5.283  0.00  0.00    +0.000 N 
ATOM     26  C   UNL     1      47.560   2.385   6.341  0.00  0.00    +0.000 C 
ATOM     27  O   UNL     1      48.419   1.523   6.416  0.00  0.00    +0.000 OA
ATOM     28  H   UNL     1      48.274   3.182   4.620  0.00  0.00    +0.000 HD
ATOM     29  H   UNL     1      47.008   4.123   5.325  0.00  0.00    +0.000 HD
ENDBRANCH  19  26
ENDBRANCH  17  22
ENDBRANCH  16  17
ENDBRANCH   1  16
TORSDOF 8
ENDMDL
MODEL 3
REMARK VINA RESULT:    -7.701      2.783      3.534
REMARK INTER + INTRA:         -12.407
REMARK INTER:                 -11.298
REMARK INTRA:                  -1.109
REMARK UNBOUND:                -1.104
REMARK  Name = 
REMARK  8 active torsions:
REMARK  status: ('A' for Active; 'I' for Inactive)
REMARK    1  A    between atoms: C_2  and  C_4
REMARK    2  A    between atoms: C_7  and  N_8
REMARK    3  A    between atoms: N_8  and  C_9
REMARK    4  A    between atoms: C_9  and  C_10
REMARK    5  A    between atoms: C_10  and  C_11
REMARK    6  A    between atoms: C_10  and  C_13
REMARK    7  A    between atoms: C_17  and  O_18
REMARK    8  A    between atoms: O_18  and  C_19
REMARK                            x       y       z     vdW  Elec       q    Type
REMARK                         _______ _______ _______ _____ _____    ______ ____
ROOT
ATOM      1  C   UNL     1      45.331   5.233  11.744  0.00  0.00    +0.000 C 
ENDROOT
BRANCH   1   2
ATOM      2  C   UNL     1      45.856   6.622  12.115  0.00  0.00    +0.000 A 
ATOM      3  C   UNL     1      45.045   7.765  12.070  0.00  0.00    +0.000 A 
ATOM      4  C   UNL     1      45.572   9.030  12.347  0.00  0.00    +0.000 A 
ATOM      5  C   UNL     1      46.906   9.171  12.729  0.00  0.00    +0.000 A 
ATOM      6  C   UNL     1      47.702   8.038  12.869  0.00  0.00    +0.000 A 
ATOM      7  C   UNL     1      47.182   6.775  12.557  0.00  0.00    +0.000 A 
BRANCH   6   8
ATOM      8  O   UNL     1      48.989   8.040  13.348  0.00  0.00    +0.000 OA
BRANCH   8   9
ATOM      9  C   UNL     1      50.034   8.657  12.560  0.00  0.00    +0.000 C 
ATOM     10  C   UNL     1      50.601   7.837  11.385  0.00  0.00    +0.000 C 
ATOM     11  N   UNL     1      51.965   7.991  11.910  0.00  0.00    +0.000 NA
ATOM     12  C   UNL     1      51.450   8.559  13.163  0.00  0.00    +0.000 C 
ATOM     13  H   UNL     1      52.551   8.629  11.373  0.00  0.00    +0.000 HD
ENDBRANCH   8   9
ENDBRANCH   6   8
ENDBRANCH   1   2
BRANCH   1  14
ATOM     14  C   UNL     1      45.514   4.267  12.917  0.00  0.00    +0.000 C 
ATOM     15  F   UNL     1      45.677   2.995  12.456  0.00  0.00    +0.000 F 
ENDBRANCH   1  14
BRANCH   1  16
ATOM     16  C   UNL     1      43.865   5.246  11.247  0.00  0.00    +0.000 C 
BRANCH  16  17
ATOM     17  N   UNL     1      43.761   4.916   9.825  0.00  0.00    +0.000 N 
ATOM     18  H   UNL     1      43.530   5.728   9.252  0.00  0.00    +0.000 HD
BRANCH  17  22
ATOM     19  C   UNL     1      46.256   2.089   7.934  0.00  0.00    +0.000 A 
ATOM     20  C   UNL     1      46.444   3.451   7.679  0.00  0.00    +0.000 A 
ATOM     21  C   UNL     1      45.628   4.409   8.302  0.00  0.00    +0.000 A 
ATOM     22  C   UNL     1      44.590   4.033   9.149  0.00  0.00    +0.000 A 
ATOM     23  C   UNL     1      44.438   2.662   9.418  0.00  0.00    +0.000 A 
ATOM     24  C   UNL     1      45.248   1.696   8.813  0.00  0.00    +0.000 A 
BRANCH  19  26
ATOM     25  N   UNL     1      46.827  -0.260   7.650  0.00  0.00    +0.000 N 
ATOM     26  C   UNL     1      47.084   1.034   7.287  0.00  0.00    +0.000 C 
ATOM     27  O   UNL     1      47.923   1.300   6.443  0.00  0.00    +0.000 OA
ATOM     28  H   UNL     1      47.315  -0.973   7.124  0.00  0.00    +0.000 HD
ATOM     29  H   UNL     1      45.977  -0.526   8.122  0.00  0.00    +0.000 HD
ENDBRANCH  19  26
ENDBRANCH  17  22
ENDBRANCH  16  17
ENDBRANCH   1  16
TORSDOF 8
ENDMDL
MODEL 4
REMARK VINA RESULT:    -7.234      2.470      3.488
REMARK INTER + INTRA:         -11.722
REMARK INTER:                 -10.676
REMARK INTRA:                  -1.046
REMARK UNBOUND:                -1.104
REMARK  Name = 
REMARK  8 active torsions:
REMARK  status: ('A' for Active; 'I' for Inactive)
REMARK    1  A    between atoms: C_2  and  C_4
REMARK    2  A    between atoms: C_7  and  N_8
REMARK    3  A    between atoms: N_8  and  C_9
REMARK    4  A    between atoms: C_9  and  C_10
REMARK    5  A    between atoms: C_10  and  C_11
REMARK    6  A    between atoms: C_10  and  C_13
REMARK    7  A    between atoms: C_17  and  O_18
REMARK    8  A    between atoms: O_18  and  C_19
REMARK                            x       y       z     vdW  Elec       q    Type
REMARK                         _______ _______ _______ _____ _____    ______ ____
ROOT
ATOM      1  C   UNL     1      44.602   3.884  11.629  0.00  0.00    +0.000 C 
ENDROOT
BRANCH   1   2
ATOM      2  C   UNL     1      45.673   4.623  12.435  0.00  0.00    +0.000 A 
ATOM      3  C   UNL     1      46.283   4.057  13.564  0.00  0.00    +0.000 A 
ATOM      4  C   UNL     1      47.208   4.784  14.319  0.00  0.00    +0.000 A 
ATOM      5  C   UNL     1      47.583   6.069  13.930  0.00  0.00    +0.000 A 
ATOM      6  C   UNL     1      47.058   6.612  12.761  0.00  0.00    +0.000 A 
ATOM      7  C   UNL     1      46.106   5.896  12.025  0.00  0.00    +0.000 A 
BRANCH   6   8
ATOM      8  O   UNL     1      47.438   7.814  12.217  0.00  0.00    +0.000 OA
BRANCH   8   9
ATOM      9  C   UNL     1      47.111   9.039  12.915  0.00  0.00    +0.000 C 
ATOM     10  C   UNL     1      47.034  10.326  12.072  0.00  0.00    +0.000 C 
ATOM     11  N   UNL     1      48.006  10.987  12.953  0.00  0.00    +0.000 NA
ATOM     12  C   UNL     1      48.296   9.717  13.633  0.00  0.00    +0.000 C 
ATOM     13  H   UNL     1      47.604  11.701  13.559  0.00  0.00    +0.000 HD
ENDBRANCH   8   9
ENDBRANCH   6   8
ENDBRANCH   1   2
BRANCH   1  14
ATOM     14  C   UNL     1      43.887   2.860  12.514  0.00  0.00    +0.000 C 
ATOM     15  F   UNL     1      42.995   2.142  11.774  0.00  0.00    +0.000 F 
ENDBRANCH   1  14
BRANCH   1  16
ATOM     16  C   UNL     1      43.596   4.833  10.936  0.00  0.00    +0.000 C 
BRANCH  16  17
ATOM     17  N   UNL     1      43.630   4.706   9.479  0.00  0.00    +0.000 N 
ATOM     18  H   UNL     1      43.249   5.526   9.007  0.00  0.00    +0.000 HD
BRANCH  17  22
ATOM     19  C   UNL     1      46.741   2.779   7.382  0.00  0.00    +0.000 A 
ATOM     20  C   UNL     1      46.782   4.166   7.550  0.00  0.00    +0.000 A 
ATOM     21  C   UNL     1      45.760   4.827   8.250  0.00  0.00    +0.000 A 
ATOM     22  C   UNL     1      44.664   4.133   8.753  0.00  0.00    +0.000 A 
ATOM     23  C   UNL     1      44.656   2.736   8.601  0.00  0.00    +0.000 A 
ATOM     24  C   UNL     1      45.671   2.061   7.915  0.00  0.00    +0.000 A 
BRANCH  19  26
ATOM     25  N   UNL     1      48.262   2.614   5.489  0.00  0.00    +0.000 N 
ATOM     26  C   UNL     1      47.793   2.033   6.635  0.00  0.00    +0.000 C 
ATOM     27  O   UNL     1      48.246   0.977   7.042  0.00  0.00    +0.000 OA
ATOM     28  H   UNL     1      49.052   2.157   5.053  0.00  0.00    +0.000 HD
ATOM     29  H   UNL     1      48.113   3.589   5.282  0.00  0.00    +0.000 HD
ENDBRANCH  19  26
ENDBRANCH  17  22
ENDBRANCH  16  17
ENDBRANCH   1  16
TORSDOF 8
ENDMDL
MODEL 5
REMARK VINA RESULT:    -6.991      2.015      8.182
REMARK INTER + INTRA:         -11.366
REMARK INTER:                 -10.796
REMARK INTRA:                  -0.570
REMARK UNBOUND:                -1.104
REMARK  Name = 
REMARK  8 active torsions:
REMARK  status: ('A' for Active; 'I' for Inactive)
REMARK    1  A    between atoms: C_2  and  C_4
REMARK    2  A    between atoms: C_7  and  N_8
REMARK    3  A    between atoms: N_8  and  C_9
REMARK    4  A    between atoms: C_9  and  C_10
REMARK    5  A    between atoms: C_10  and  C_11
REMARK    6  A    between atoms: C_10  and  C_13
REMARK    7  A    between atoms: C_17  and  O_18
REMARK    8  A    between atoms: O_18  and  C_19
REMARK                            x       y       z     vdW  Elec       q    Type
REMARK                         _______ _______ _______ _____ _____    ______ ____
ROOT
ATOM      1  C   UNL     1      45.517   6.021  11.500  0.00  0.00    +0.000 C 
ENDROOT
BRANCH   1   2
ATOM      2  C   UNL     1      45.199   4.831  10.594  0.00  0.00    +0.000 A 
ATOM      3  C   UNL     1      44.370   3.777  11.005  0.00  0.00    +0.000 A 
ATOM      4  C   UNL     1      44.154   2.670  10.181  0.00  0.00    +0.000 A 
ATOM      5  C   UNL     1      44.718   2.618   8.907  0.00  0.00    +0.000 A 
ATOM      6  C   UNL     1      45.468   3.695   8.445  0.00  0.00    +0.000 A 
ATOM      7  C   UNL     1      45.712   4.788   9.286  0.00  0.00    +0.000 A 
BRANCH   6   8
ATOM      8  O   UNL     1      45.974   3.808   7.173  0.00  0.00    +0.000 OA
BRANCH   8   9
ATOM      9  C   UNL     1      46.444   2.621   6.492  0.00  0.00    +0.000 C 
ATOM     10  C   UNL     1      47.677   1.915   7.088  0.00  0.00    +0.000 C 
ATOM     11  N   UNL     1      48.375   1.999   5.797  0.00  0.00    +0.000 NA
ATOM     12  C   UNL     1      47.333   2.885   5.260  0.00  0.00    +0.000 C 
ATOM     13  H   UNL     1      48.458   1.109   5.308  0.00  0.00    +0.000 HD
ENDBRANCH   8   9
ENDBRANCH   6   8
ENDBRANCH   1   2
BRANCH   1  14
ATOM     14  C   UNL     1      44.458   7.114  11.332  0.00  0.00    +0.000 C 
ATOM     15  F   UNL     1      43.211   6.563  11.338  0.00  0.00    +0.000 F 
ENDBRANCH   1  14
BRANCH   1  16
ATOM     16  C   UNL     1      45.693   5.629  12.987  0.00  0.00    +0.000 C 
BRANCH  16  17
ATOM     17  N   UNL     1      46.949   6.130  13.547  0.00  0.00    +0.000 N 
ATOM     18  H   UNL     1      47.044   7.140  13.449  0.00  0.00    +0.000 HD
BRANCH  17  22
ATOM     19  C   UNL     1      48.554   4.636  17.150  0.00  0.00    +0.000 A 
ATOM     20  C   UNL     1      49.043   5.836  16.625  0.00  0.00    +0.000 A 
ATOM     21  C   UNL     1      48.519   6.354  15.430  0.00  0.00    +0.000 A 
ATOM     22  C   UNL     1      47.538   5.673  14.716  0.00  0.00    +0.000 A 
ATOM     23  C   UNL     1      47.038   4.484  15.275  0.00  0.00    +0.000 A 
ATOM     24  C   UNL     1      47.542   3.959  16.470  0.00  0.00    +0.000 A 
BRANCH  19  26
ATOM     25  N   UNL     1      48.317   3.079  19.006  0.00  0.00    +0.000 N 
ATOM     26  C   UNL     1      49.087   4.037  18.405  0.00  0.00    +0.000 C 
ATOM     27  O   UNL     1      50.175   4.351  18.858  0.00  0.00    +0.000 OA
ATOM     28  H   UNL     1      48.739   2.601  19.791  0.00  0.00    +0.000 HD
ATOM     29  H   UNL     1      47.567   2.612  18.521  0.00  0.00    +0.000 HD
ENDBRANCH  19  26
ENDBRANCH  17  22
ENDBRANCH  16  17
ENDBRANCH   1  16
TORSDOF 8
ENDMDL
MODEL 6
REMARK VINA RESULT:    -6.555      3.032      4.483
REMARK INTER + INTRA:         -10.726
REMARK INTER:                  -9.461
REMARK INTRA:                  -1.265
REMARK UNBOUND:                -1.104
REMARK  Name = 
REMARK  8 active torsions:
REMARK  status: ('A' for Active; 'I' for Inactive)
REMARK    1  A    between atoms: C_2  and  C_4
REMARK    2  A    between atoms: C_7  and  N_8
REMARK    3  A    between atoms: N_8  and  C_9
REMARK    4  A    between atoms: C_9  and  C_10
REMARK    5  A    between atoms: C_10  and  C_11
REMARK    6  A    between atoms: C_10  and  C_13
REMARK    7  A    between atoms: C_17  and  O_18
REMARK    8  A    between atoms: O_18  and  C_19
REMARK                            x       y       z     vdW  Elec       q    Type
REMARK                         _______ _______ _______ _____ _____    ______ ____
ROOT
ATOM      1  C   UNL     1      48.350   8.518  13.007  0.00  0.00    +0.000 C 
ENDROOT
BRANCH   1   2
ATOM      2  C   UNL     1      48.502   8.127  14.478  0.00  0.00    +0.000 A 
ATOM      3  C   UNL     1      48.334   9.051  15.519  0.00  0.00    +0.000 A 
ATOM      4  C   UNL     1      48.548   8.680  16.850  0.00  0.00    +0.000 A 
ATOM      5  C   UNL     1      48.879   7.365  17.171  0.00  0.00    +0.000 A 
ATOM      6  C   UNL     1      48.960   6.412  16.160  0.00  0.00    +0.000 A 
ATOM      7  C   UNL     1      48.780   6.793  14.825  0.00  0.00    +0.000 A 
BRANCH   6   8
ATOM      8  O   UNL     1      49.164   5.069  16.365  0.00  0.00    +0.000 OA
BRANCH   8   9
ATOM      9  C   UNL     1      48.499   4.416  17.472  0.00  0.00    +0.000 C 
ATOM     10  C   UNL     1      48.401   2.879  17.421  0.00  0.00    +0.000 C 
ATOM     11  N   UNL     1      46.942   2.946  17.584  0.00  0.00    +0.000 NA
ATOM     12  C   UNL     1      46.959   4.402  17.392  0.00  0.00    +0.000 C 
ATOM     13  H   UNL     1      46.610   2.650  18.501  0.00  0.00    +0.000 HD
ENDBRANCH   8   9
ENDBRANCH   6   8
ENDBRANCH   1   2
BRANCH   1  14
ATOM     14  C   UNL     1      49.069   7.504  12.112  0.00  0.00    +0.000 C 
ATOM     15  F   UNL     1      48.306   7.217  11.021  0.00  0.00    +0.000 F 
ENDBRANCH   1  14
BRANCH   1  16
ATOM     16  C   UNL     1      46.877   8.709  12.573  0.00  0.00    +0.000 C 
BRANCH  16  17
ATOM     17  N   UNL     1      45.971   7.800  13.276  0.00  0.00    +0.000 N 
ATOM     18  H   UNL     1      45.224   8.294  13.763  0.00  0.00    +0.000 HD
BRANCH  17  22
ATOM     19  C   UNL     1      44.504   4.170  11.708  0.00  0.00    +0.000 A 
ATOM     20  C   UNL     1      45.219   4.160  12.909  0.00  0.00    +0.000 A 
ATOM     21  C   UNL     1      45.711   5.358  13.452  0.00  0.00    +0.000 A 
ATOM     22  C   UNL     1      45.543   6.572  12.794  0.00  0.00    +0.000 A 
ATOM     23  C   UNL     1      44.795   6.566  11.603  0.00  0.00    +0.000 A 
ATOM     24  C   UNL     1      44.289   5.383  11.055  0.00  0.00    +0.000 A 
BRANCH  19  26
ATOM     25  N   UNL     1      44.688   2.411  10.035  0.00  0.00    +0.000 N 
ATOM     26  C   UNL     1      43.974   2.925  11.083  0.00  0.00    +0.000 C 
ATOM     27  O   UNL     1      42.978   2.365  11.507  0.00  0.00    +0.000 OA
ATOM     28  H   UNL     1      44.384   1.509   9.694  0.00  0.00    +0.000 HD
ATOM     29  H   UNL     1      45.639   2.687   9.847  0.00  0.00    +0.000 HD
ENDBRANCH  19  26
ENDBRANCH  17  22
ENDBRANCH  16  17
ENDBRANCH   1  16
TORSDOF 8
ENDMDL
MODEL 7
REMARK VINA RESULT:    -6.181      2.970      7.890
REMARK INTER + INTRA:         -10.177
REMARK INTER:                  -9.291
REMARK INTRA:                  -0.886
REMARK UNBOUND:                -1.104
REMARK  Name = 
REMARK  8 active torsions:
REMARK  status: ('A' for Active; 'I' for Inactive)
REMARK    1  A    between atoms: C_2  and  C_4
REMARK    2  A    between atoms: C_7  and  N_8
REMARK    3  A    between atoms: N_8  and  C_9
REMARK    4  A    between atoms: C_9  and  C_10
REMARK    5  A    between atoms: C_10  and  C_11
REMARK    6  A    between atoms: C_10  and  C_13
REMARK    7  A    between atoms: C_17  and  O_18
REMARK    8  A    between atoms: O_18  and  C_19
REMARK                            x       y       z     vdW  Elec       q    Type
REMARK                         _______ _______ _______ _____ _____    ______ ____
ROOT
ATOM      1  C   UNL     1      45.058   5.679  11.327  0.00  0.00    +0.000 C 
ENDROOT
BRANCH   1   2
ATOM      2  C   UNL     1      44.875   4.416  10.483  0.00  0.00    +0.000 A 
ATOM      3  C   UNL     1      44.196   3.287  10.963  0.00  0.00    +0.000 A 
ATOM      4  C   UNL     1      44.106   2.123  10.195  0.00  0.00    +0.000 A 
ATOM      5  C   UNL     1      44.644   2.082   8.910  0.00  0.00    +0.000 A 
ATOM      6  C   UNL     1      45.241   3.223   8.380  0.00  0.00    +0.000 A 
ATOM      7  C   UNL     1      45.361   4.377   9.165  0.00  0.00    +0.000 A 
BRANCH   6   8
ATOM      8  O   UNL     1      45.701   3.339   7.091  0.00  0.00    +0.000 OA
BRANCH   8   9
ATOM      9  C   UNL     1      47.115   3.181   6.830  0.00  0.00    +0.000 C 
ATOM     10  C   UNL     1      47.532   2.911   5.371  0.00  0.00    +0.000 C 
ATOM     11  N   UNL     1      48.254   1.698   5.781  0.00  0.00    +0.000 NA
ATOM     12  C   UNL     1      47.682   1.779   7.131  0.00  0.00    +0.000 C 
ATOM     13  H   UNL     1      49.269   1.786   5.752  0.00  0.00    +0.000 HD
ENDBRANCH   8   9
ENDBRANCH   6   8
ENDBRANCH   1   2
BRANCH   1  14
ATOM     14  C   UNL     1      45.094   5.322  12.815  0.00  0.00    +0.000 C 
ATOM     15  F   UNL     1      46.262   4.690  13.118  0.00  0.00    +0.000 F 
ENDBRANCH   1  14
BRANCH   1  16
ATOM     16  C   UNL     1      46.294   6.515  10.917  0.00  0.00    +0.000 C 
BRANCH  16  17
ATOM     17  N   UNL     1      46.582   7.583  11.875  0.00  0.00    +0.000 N 
ATOM     18  H   UNL     1      45.787   7.789  12.479  0.00  0.00    +0.000 HD
BRANCH  17  22
ATOM     19  C   UNL     1      50.349   8.033  13.718  0.00  0.00    +0.000 A 
ATOM     20  C   UNL     1      49.230   7.745  14.504  0.00  0.00    +0.000 A 
ATOM     21  C   UNL     1      47.968   7.585  13.910  0.00  0.00    +0.000 A 
ATOM     22  C   UNL     1      47.787   7.752  12.541  0.00  0.00    +0.000 A 
ATOM     23  C   UNL     1      48.929   8.012  11.764  0.00  0.00    +0.000 A 
ATOM     24  C   UNL     1      50.195   8.164  12.339  0.00  0.00    +0.000 A 
BRANCH  19  26
ATOM     25  N   UNL     1      52.771   7.918  13.500  0.00  0.00    +0.000 N 
ATOM     26  C   UNL     1      51.706   8.227  14.301  0.00  0.00    +0.000 C 
ATOM     27  O   UNL     1      51.867   8.679  15.423  0.00  0.00    +0.000 OA
ATOM     28  H   UNL     1      53.683   8.160  13.863  0.00  0.00    +0.000 HD
ATOM     29  H   UNL     1      52.678   7.812  12.502  0.00  0.00    +0.000 HD
ENDBRANCH  19  26
ENDBRANCH  17  22
ENDBRANCH  16  17
ENDBRANCH   1  16
TORSDOF 8
ENDMDL
MODEL 8
REMARK VINA RESULT:    -6.098      2.275      7.977
REMARK INTER + INTRA:         -10.054
REMARK INTER:                  -9.251
REMARK INTRA:                  -0.803
REMARK UNBOUND:                -1.104
REMARK  Name = 
REMARK  8 active torsions:
REMARK  status: ('A' for Active; 'I' for Inactive)
REMARK    1  A    between atoms: C_2  and  C_4
REMARK    2  A    between atoms: C_7  and  N_8
REMARK    3  A    between atoms: N_8  and  C_9
REMARK    4  A    between atoms: C_9  and  C_10
REMARK    5  A    between atoms: C_10  and  C_11
REMARK    6  A    between atoms: C_10  and  C_13
REMARK    7  A    between atoms: C_17  and  O_18
REMARK    8  A    between atoms: O_18  and  C_19
REMARK                            x       y       z     vdW  Elec       q    Type
REMARK                         _______ _______ _______ _____ _____    ______ ____
ROOT
ATOM      1  C   UNL     1      46.147   7.003  12.010  0.00  0.00    +0.000 C 
ENDROOT
BRANCH   1   2
ATOM      2  C   UNL     1      45.137   5.856  11.936  0.00  0.00    +0.000 A 
ATOM      3  C   UNL     1      44.124   5.688  12.891  0.00  0.00    +0.000 A 
ATOM      4  C   UNL     1      43.260   4.591  12.834  0.00  0.00    +0.000 A 
ATOM      5  C   UNL     1      43.355   3.670  11.792  0.00  0.00    +0.000 A 
ATOM      6  C   UNL     1      44.294   3.870  10.784  0.00  0.00    +0.000 A 
ATOM      7  C   UNL     1      45.182   4.951  10.862  0.00  0.00    +0.000 A 
BRANCH   6   8
ATOM      8  O   UNL     1      44.404   3.100   9.653  0.00  0.00    +0.000 OA
BRANCH   8   9
ATOM      9  C   UNL     1      45.686   3.000   8.989  0.00  0.00    +0.000 C 
ATOM     10  C   UNL     1      45.772   3.539   7.549  0.00  0.00    +0.000 C 
ATOM     11  N   UNL     1      46.289   2.247   7.075  0.00  0.00    +0.000 NA
ATOM     12  C   UNL     1      45.994   1.621   8.370  0.00  0.00    +0.000 C 
ATOM     13  H   UNL     1      47.279   2.256   6.831  0.00  0.00    +0.000 HD
ENDBRANCH   8   9
ENDBRANCH   6   8
ENDBRANCH   1   2
BRANCH   1  14
ATOM     14  C   UNL     1      45.419   8.350  12.027  0.00  0.00    +0.000 C 
ATOM     15  F   UNL     1      44.516   8.408  11.009  0.00  0.00    +0.000 F 
ENDBRANCH   1  14
BRANCH   1  16
ATOM     16  C   UNL     1      47.130   6.876  13.199  0.00  0.00    +0.000 C 
BRANCH  16  17
ATOM     17  N   UNL     1      47.232   5.501  13.688  0.00  0.00    +0.000 N 
ATOM     18  H   UNL     1      47.696   4.884  13.022  0.00  0.00    +0.000 HD
BRANCH  17  22
ATOM     19  C   UNL     1      48.268   4.512  17.656  0.00  0.00    +0.000 A 
ATOM     20  C   UNL     1      47.428   3.659  16.932  0.00  0.00    +0.000 A 
ATOM     21  C   UNL     1      47.076   3.967  15.608  0.00  0.00    +0.000 A 
ATOM     22  C   UNL     1      47.510   5.140  14.998  0.00  0.00    +0.000 A 
ATOM     23  C   UNL     1      48.378   5.968  15.731  0.00  0.00    +0.000 A 
ATOM     24  C   UNL     1      48.747   5.671  17.047  0.00  0.00    +0.000 A 
BRANCH  19  26
ATOM     25  N   UNL     1      48.338   3.006  19.566  0.00  0.00    +0.000 N 
ATOM     26  C   UNL     1      48.659   4.238  19.067  0.00  0.00    +0.000 C 
ATOM     27  O   UNL     1      49.271   5.053  19.736  0.00  0.00    +0.000 OA
ATOM     28  H   UNL     1      48.706   2.791  20.484  0.00  0.00    +0.000 HD
ATOM     29  H   UNL     1      48.089   2.233  18.969  0.00  0.00    +0.000 HD
ENDBRANCH  19  26
ENDBRANCH  17  22
ENDBRANCH  16  17
ENDBRANCH   1  16
TORSDOF 8
ENDMDL
MODEL 9
REMARK VINA RESULT:    -5.911      3.489      5.480
REMARK INTER + INTRA:          -9.780
REMARK INTER:                  -8.962
REMARK INTRA:                  -0.818
REMARK UNBOUND:                -1.104
REMARK  Name = 
REMARK  8 active torsions:
REMARK  status: ('A' for Active; 'I' for Inactive)
REMARK    1  A    between atoms: C_2  and  C_4
REMARK    2  A    between atoms: C_7  and  N_8
REMARK    3  A    between atoms: N_8  and  C_9
REMARK    4  A    between atoms: C_9  and  C_10
REMARK    5  A    between atoms: C_10  and  C_11
REMARK    6  A    between atoms: C_10  and  C_13
REMARK    7  A    between atoms: C_17  and  O_18
REMARK    8  A    between atoms: O_18  and  C_19
REMARK                            x       y       z     vdW  Elec       q    Type
REMARK                         _______ _______ _______ _____ _____    ______ ____
ROOT
ATOM      1  C   UNL     1      48.629   6.810  15.836  0.00  0.00    +0.000 C 
ENDROOT
BRANCH   1   2
ATOM      2  C   UNL     1      48.677   5.461  16.556  0.00  0.00    +0.000 A 
ATOM      3  C   UNL     1      47.609   4.554  16.520  0.00  0.00    +0.000 A 
ATOM      4  C   UNL     1      47.656   3.361  17.246  0.00  0.00    +0.000 A 
ATOM      5  C   UNL     1      48.793   3.024  17.978  0.00  0.00    +0.000 A 
ATOM      6  C   UNL     1      49.900   3.868  17.952  0.00  0.00    +0.000 A 
ATOM      7  C   UNL     1      49.838   5.080  17.252  0.00  0.00    +0.000 A 
BRANCH   6   8
ATOM      8  O   UNL     1      51.111   3.588  18.535  0.00  0.00    +0.000 OA
BRANCH   8   9
ATOM      9  C   UNL     1      52.085   2.811  17.799  0.00  0.00    +0.000 C 
ATOM     10  C   UNL     1      51.754   1.327  17.552  0.00  0.00    +0.000 C 
ATOM     11  N   UNL     1      53.027   0.919  18.164  0.00  0.00    +0.000 NA
ATOM     12  C   UNL     1      53.270   2.288  18.637  0.00  0.00    +0.000 C 
ATOM     13  H   UNL     1      53.720   0.578  17.500  0.00  0.00    +0.000 HD
ENDBRANCH   8   9
ENDBRANCH   6   8
ENDBRANCH   1   2
BRANCH   1  14
ATOM     14  C   UNL     1      49.839   7.663  16.225  0.00  0.00    +0.000 C 
ATOM     15  F   UNL     1      50.486   8.097  15.107  0.00  0.00    +0.000 F 
ENDBRANCH   1  14
BRANCH   1  16
ATOM     16  C   UNL     1      48.501   6.678  14.299  0.00  0.00    +0.000 C 
BRANCH  16  17
ATOM     17  N   UNL     1      47.181   7.085  13.817  0.00  0.00    +0.000 N 
ATOM     18  H   UNL     1      47.110   8.093  13.678  0.00  0.00    +0.000 HD
BRANCH  17  22
ATOM     19  C   UNL     1      44.942   4.778  11.086  0.00  0.00    +0.000 A 
ATOM     20  C   UNL     1      45.398   6.043  10.704  0.00  0.00    +0.000 A 
ATOM     21  C   UNL     1      46.150   6.825  11.596  0.00  0.00    +0.000 A 
ATOM     22  C   UNL     1      46.423   6.388  12.888  0.00  0.00    +0.000 A 
ATOM     23  C   UNL     1      45.982   5.100  13.243  0.00  0.00    +0.000 A 
ATOM     24  C   UNL     1      45.241   4.305  12.363  0.00  0.00    +0.000 A 
BRANCH  19  26
ATOM     25  N   UNL     1      44.060   4.293   8.870  0.00  0.00    +0.000 N 
ATOM     26  C   UNL     1      44.128   3.917  10.184  0.00  0.00    +0.000 C 
ATOM     27  O   UNL     1      43.581   2.902  10.581  0.00  0.00    +0.000 OA
ATOM     28  H   UNL     1      43.600   3.643   8.247  0.00  0.00    +0.000 HD
ATOM     29  H   UNL     1      44.709   4.950   8.466  0.00  0.00    +0.000 HD
ENDBRANCH  19  26
ENDBRANCH  17  22
ENDBRANCH  16  17
ENDBRANCH   1  16
TORSDOF 8
ENDMDL
