MODEL 1
REMARK VINA RESULT:    -8.525      0.000      0.000
REMARK INTER + INTRA:         -12.052
REMARK INTER:                 -11.266
REMARK INTRA:                  -0.786
REMARK UNBOUND:                -0.786
REMARK  Name = 
REMARK  6 active torsions:
REMARK  status: ('A' for Active; 'I' for Inactive)
REMARK    1  A    between atoms: C_2  and  C_4
REMARK    2  A    between atoms: C_7  and  O_8
REMARK    3  A    between atoms: O_8  and  C_9
REMARK    4  A    between atoms: C_9  and  C_10
REMARK    5  A    between atoms: C_14  and  N_15
REMARK    6  A    between atoms: C_18  and  O_19
REMARK                            x       y       z     vdW  Elec       q    Type
REMARK                         _______ _______ _______ _____ _____    ______ ____
ROOT
ATOM      1  C   UNL     1      44.645   4.495  12.030  0.00  0.00    +0.000 A 
ATOM      2  C   UNL     1      45.359   3.490  12.667  0.00  0.00    +0.000 A 
ATOM      3  N   UNL     1      46.427   3.711  13.455  0.00  0.00    +0.000 NA
ATOM      4  C   UNL     1      46.800   5.006  13.614  0.00  0.00    +0.000 A 
ATOM      5  C   UNL     1      46.183   6.117  13.028  0.00  0.00    +0.000 A 
ATOM      6  C   UNL     1      45.074   5.816  12.227  0.00  0.00    +0.000 A 
ENDROOT
BRANCH   5   7
ATOM      7  N   UNL     1      46.616   7.419  13.221  0.00  0.00    +0.000 N 
ATOM      8  C   UNL     1      48.038   7.743  13.338  0.00  0.00    +0.000 C 
ATOM      9  C   UNL     1      48.476   8.622  12.171  0.00  0.00    +0.000 C 
ATOM     10  C   UNL     1      47.566   9.838  12.002  0.00  0.00    +0.000 C 
ATOM     11  C   UNL     1      46.091   9.447  11.949  0.00  0.00    +0.000 C 
ATOM     12  C   UNL     1      45.687   8.546  13.115  0.00  0.00    +0.000 C 
BRANCH  10  13
ATOM     13  O   UNL     1      47.794  10.787  13.045  0.00  0.00    +0.000 OA
ATOM     14  H   UNL     1      46.994  10.856  13.592  0.00  0.00    +0.000 HD
ENDBRANCH  10  13
ENDBRANCH   5   7
BRANCH   1  15
ATOM     15  C   UNL     1      43.482   4.159  11.138  0.00  0.00    +0.000 C 
BRANCH  15  16
ATOM     16  O   UNL     1      43.663   4.705   9.825  0.00  0.00    +0.000 OA
BRANCH  16  20
ATOM     17  C   UNL     1      46.406   2.500   7.657  0.00  0.00    +0.000 A 
ATOM     18  C   UNL     1      45.501   1.834   8.488  0.00  0.00    +0.000 A 
ATOM     19  C   UNL     1      44.572   2.580   9.225  0.00  0.00    +0.000 A 
ATOM     20  C   UNL     1      44.578   3.966   9.094  0.00  0.00    +0.000 A 
ATOM     21  N   UNL     1      45.446   4.624   8.295  0.00  0.00    +0.000 NA
ATOM     22  C   UNL     1      46.347   3.885   7.608  0.00  0.00    +0.000 A 
BRANCH  17  24
ATOM     23  N   UNL     1      48.511   2.580   6.445  0.00  0.00    +0.000 N 
ATOM     24  C   UNL     1      47.445   1.827   6.852  0.00  0.00    +0.000 C 
ATOM     25  O   UNL     1      47.379   0.635   6.594  0.00  0.00    +0.000 OA
ATOM     26  H   UNL     1      49.264   2.073   5.992  0.00  0.00    +0.000 HD
ATOM     27  H   UNL     1      48.733   3.476   6.851  0.00  0.00    +0.000 HD
ENDBRANCH  17  24
ENDBRANCH  16  20
ENDBRANCH  15  16
ENDBRANCH   1  15
TORSDOF 6
ENDMDL
MODEL 2
REMARK VINA RESULT:    -8.364      2.143      3.223
REMARK INTER + INTRA:         -11.839
REMARK INTER:                 -10.967
REMARK INTRA:                  -0.872
REMARK UNBOUND:                -0.786
REMARK  Name = 
REMARK  6 active torsions:
REMARK  status: ('A' for Active; 'I' for Inactive)
REMARK    1  A    between atoms: C_2  and  C_4
REMARK    2  A    between atoms: C_7  and  O_8
REMARK    3  A    between atoms: O_8  and  C_9
REMARK    4  A    between atoms: C_9  and  C_10
REMARK    5  A    between atoms: C_14  and  N_15
REMARK    6  A    between atoms: C_18  and  O_19
REMARK                            x       y       z     vdW  Elec       q    Type
REMARK                         _______ _______ _______ _____ _____    ______ ____
ROOT
ATOM      1  C   UNL     1      44.596   5.325  11.872  0.00  0.00    +0.000 A 
ATOM      2  C   UNL     1      44.519   6.691  11.644  0.00  0.00    +0.000 A 
ATOM      3  N   UNL     1      45.345   7.594  12.202  0.00  0.00    +0.000 NA
ATOM      4  C   UNL     1      46.300   7.104  13.033  0.00  0.00    +0.000 A 
ATOM      5  C   UNL     1      46.489   5.758  13.363  0.00  0.00    +0.000 A 
ATOM      6  C   UNL     1      45.600   4.872  12.741  0.00  0.00    +0.000 A 
ENDROOT
BRANCH   5   7
ATOM      7  N   UNL     1      47.479   5.317  14.227  0.00  0.00    +0.000 N 
ATOM      8  C   UNL     1      48.575   6.192  14.643  0.00  0.00    +0.000 C 
ATOM      9  C   UNL     1      48.502   6.453  16.144  0.00  0.00    +0.000 C 
ATOM     10  C   UNL     1      48.396   5.155  16.942  0.00  0.00    +0.000 C 
ATOM     11  C   UNL     1      47.276   4.254  16.426  0.00  0.00    +0.000 C 
ATOM     12  C   UNL     1      47.361   4.031  14.917  0.00  0.00    +0.000 C 
BRANCH  10  13
ATOM     13  O   UNL     1      49.641   4.456  16.937  0.00  0.00    +0.000 OA
ATOM     14  H   UNL     1      49.591   3.712  17.559  0.00  0.00    +0.000 HD
ENDBRANCH  10  13
ENDBRANCH   5   7
BRANCH   1  15
ATOM     15  C   UNL     1      43.611   4.385  11.234  0.00  0.00    +0.000 C 
BRANCH  15  16
ATOM     16  O   UNL     1      43.521   4.611   9.821  0.00  0.00    +0.000 OA
BRANCH  16  20
ATOM     17  C   UNL     1      46.363   2.414   7.777  0.00  0.00    +0.000 A 
ATOM     18  C   UNL     1      45.526   1.765   8.688  0.00  0.00    +0.000 A 
ATOM     19  C   UNL     1      44.563   2.509   9.383  0.00  0.00    +0.000 A 
ATOM     20  C   UNL     1      44.469   3.875   9.132  0.00  0.00    +0.000 A 
ATOM     21  N   UNL     1      45.271   4.517   8.254  0.00  0.00    +0.000 NA
ATOM     22  C   UNL     1      46.205   3.782   7.609  0.00  0.00    +0.000 A 
BRANCH  17  24
ATOM     23  N   UNL     1      48.437   2.527   6.515  0.00  0.00    +0.000 N 
ATOM     24  C   UNL     1      47.429   1.745   7.005  0.00  0.00    +0.000 C 
ATOM     25  O   UNL     1      47.435   0.534   6.843  0.00  0.00    +0.000 OA
ATOM     26  H   UNL     1      49.213   2.034   6.087  0.00  0.00    +0.000 HD
ATOM     27  H   UNL     1      48.608   3.466   6.844  0.00  0.00    +0.000 HD
ENDBRANCH  17  24
ENDBRANCH  16  20
ENDBRANCH  15  16
ENDBRANCH   1  15
TORSDOF 6
ENDMDL
MODEL 3
REMARK VINA RESULT:    -7.484      1.616      2.340
REMARK INTER + INTRA:         -10.677
REMARK INTER:                  -9.888
REMARK INTRA:                  -0.789
REMARK UNBOUND:                -0.786
REMARK  Name = 
REMARK  6 active torsions:
REMARK  status: ('A' for Active; 'I' for Inactive)
REMARK    1  A    between atoms: C_2  and  C_4
REMARK    2  A    between atoms: C_7  and  O_8
REMARK    3  A    between atoms: O_8  and  C_9
REMARK    4  A    between atoms: C_9  and  C_10
REMARK    5  A    between atoms: C_14  and  N_15
REMARK    6  A    between atoms: C_18  and  O_19
REMARK                            x       y       z     vdW  Elec       q    Type
REMARK                         _______ _______ _______ _____ _____    ______ ____
ROOT
ATOM      1  C   UNL     1      44.714   5.659  11.780  0.00  0.00    +0.000 A 
ATOM      2  C   UNL     1      44.001   6.776  11.373  0.00  0.00    +0.000 A 
ATOM      3  N   UNL     1      44.433   8.041  11.528  0.00  0.00    +0.000 NA
ATOM      4  C   UNL     1      45.643   8.196  12.123  0.00  0.00    +0.000 A 
ATOM      5  C   UNL     1      46.465   7.166  12.593  0.00  0.00    +0.000 A 
ATOM      6  C   UNL     1      45.958   5.874  12.392  0.00  0.00    +0.000 A 
ENDROOT
BRANCH   5   7
ATOM      7  N   UNL     1      47.690   7.386  13.201  0.00  0.00    +0.000 N 
ATOM      8  C   UNL     1      48.904   6.709  12.743  0.00  0.00    +0.000 C 
ATOM      9  C   UNL     1      49.899   7.725  12.193  0.00  0.00    +0.000 C 
ATOM     10  C   UNL     1      50.149   8.867  13.177  0.00  0.00    +0.000 C 
ATOM     11  C   UNL     1      48.847   9.496  13.668  0.00  0.00    +0.000 C 
ATOM     12  C   UNL     1      47.861   8.452  14.190  0.00  0.00    +0.000 C 
BRANCH  10  13
ATOM     13  O   UNL     1      50.935   8.417  14.281  0.00  0.00    +0.000 OA
ATOM     14  H   UNL     1      50.757   7.476  14.436  0.00  0.00    +0.000 HD
ENDBRANCH  10  13
ENDBRANCH   5   7
BRANCH   1  15
ATOM     15  C   UNL     1      44.144   4.279  11.600  0.00  0.00    +0.000 C 
BRANCH  15  16
ATOM     16  O   UNL     1      43.615   4.106  10.279  0.00  0.00    +0.000 OA
BRANCH  16  20
ATOM     17  C   UNL     1      46.425   2.480   7.720  0.00  0.00    +0.000 A 
ATOM     18  C   UNL     1      46.167   3.852   7.665  0.00  0.00    +0.000 A 
ATOM     19  C   UNL     1      45.214   4.405   8.531  0.00  0.00    +0.000 A 
ATOM     20  C   UNL     1      44.560   3.563   9.426  0.00  0.00    +0.000 A 
ATOM     21  N   UNL     1      44.798   2.234   9.491  0.00  0.00    +0.000 NA
ATOM     22  C   UNL     1      45.708   1.719   8.633  0.00  0.00    +0.000 A 
BRANCH  17  24
ATOM     23  N   UNL     1      48.496   2.470   6.449  0.00  0.00    +0.000 N 
ATOM     24  C   UNL     1      47.386   1.779   6.845  0.00  0.00    +0.000 C 
ATOM     25  O   UNL     1      47.218   0.613   6.520  0.00  0.00    +0.000 OA
ATOM     26  H   UNL     1      49.194   1.934   5.945  0.00  0.00    +0.000 HD
ATOM     27  H   UNL     1      48.800   3.320   6.901  0.00  0.00    +0.000 HD
ENDBRANCH  17  24
ENDBRANCH  16  20
ENDBRANCH  15  16
ENDBRANCH   1  15
TORSDOF 6
ENDMDL
MODEL 4
REMARK VINA RESULT:    -7.273      3.036      4.290
REMARK INTER + INTRA:         -10.398
REMARK INTER:                  -9.834
REMARK INTRA:                  -0.564
REMARK UNBOUND:                -0.786
REMARK  Name = 
REMARK  6 active torsions:
REMARK  status: ('A' for Active; 'I' for Inactive)
REMARK    1  A    between atoms: C_2  and  C_4
REMARK    2  A    between atoms: C_7  and  O_8
REMARK    3  A    between atoms: O_8  and  C_9
REMARK    4  A    between atoms: C_9  and  C_10
REMARK    5  A    between atoms: C_14  and  N_15
REMARK    6  A    between atoms: C_18  and  O_19
REMARK                            x       y       z     vdW  Elec       q    Type
REMARK                         _______ _______ _______ _____ _____    ______ ____
ROOT
ATOM      1  C   UNL     1      46.015   4.710  12.886  0.00  0.00    +0.000 A 
ATOM      2  C   UNL     1      46.550   5.840  12.284  0.00  0.00    +0.000 A 
ATOM      3  N   UNL     1      47.431   6.663  12.881  0.00  0.00    +0.000 NA
ATOM      4  C   UNL     1      47.795   6.339  14.148  0.00  0.00    +0.000 A 
ATOM      5  C   UNL     1      47.332   5.241  14.881  0.00  0.00    +0.000 A 
ATOM      6  C   UNL     1      46.424   4.422  14.197  0.00  0.00    +0.000 A 
ENDROOT
BRANCH   5   7
ATOM      7  N   UNL     1      47.735   4.965  16.177  0.00  0.00    +0.000 N 
ATOM      8  C   UNL     1      47.110   3.901  16.962  0.00  0.00    +0.000 C 
ATOM      9  C   UNL     1      48.124   2.805  17.269  0.00  0.00    +0.000 C 
ATOM     10  C   UNL     1      49.404   3.370  17.882  0.00  0.00    +0.000 C 
ATOM     11  C   UNL     1      49.979   4.517  17.055  0.00  0.00    +0.000 C 
ATOM     12  C   UNL     1      48.935   5.587  16.743  0.00  0.00    +0.000 C 
BRANCH  10  13
ATOM     13  O   UNL     1      49.175   3.791  19.228  0.00  0.00    +0.000 OA
ATOM     14  H   UNL     1      48.226   3.952  19.353  0.00  0.00    +0.000 HD
ENDBRANCH  10  13
ENDBRANCH   5   7
BRANCH   1  15
ATOM     15  C   UNL     1      45.009   3.861  12.160  0.00  0.00    +0.000 C 
BRANCH  15  16
ATOM     16  O   UNL     1      44.565   4.500  10.956  0.00  0.00    +0.000 OA
BRANCH  16  20
ATOM     17  C   UNL     1      46.335   2.830   7.615  0.00  0.00    +0.000 A 
ATOM     18  C   UNL     1      46.286   4.220   7.736  0.00  0.00    +0.000 A 
ATOM     19  C   UNL     1      45.685   4.788   8.868  0.00  0.00    +0.000 A 
ATOM     20  C   UNL     1      45.163   3.940   9.840  0.00  0.00    +0.000 A 
ATOM     21  N   UNL     1      45.202   2.594   9.737  0.00  0.00    +0.000 NA
ATOM     22  C   UNL     1      45.770   2.068   8.628  0.00  0.00    +0.000 A 
BRANCH  17  24
ATOM     23  N   UNL     1      47.278   2.862   5.375  0.00  0.00    +0.000 N 
ATOM     24  C   UNL     1      46.918   2.115   6.461  0.00  0.00    +0.000 C 
ATOM     25  O   UNL     1      47.112   0.909   6.491  0.00  0.00    +0.000 OA
ATOM     26  H   UNL     1      47.777   2.368   4.644  0.00  0.00    +0.000 HD
ATOM     27  H   UNL     1      47.381   3.865   5.413  0.00  0.00    +0.000 HD
ENDBRANCH  17  24
ENDBRANCH  16  20
ENDBRANCH  15  16
ENDBRANCH   1  15
TORSDOF 6
ENDMDL
MODEL 5
REMARK VINA RESULT:    -6.920      3.156      7.860
REMARK INTER + INTRA:          -9.932
REMARK INTER:                  -9.257
REMARK INTRA:                  -0.674
REMARK UNBOUND:                -0.786
REMARK  Name = 
REMARK  6 active torsions:
REMARK  status: ('A' for Active; 'I' for Inactive)
REMARK    1  A    between atoms: C_2  and  C_4
REMARK    2  A    between atoms: C_7  and  O_8
REMARK    3  A    between atoms: O_8  and  C_9
REMARK    4  A    between atoms: C_9  and  C_10
REMARK    5  A    between atoms: C_14  and  N_15
REMARK    6  A    between atoms: C_18  and  O_19
REMARK                            x       y       z     vdW  Elec       q    Type
REMARK                         _______ _______ _______ _____ _____    ______ ____
ROOT
ATOM      1  C   UNL     1      45.042   4.605  12.423  0.00  0.00    +0.000 A 
ATOM      2  C   UNL     1      44.077   3.832  13.051  0.00  0.00    +0.000 A 
ATOM      3  N   UNL     1      43.399   2.839  12.446  0.00  0.00    +0.000 NA
ATOM      4  C   UNL     1      43.706   2.607  11.144  0.00  0.00    +0.000 A 
ATOM      5  C   UNL     1      44.646   3.310  10.383  0.00  0.00    +0.000 A 
ATOM      6  C   UNL     1      45.319   4.325  11.077  0.00  0.00    +0.000 A 
ENDROOT
BRANCH   5   7
ATOM      7  N   UNL     1      44.910   3.032   9.052  0.00  0.00    +0.000 N 
ATOM      8  C   UNL     1      45.204   4.097   8.093  0.00  0.00    +0.000 C 
ATOM      9  C   UNL     1      46.631   3.959   7.572  0.00  0.00    +0.000 C 
ATOM     10  C   UNL     1      46.913   2.550   7.054  0.00  0.00    +0.000 C 
ATOM     11  C   UNL     1      46.531   1.477   8.071  0.00  0.00    +0.000 C 
ATOM     12  C   UNL     1      45.106   1.656   8.593  0.00  0.00    +0.000 C 
BRANCH  10  13
ATOM     13  O   UNL     1      46.241   2.324   5.814  0.00  0.00    +0.000 OA
ATOM     14  H   UNL     1      46.435   3.059   5.210  0.00  0.00    +0.000 HD
ENDBRANCH  10  13
ENDBRANCH   5   7
BRANCH   1  15
ATOM     15  C   UNL     1      45.729   5.721  13.163  0.00  0.00    +0.000 C 
BRANCH  15  16
ATOM     16  O   UNL     1      47.141   5.490  13.251  0.00  0.00    +0.000 OA
BRANCH  16  20
ATOM     17  C   UNL     1      48.315   4.733  17.141  0.00  0.00    +0.000 A 
ATOM     18  C   UNL     1      48.691   5.936  16.538  0.00  0.00    +0.000 A 
ATOM     19  C   UNL     1      48.295   6.194  15.219  0.00  0.00    +0.000 A 
ATOM     20  C   UNL     1      47.529   5.239  14.556  0.00  0.00    +0.000 A 
ATOM     21  N   UNL     1      47.158   4.071  15.125  0.00  0.00    +0.000 NA
ATOM     22  C   UNL     1      47.567   3.836  16.392  0.00  0.00    +0.000 A 
BRANCH  17  24
ATOM     23  N   UNL     1      48.337   3.084  18.926  0.00  0.00    +0.000 N 
ATOM     24  C   UNL     1      48.691   4.338  18.513  0.00  0.00    +0.000 C 
ATOM     25  O   UNL     1      49.329   5.085  19.240  0.00  0.00    +0.000 OA
ATOM     26  H   UNL     1      48.702   2.795  19.827  0.00  0.00    +0.000 HD
ATOM     27  H   UNL     1      48.055   2.358  18.285  0.00  0.00    +0.000 HD
ENDBRANCH  17  24
ENDBRANCH  16  20
ENDBRANCH  15  16
ENDBRANCH   1  15
TORSDOF 6
ENDMDL
MODEL 6
REMARK VINA RESULT:    -6.820      4.631      8.093
REMARK INTER + INTRA:          -9.799
REMARK INTER:                  -9.059
REMARK INTRA:                  -0.740
REMARK UNBOUND:                -0.786
REMARK  Name = 
REMARK  6 active torsions:
REMARK  status: ('A' for Active; 'I' for Inactive)
REMARK    1  A    between atoms: C_2  and  C_4
REMARK    2  A    between atoms: C_7  and  O_8
REMARK    3  A    between atoms: O_8  and  C_9
REMARK    4  A    between atoms: C_9  and  C_10
REMARK    5  A    between atoms: C_14  and  N_15
REMARK    6  A    between atoms: C_18  and  O_19
REMARK                            x       y       z     vdW  Elec       q    Type
REMARK                         _______ _______ _______ _____ _____    ______ ____
ROOT
ATOM      1  C   UNL     1      48.263   6.431  14.612  0.00  0.00    +0.000 A 
ATOM      2  C   UNL     1      48.738   7.186  13.550  0.00  0.00    +0.000 A 
ATOM      3  N   UNL     1      48.195   7.176  12.319  0.00  0.00    +0.000 NA
ATOM      4  C   UNL     1      47.119   6.367  12.142  0.00  0.00    +0.000 A 
ATOM      5  C   UNL     1      46.540   5.545  13.115  0.00  0.00    +0.000 A 
ATOM      6  C   UNL     1      47.151   5.610  14.375  0.00  0.00    +0.000 A 
ENDROOT
BRANCH   5   7
ATOM      7  N   UNL     1      45.445   4.733  12.872  0.00  0.00    +0.000 N 
ATOM      8  C   UNL     1      44.081   5.263  12.889  0.00  0.00    +0.000 C 
ATOM      9  C   UNL     1      43.456   5.156  11.502  0.00  0.00    +0.000 C 
ATOM     10  C   UNL     1      43.575   3.743  10.932  0.00  0.00    +0.000 C 
ATOM     11  C   UNL     1      45.007   3.218  10.996  0.00  0.00    +0.000 C 
ATOM     12  C   UNL     1      45.615   3.360  12.390  0.00  0.00    +0.000 C 
BRANCH  10  13
ATOM     13  O   UNL     1      42.685   2.852  11.605  0.00  0.00    +0.000 OA
ATOM     14  H   UNL     1      43.001   2.713  12.513  0.00  0.00    +0.000 HD
ENDBRANCH  10  13
ENDBRANCH   5   7
BRANCH   1  15
ATOM     15  C   UNL     1      48.951   6.474  15.949  0.00  0.00    +0.000 C 
BRANCH  15  16
ATOM     16  O   UNL     1      48.441   5.460  16.825  0.00  0.00    +0.000 OA
BRANCH  16  20
ATOM     17  C   UNL     1      51.259   2.509  17.485  0.00  0.00    +0.000 A 
ATOM     18  C   UNL     1      51.598   3.841  17.733  0.00  0.00    +0.000 A 
ATOM     19  C   UNL     1      50.644   4.843  17.509  0.00  0.00    +0.000 A 
ATOM     20  C   UNL     1      49.383   4.471  17.052  0.00  0.00    +0.000 A 
ATOM     21  N   UNL     1      49.040   3.187  16.807  0.00  0.00    +0.000 NA
ATOM     22  C   UNL     1      49.983   2.239  17.013  0.00  0.00    +0.000 A 
BRANCH  17  24
ATOM     23  N   UNL     1      51.657   0.200  18.131  0.00  0.00    +0.000 N 
ATOM     24  C   UNL     1      52.183   1.370  17.660  0.00  0.00    +0.000 C 
ATOM     25  O   UNL     1      53.363   1.455  17.357  0.00  0.00    +0.000 OA
ATOM     26  H   UNL     1      52.284  -0.597  18.135  0.00  0.00    +0.000 HD
ATOM     27  H   UNL     1      50.666   0.011  18.138  0.00  0.00    +0.000 HD
ENDBRANCH  17  24
ENDBRANCH  16  20
ENDBRANCH  15  16
ENDBRANCH   1  15
TORSDOF 6
ENDMDL
MODEL 7
REMARK VINA RESULT:    -6.656      3.757      6.107
REMARK INTER + INTRA:          -9.583
REMARK INTER:                  -8.787
REMARK INTRA:                  -0.796
REMARK UNBOUND:                -0.786
REMARK  Name = 
REMARK  6 active torsions:
REMARK  status: ('A' for Active; 'I' for Inactive)
REMARK    1  A    between atoms: C_2  and  C_4
REMARK    2  A    between atoms: C_7  and  O_8
REMARK    3  A    between atoms: O_8  and  C_9
REMARK    4  A    between atoms: C_9  and  C_10
REMARK    5  A    between atoms: C_14  and  N_15
REMARK    6  A    between atoms: C_18  and  O_19
REMARK                            x       y       z     vdW  Elec       q    Type
REMARK                         _______ _______ _______ _____ _____    ______ ____
ROOT
ATOM      1  C   UNL     1      48.831   7.340  13.884  0.00  0.00    +0.000 A 
ATOM      2  C   UNL     1      50.059   7.984  13.888  0.00  0.00    +0.000 A 
ATOM      3  N   UNL     1      50.973   7.855  14.867  0.00  0.00    +0.000 NA
ATOM      4  C   UNL     1      50.638   7.037  15.898  0.00  0.00    +0.000 A 
ATOM      5  C   UNL     1      49.436   6.334  16.032  0.00  0.00    +0.000 A 
ATOM      6  C   UNL     1      48.535   6.508  14.973  0.00  0.00    +0.000 A 
ENDROOT
BRANCH   5   7
ATOM      7  N   UNL     1      49.148   5.518  17.114  0.00  0.00    +0.000 N 
ATOM      8  C   UNL     1      47.783   5.375  17.621  0.00  0.00    +0.000 C 
ATOM      9  C   UNL     1      47.299   3.940  17.435  0.00  0.00    +0.000 C 
ATOM     10  C   UNL     1      48.291   2.927  18.004  0.00  0.00    +0.000 C 
ATOM     11  C   UNL     1      49.709   3.162  17.490  0.00  0.00    +0.000 C 
ATOM     12  C   UNL     1      50.157   4.612  17.667  0.00  0.00    +0.000 C 
BRANCH  10  13
ATOM     13  O   UNL     1      48.267   2.947  19.432  0.00  0.00    +0.000 OA
ATOM     14  H   UNL     1      47.379   2.702  19.739  0.00  0.00    +0.000 HD
ENDBRANCH  10  13
ENDBRANCH   5   7
BRANCH   1  15
ATOM     15  C   UNL     1      47.852   7.566  12.765  0.00  0.00    +0.000 C 
BRANCH  15  16
ATOM     16  O   UNL     1      46.502   7.394  13.216  0.00  0.00    +0.000 OA
BRANCH  16  20
ATOM     17  C   UNL     1      44.708   4.134  11.418  0.00  0.00    +0.000 A 
ATOM     18  C   UNL     1      45.251   5.140  10.616  0.00  0.00    +0.000 A 
ATOM     19  C   UNL     1      45.859   6.247  11.223  0.00  0.00    +0.000 A 
ATOM     20  C   UNL     1      45.906   6.299  12.613  0.00  0.00    +0.000 A 
ATOM     21  N   UNL     1      45.385   5.334  13.403  0.00  0.00    +0.000 NA
ATOM     22  C   UNL     1      44.787   4.285  12.795  0.00  0.00    +0.000 A 
BRANCH  17  24
ATOM     23  N   UNL     1      44.622   2.263   9.868  0.00  0.00    +0.000 N 
ATOM     24  C   UNL     1      44.022   2.934  10.896  0.00  0.00    +0.000 C 
ATOM     25  O   UNL     1      42.980   2.530  11.391  0.00  0.00    +0.000 OA
ATOM     26  H   UNL     1      44.193   1.384   9.603  0.00  0.00    +0.000 HD
ATOM     27  H   UNL     1      45.589   2.403   9.616  0.00  0.00    +0.000 HD
ENDBRANCH  17  24
ENDBRANCH  16  20
ENDBRANCH  15  16
ENDBRANCH   1  15
TORSDOF 6
ENDMDL
MODEL 8
REMARK VINA RESULT:    -6.589      3.838      8.488
REMARK INTER + INTRA:          -9.494
REMARK INTER:                  -8.636
REMARK INTRA:                  -0.858
REMARK UNBOUND:                -0.786
REMARK  Name = 
REMARK  6 active torsions:
REMARK  status: ('A' for Active; 'I' for Inactive)
REMARK    1  A    between atoms: C_2  and  C_4
REMARK    2  A    between atoms: C_7  and  O_8
REMARK    3  A    between atoms: O_8  and  C_9
REMARK    4  A    between atoms: C_9  and  C_10
REMARK    5  A    between atoms: C_14  and  N_15
REMARK    6  A    between atoms: C_18  and  O_19
REMARK                            x       y       z     vdW  Elec       q    Type
REMARK                         _______ _______ _______ _____ _____    ______ ____
ROOT
ATOM      1  C   UNL     1      47.802   7.196  13.615  0.00  0.00    +0.000 A 
ATOM      2  C   UNL     1      47.194   8.407  13.320  0.00  0.00    +0.000 A 
ATOM      3  N   UNL     1      45.919   8.527  12.907  0.00  0.00    +0.000 NA
ATOM      4  C   UNL     1      45.216   7.372  12.782  0.00  0.00    +0.000 A 
ATOM      5  C   UNL     1      45.700   6.084  13.033  0.00  0.00    +0.000 A 
ATOM      6  C   UNL     1      47.031   6.033  13.467  0.00  0.00    +0.000 A 
ENDROOT
BRANCH   5   7
ATOM      7  N   UNL     1      44.935   4.939  12.880  0.00  0.00    +0.000 N 
ATOM      8  C   UNL     1      43.473   4.989  12.903  0.00  0.00    +0.000 C 
ATOM      9  C   UNL     1      42.910   4.578  11.546  0.00  0.00    +0.000 C 
ATOM     10  C   UNL     1      43.487   3.246  11.070  0.00  0.00    +0.000 C 
ATOM     11  C   UNL     1      45.013   3.230  11.126  0.00  0.00    +0.000 C 
ATOM     12  C   UNL     1      45.548   3.669  12.488  0.00  0.00    +0.000 C 
BRANCH  10  13
ATOM     13  O   UNL     1      42.948   2.163  11.829  0.00  0.00    +0.000 OA
ATOM     14  H   UNL     1      42.486   1.554  11.231  0.00  0.00    +0.000 HD
ENDBRANCH  10  13
ENDBRANCH   5   7
BRANCH   1  15
ATOM     15  C   UNL     1      49.245   7.147  14.038  0.00  0.00    +0.000 C 
BRANCH  15  16
ATOM     16  O   UNL     1      49.446   7.852  15.271  0.00  0.00    +0.000 OA
BRANCH  16  20
ATOM     17  C   UNL     1      48.880   5.380  18.535  0.00  0.00    +0.000 A 
ATOM     18  C   UNL     1      48.408   6.694  18.586  0.00  0.00    +0.000 A 
ATOM     19  C   UNL     1      48.601   7.534  17.481  0.00  0.00    +0.000 A 
ATOM     20  C   UNL     1      49.251   7.022  16.362  0.00  0.00    +0.000 A 
ATOM     21  N   UNL     1      49.713   5.754  16.297  0.00  0.00    +0.000 NA
ATOM     22  C   UNL     1      49.533   4.967  17.383  0.00  0.00    +0.000 A 
BRANCH  17  24
ATOM     23  N   UNL     1      48.389   3.134  19.323  0.00  0.00    +0.000 N 
ATOM     24  C   UNL     1      48.760   4.410  19.642  0.00  0.00    +0.000 C 
ATOM     25  O   UNL     1      49.021   4.722  20.794  0.00  0.00    +0.000 OA
ATOM     26  H   UNL     1      48.423   2.461  20.080  0.00  0.00    +0.000 HD
ATOM     27  H   UNL     1      48.425   2.775  18.380  0.00  0.00    +0.000 HD
ENDBRANCH  17  24
ENDBRANCH  16  20
ENDBRANCH  15  16
ENDBRANCH   1  15
TORSDOF 6
ENDMDL
MODEL 9
REMARK VINA RESULT:    -5.719      4.039      7.004
REMARK INTER + INTRA:          -8.345
REMARK INTER:                  -7.488
REMARK INTRA:                  -0.857
REMARK UNBOUND:                -0.786
REMARK  Name = 
REMARK  6 active torsions:
REMARK  status: ('A' for Active; 'I' for Inactive)
REMARK    1  A    between atoms: C_2  and  C_4
REMARK    2  A    between atoms: C_7  and  O_8
REMARK    3  A    between atoms: O_8  and  C_9
REMARK    4  A    between atoms: C_9  and  C_10
REMARK    5  A    between atoms: C_14  and  N_15
REMARK    6  A    between atoms: C_18  and  O_19
REMARK                            x       y       z     vdW  Elec       q    Type
REMARK                         _______ _______ _______ _____ _____    ______ ____
ROOT
ATOM      1  C   UNL     1      49.537   8.140  14.866  0.00  0.00    +0.000 A 
ATOM      2  C   UNL     1      50.905   8.228  14.659  0.00  0.00    +0.000 A 
ATOM      3  N   UNL     1      51.815   7.494  15.324  0.00  0.00    +0.000 NA
ATOM      4  C   UNL     1      51.329   6.625  16.247  0.00  0.00    +0.000 A 
ATOM      5  C   UNL     1      49.980   6.437  16.569  0.00  0.00    +0.000 A 
ATOM      6  C   UNL     1      49.087   7.228  15.833  0.00  0.00    +0.000 A 
ENDROOT
BRANCH   5   7
ATOM      7  N   UNL     1      49.544   5.538  17.529  0.00  0.00    +0.000 N 
ATOM      8  C   UNL     1      48.184   5.593  18.065  0.00  0.00    +0.000 C 
ATOM      9  C   UNL     1      47.417   4.330  17.689  0.00  0.00    +0.000 C 
ATOM     10  C   UNL     1      48.188   3.065  18.059  0.00  0.00    +0.000 C 
ATOM     11  C   UNL     1      49.619   3.089  17.526  0.00  0.00    +0.000 C 
ATOM     12  C   UNL     1      50.354   4.376  17.897  0.00  0.00    +0.000 C 
BRANCH  10  13
ATOM     13  O   UNL     1      48.185   2.868  19.473  0.00  0.00    +0.000 OA
ATOM     14  H   UNL     1      48.940   2.309  19.718  0.00  0.00    +0.000 HD
ENDBRANCH  10  13
ENDBRANCH   5   7
BRANCH   1  15
ATOM     15  C   UNL     1      48.588   9.023  14.103  0.00  0.00    +0.000 C 
BRANCH  15  16
ATOM     16  O   UNL     1      48.570   8.681  12.711  0.00  0.00    +0.000 OA
BRANCH  16  20
ATOM     17  C   UNL     1      45.057   6.767  11.669  0.00  0.00    +0.000 A 
ATOM     18  C   UNL     1      46.277   6.208  11.283  0.00  0.00    +0.000 A 
ATOM     19  C   UNL     1      47.469   6.856  11.634  0.00  0.00    +0.000 A 
ATOM     20  C   UNL     1      47.394   8.037  12.367  0.00  0.00    +0.000 A 
ATOM     21  N   UNL     1      46.221   8.591  12.747  0.00  0.00    +0.000 NA
ATOM     22  C   UNL     1      45.083   7.958  12.381  0.00  0.00    +0.000 A 
BRANCH  17  24
ATOM     23  N   UNL     1      42.687   7.058  11.217  0.00  0.00    +0.000 N 
ATOM     24  C   UNL     1      43.737   6.193  11.339  0.00  0.00    +0.000 C 
ATOM     25  O   UNL     1      43.595   4.995  11.141  0.00  0.00    +0.000 OA
ATOM     26  H   UNL     1      41.819   6.656  10.880  0.00  0.00    +0.000 HD
ATOM     27  H   UNL     1      42.810   8.054  11.109  0.00  0.00    +0.000 HD
ENDBRANCH  17  24
ENDBRANCH  16  20
ENDBRANCH  15  16
ENDBRANCH   1  15
TORSDOF 6
ENDMDL
