MODEL 1
REMARK VINA RESULT:    -8.093      0.000      0.000
REMARK INTER + INTRA:         -11.548
REMARK INTER:                 -10.695
REMARK INTRA:                  -0.853
REMARK UNBOUND:                -0.853
REMARK  Name = 
REMARK  7 active torsions:
REMARK  status: ('A' for Active; 'I' for Inactive)
REMARK    1  A    between atoms: C_1  and  O_2
REMARK    2  A    between atoms: O_2  and  C_3
REMARK    3  A    between atoms: C_5  and  C_6
REMARK    4  A    between atoms: C_6  and  N_7
REMARK    5  A    between atoms: C_12  and  C_13
REMARK    6  A    between atoms: C_17  and  O_18
REMARK    7  A    between atoms: C_22  and  C_23
REMARK                            x       y       z     vdW  Elec       q    Type
REMARK                         _______ _______ _______ _____ _____    ______ ____
ROOT
ATOM      1  N   UNL     1      45.076   3.993  11.865  0.00  0.00    +0.000 N 
ATOM      2  C   UNL     1      45.617   3.127  12.779  0.00  0.00    +0.000 A 
ATOM      3  N   UNL     1      46.425   3.739  13.615  0.00  0.00    +0.000 NA
ATOM      4  C   UNL     1      46.389   5.053  13.241  0.00  0.00    +0.000 A 
ATOM      5  N   UNL     1      47.108   6.041  13.819  0.00  0.00    +0.000 NA
ATOM      6  C   UNL     1      46.906   7.266  13.262  0.00  0.00    +0.000 A 
ATOM      7  C   UNL     1      46.028   7.558  12.220  0.00  0.00    +0.000 A 
ATOM      8  C   UNL     1      45.302   6.524  11.653  0.00  0.00    +0.000 A 
ATOM      9  C   UNL     1      45.517   5.254  12.175  0.00  0.00    +0.000 A 
ENDROOT
BRANCH   6  10
ATOM     10  C   UNL     1      47.730   8.385  13.821  0.00  0.00    +0.000 C 
ATOM     11  N   UNL     1      47.291   8.914  15.005  0.00  0.00    +0.000 N 
ATOM     12  O   UNL     1      48.739   8.798  13.266  0.00  0.00    +0.000 OA
ATOM     13  H   UNL     1      46.458   8.539  15.448  0.00  0.00    +0.000 HD
ATOM     14  H   UNL     1      47.814   9.654  15.446  0.00  0.00    +0.000 HD
ENDBRANCH   6  10
BRANCH   8  15
ATOM     15  O   UNL     1      44.435   6.730  10.620  0.00  0.00    +0.000 OA
ATOM     16  H   UNL     1      43.674   6.133  10.733  0.00  0.00    +0.000 HD
ENDBRANCH   8  15
BRANCH   1  17
ATOM     17  C   UNL     1      44.204   3.618  10.765  0.00  0.00    +0.000 C 
BRANCH  17  20
ATOM     18  C   UNL     1      46.324   1.768   8.163  0.00  0.00    +0.000 A 
ATOM     19  C   UNL     1      45.510   2.039   9.274  0.00  0.00    +0.000 A 
ATOM     20  C   UNL     1      44.970   3.321   9.492  0.00  0.00    +0.000 A 
ATOM     21  C   UNL     1      45.226   4.327   8.552  0.00  0.00    +0.000 A 
ATOM     22  C   UNL     1      45.993   4.053   7.413  0.00  0.00    +0.000 A 
ATOM     23  C   UNL     1      46.551   2.780   7.210  0.00  0.00    +0.000 A 
BRANCH  23  24
ATOM     24  C   UNL     1      47.353   2.588   5.958  0.00  0.00    +0.000 C 
ATOM     25  N   UNL     1      48.684   2.309   6.072  0.00  0.00    +0.000 N 
ATOM     26  O   UNL     1      46.837   2.665   4.846  0.00  0.00    +0.000 OA
ATOM     27  H   UNL     1      49.147   2.317   6.971  0.00  0.00    +0.000 HD
ATOM     28  H   UNL     1      49.235   2.205   5.230  0.00  0.00    +0.000 HD
ENDBRANCH  23  24
BRANCH  18  30
ATOM     29  C   UNL     1      46.322  -0.502   7.389  0.00  0.00    +0.000 C 
ATOM     30  O   UNL     1      46.999   0.585   7.999  0.00  0.00    +0.000 OA
ENDBRANCH  18  30
ENDBRANCH  17  20
ENDBRANCH   1  17
TORSDOF 6
ENDMDL
MODEL 2
REMARK VINA RESULT:    -7.715      1.686      7.068
REMARK INTER + INTRA:         -11.049
REMARK INTER:                 -10.429
REMARK INTRA:                  -0.620
REMARK UNBOUND:                -0.853
REMARK  Name = 
REMARK  7 active torsions:
REMARK  status: ('A' for Active; 'I' for Inactive)
REMARK    1  A    between atoms: C_1  and  O_2
REMARK    2  A    between atoms: O_2  and  C_3
REMARK    3  A    between atoms: C_5  and  C_6
REMARK    4  A    between atoms: C_6  and  N_7
REMARK    5  A    between atoms: C_12  and  C_13
REMARK    6  A    between atoms: C_17  and  O_18
REMARK    7  A    between atoms: C_22  and  C_23
REMARK                            x       y       z     vdW  Elec       q    Type
REMARK                         _______ _______ _______ _____ _____    ______ ____
ROOT
ATOM      1  N   UNL     1      43.891   4.316  10.595  0.00  0.00    +0.000 N 
ATOM      2  C   UNL     1      43.367   3.201  11.195  0.00  0.00    +0.000 A 
ATOM      3  N   UNL     1      43.826   2.094  10.655  0.00  0.00    +0.000 NA
ATOM      4  C   UNL     1      44.694   2.509   9.684  0.00  0.00    +0.000 A 
ATOM      5  N   UNL     1      45.372   1.689   8.851  0.00  0.00    +0.000 NA
ATOM      6  C   UNL     1      46.169   2.343   7.964  0.00  0.00    +0.000 A 
ATOM      7  C   UNL     1      46.351   3.722   7.886  0.00  0.00    +0.000 A 
ATOM      8  C   UNL     1      45.645   4.535   8.757  0.00  0.00    +0.000 A 
ATOM      9  C   UNL     1      44.792   3.897   9.650  0.00  0.00    +0.000 A 
ENDROOT
BRANCH   6  10
ATOM     10  C   UNL     1      46.891   1.482   6.972  0.00  0.00    +0.000 C 
ATOM     11  N   UNL     1      47.364   2.125   5.859  0.00  0.00    +0.000 N 
ATOM     12  O   UNL     1      47.060   0.283   7.143  0.00  0.00    +0.000 OA
ATOM     13  H   UNL     1      47.219   3.124   5.754  0.00  0.00    +0.000 HD
ATOM     14  H   UNL     1      47.878   1.607   5.164  0.00  0.00    +0.000 HD
ENDBRANCH   6  10
BRANCH   8  15
ATOM     15  O   UNL     1      45.760   5.894   8.731  0.00  0.00    +0.000 OA
ATOM     16  H   UNL     1      45.333   6.254   9.530  0.00  0.00    +0.000 HD
ENDBRANCH   8  15
BRANCH   1  17
ATOM     17  C   UNL     1      43.531   5.688  10.910  0.00  0.00    +0.000 C 
BRANCH  17  20
ATOM     18  C   UNL     1      46.502   6.395  13.226  0.00  0.00    +0.000 A 
ATOM     19  C   UNL     1      45.542   5.724  12.452  0.00  0.00    +0.000 A 
ATOM     20  C   UNL     1      44.638   6.427  11.633  0.00  0.00    +0.000 A 
ATOM     21  C   UNL     1      44.737   7.823  11.569  0.00  0.00    +0.000 A 
ATOM     22  C   UNL     1      45.725   8.497  12.296  0.00  0.00    +0.000 A 
ATOM     23  C   UNL     1      46.609   7.795  13.132  0.00  0.00    +0.000 A 
BRANCH  23  24
ATOM     24  C   UNL     1      47.633   8.609  13.866  0.00  0.00    +0.000 C 
ATOM     25  N   UNL     1      47.422   8.889  15.184  0.00  0.00    +0.000 N 
ATOM     26  O   UNL     1      48.651   9.013  13.310  0.00  0.00    +0.000 OA
ATOM     27  H   UNL     1      46.557   8.635  15.642  0.00  0.00    +0.000 HD
ATOM     28  H   UNL     1      48.095   9.460  15.676  0.00  0.00    +0.000 HD
ENDBRANCH  23  24
BRANCH  18  30
ATOM     29  C   UNL     1      46.878   4.495  14.642  0.00  0.00    +0.000 C 
ATOM     30  O   UNL     1      47.289   5.763  14.156  0.00  0.00    +0.000 OA
ENDBRANCH  18  30
ENDBRANCH  17  20
ENDBRANCH   1  17
TORSDOF 6
ENDMDL
MODEL 3
REMARK VINA RESULT:    -7.587      1.809      7.427
REMARK INTER + INTRA:         -10.880
REMARK INTER:                 -10.173
REMARK INTRA:                  -0.707
REMARK UNBOUND:                -0.853
REMARK  Name = 
REMARK  7 active torsions:
REMARK  status: ('A' for Active; 'I' for Inactive)
REMARK    1  A    between atoms: C_1  and  O_2
REMARK    2  A    between atoms: O_2  and  C_3
REMARK    3  A    between atoms: C_5  and  C_6
REMARK    4  A    between atoms: C_6  and  N_7
REMARK    5  A    between atoms: C_12  and  C_13
REMARK    6  A    between atoms: C_17  and  O_18
REMARK    7  A    between atoms: C_22  and  C_23
REMARK                            x       y       z     vdW  Elec       q    Type
REMARK                         _______ _______ _______ _____ _____    ______ ____
ROOT
ATOM      1  N   UNL     1      43.816   4.368  10.663  0.00  0.00    +0.000 N 
ATOM      2  C   UNL     1      43.230   3.327  11.335  0.00  0.00    +0.000 A 
ATOM      3  N   UNL     1      43.635   2.162  10.881  0.00  0.00    +0.000 NA
ATOM      4  C   UNL     1      44.531   2.461   9.893  0.00  0.00    +0.000 A 
ATOM      5  N   UNL     1      45.171   1.549   9.128  0.00  0.00    +0.000 NA
ATOM      6  C   UNL     1      46.008   2.096   8.205  0.00  0.00    +0.000 A 
ATOM      7  C   UNL     1      46.262   3.455   8.031  0.00  0.00    +0.000 A 
ATOM      8  C   UNL     1      45.592   4.364   8.834  0.00  0.00    +0.000 A 
ATOM      9  C   UNL     1      44.701   3.837   9.761  0.00  0.00    +0.000 A 
ENDROOT
BRANCH   6  10
ATOM     10  C   UNL     1      46.691   1.130   7.285  0.00  0.00    +0.000 C 
ATOM     11  N   UNL     1      46.721  -0.173   7.706  0.00  0.00    +0.000 N 
ATOM     12  O   UNL     1      47.183   1.474   6.220  0.00  0.00    +0.000 OA
ATOM     13  H   UNL     1      46.290  -0.428   8.590  0.00  0.00    +0.000 HD
ATOM     14  H   UNL     1      47.145  -0.877   7.123  0.00  0.00    +0.000 HD
ENDBRANCH   6  10
BRANCH   8  15
ATOM     15  O   UNL     1      45.778   5.710   8.712  0.00  0.00    +0.000 OA
ATOM     16  H   UNL     1      45.127   6.054   8.074  0.00  0.00    +0.000 HD
ENDBRANCH   8  15
BRANCH   1  17
ATOM     17  C   UNL     1      43.525   5.776  10.876  0.00  0.00    +0.000 C 
BRANCH  17  20
ATOM     18  C   UNL     1      45.785   8.506  12.335  0.00  0.00    +0.000 A 
ATOM     19  C   UNL     1      44.744   7.858  11.651  0.00  0.00    +0.000 A 
ATOM     20  C   UNL     1      44.575   6.463  11.726  0.00  0.00    +0.000 A 
ATOM     21  C   UNL     1      45.445   5.723  12.536  0.00  0.00    +0.000 A 
ATOM     22  C   UNL     1      46.453   6.366  13.265  0.00  0.00    +0.000 A 
ATOM     23  C   UNL     1      46.636   7.755  13.168  0.00  0.00    +0.000 A 
BRANCH  23  24
ATOM     24  C   UNL     1      47.741   8.348  13.991  0.00  0.00    +0.000 C 
ATOM     25  N   UNL     1      47.413   9.156  15.040  0.00  0.00    +0.000 N 
ATOM     26  O   UNL     1      48.921   8.112  13.746  0.00  0.00    +0.000 OA
ATOM     27  H   UNL     1      46.454   9.427  15.213  0.00  0.00    +0.000 HD
ATOM     28  H   UNL     1      48.154   9.580  15.581  0.00  0.00    +0.000 HD
ENDBRANCH  23  24
BRANCH  18  30
ATOM     29  C   UNL     1      45.087  10.687  11.621  0.00  0.00    +0.000 C 
ATOM     30  O   UNL     1      46.084   9.834  12.161  0.00  0.00    +0.000 OA
ENDBRANCH  18  30
ENDBRANCH  17  20
ENDBRANCH   1  17
TORSDOF 6
ENDMDL
MODEL 4
REMARK VINA RESULT:    -6.151      4.190      8.790
REMARK INTER + INTRA:          -8.982
REMARK INTER:                  -8.150
REMARK INTRA:                  -0.833
REMARK UNBOUND:                -0.853
REMARK  Name = 
REMARK  7 active torsions:
REMARK  status: ('A' for Active; 'I' for Inactive)
REMARK    1  A    between atoms: C_1  and  O_2
REMARK    2  A    between atoms: O_2  and  C_3
REMARK    3  A    between atoms: C_5  and  C_6
REMARK    4  A    between atoms: C_6  and  N_7
REMARK    5  A    between atoms: C_12  and  C_13
REMARK    6  A    between atoms: C_17  and  O_18
REMARK    7  A    between atoms: C_22  and  C_23
REMARK                            x       y       z     vdW  Elec       q    Type
REMARK                         _______ _______ _______ _____ _____    ______ ____
ROOT
ATOM      1  N   UNL     1      47.685   7.404  13.802  0.00  0.00    +0.000 N 
ATOM      2  C   UNL     1      47.250   8.695  13.656  0.00  0.00    +0.000 A 
ATOM      3  N   UNL     1      46.121   8.758  12.987  0.00  0.00    +0.000 NA
ATOM      4  C   UNL     1      45.803   7.458  12.709  0.00  0.00    +0.000 A 
ATOM      5  N   UNL     1      44.724   7.061  11.998  0.00  0.00    +0.000 NA
ATOM      6  C   UNL     1      44.630   5.712  11.849  0.00  0.00    +0.000 A 
ATOM      7  C   UNL     1      45.503   4.765  12.382  0.00  0.00    +0.000 A 
ATOM      8  C   UNL     1      46.596   5.205  13.108  0.00  0.00    +0.000 A 
ATOM      9  C   UNL     1      46.741   6.580  13.245  0.00  0.00    +0.000 A 
ENDROOT
BRANCH   6  10
ATOM     10  C   UNL     1      43.489   5.224  11.010  0.00  0.00    +0.000 C 
ATOM     11  N   UNL     1      43.810   4.832   9.737  0.00  0.00    +0.000 N 
ATOM     12  O   UNL     1      42.342   5.164  11.432  0.00  0.00    +0.000 OA
ATOM     13  H   UNL     1      44.774   4.880   9.423  0.00  0.00    +0.000 HD
ATOM     14  H   UNL     1      43.091   4.472   9.129  0.00  0.00    +0.000 HD
ENDBRANCH   6  10
BRANCH   8  15
ATOM     15  O   UNL     1      47.501   4.338  13.648  0.00  0.00    +0.000 OA
ATOM     16  H   UNL     1      47.461   3.502  13.149  0.00  0.00    +0.000 HD
ENDBRANCH   8  15
BRANCH   1  17
ATOM     17  C   UNL     1      48.934   7.002  14.428  0.00  0.00    +0.000 C 
BRANCH  17  20
ATOM     18  C   UNL     1      48.286   5.294  17.797  0.00  0.00    +0.000 A 
ATOM     19  C   UNL     1      48.540   5.502  16.432  0.00  0.00    +0.000 A 
ATOM     20  C   UNL     1      48.792   6.789  15.921  0.00  0.00    +0.000 A 
ATOM     21  C   UNL     1      48.827   7.870  16.811  0.00  0.00    +0.000 A 
ATOM     22  C   UNL     1      48.628   7.666  18.182  0.00  0.00    +0.000 A 
ATOM     23  C   UNL     1      48.352   6.384  18.686  0.00  0.00    +0.000 A 
BRANCH  23  24
ATOM     24  C   UNL     1      48.157   6.270  20.168  0.00  0.00    +0.000 C 
ATOM     25  N   UNL     1      47.017   5.684  20.634  0.00  0.00    +0.000 N 
ATOM     26  O   UNL     1      49.001   6.680  20.960  0.00  0.00    +0.000 OA
ATOM     27  H   UNL     1      46.273   5.410  20.005  0.00  0.00    +0.000 HD
ATOM     28  H   UNL     1      46.868   5.629  21.632  0.00  0.00    +0.000 HD
ENDBRANCH  23  24
BRANCH  18  30
ATOM     29  C   UNL     1      47.347   3.120  17.417  0.00  0.00    +0.000 C 
ATOM     30  O   UNL     1      47.878   4.088  18.308  0.00  0.00    +0.000 OA
ENDBRANCH  18  30
ENDBRANCH  17  20
ENDBRANCH   1  17
TORSDOF 6
ENDMDL
MODEL 5
REMARK VINA RESULT:    -6.080      3.442      7.304
REMARK INTER + INTRA:          -8.887
REMARK INTER:                  -7.961
REMARK INTRA:                  -0.926
REMARK UNBOUND:                -0.853
REMARK  Name = 
REMARK  7 active torsions:
REMARK  status: ('A' for Active; 'I' for Inactive)
REMARK    1  A    between atoms: C_1  and  O_2
REMARK    2  A    between atoms: O_2  and  C_3
REMARK    3  A    between atoms: C_5  and  C_6
REMARK    4  A    between atoms: C_6  and  N_7
REMARK    5  A    between atoms: C_12  and  C_13
REMARK    6  A    between atoms: C_17  and  O_18
REMARK    7  A    between atoms: C_22  and  C_23
REMARK                            x       y       z     vdW  Elec       q    Type
REMARK                         _______ _______ _______ _____ _____    ______ ____
ROOT
ATOM      1  N   UNL     1      47.210   6.096  13.713  0.00  0.00    +0.000 N 
ATOM      2  C   UNL     1      47.570   5.194  14.680  0.00  0.00    +0.000 A 
ATOM      3  N   UNL     1      47.009   4.022  14.489  0.00  0.00    +0.000 NA
ATOM      4  C   UNL     1      46.275   4.165  13.345  0.00  0.00    +0.000 A 
ATOM      5  N   UNL     1      45.502   3.201  12.797  0.00  0.00    +0.000 NA
ATOM      6  C   UNL     1      44.862   3.589  11.661  0.00  0.00    +0.000 A 
ATOM      7  C   UNL     1      44.974   4.831  11.040  0.00  0.00    +0.000 A 
ATOM      8  C   UNL     1      45.778   5.795  11.624  0.00  0.00    +0.000 A 
ATOM      9  C   UNL     1      46.415   5.441  12.808  0.00  0.00    +0.000 A 
ENDROOT
BRANCH   6  10
ATOM     10  C   UNL     1      43.937   2.579  11.052  0.00  0.00    +0.000 C 
ATOM     11  N   UNL     1      44.324   2.075   9.838  0.00  0.00    +0.000 N 
ATOM     12  O   UNL     1      42.908   2.216  11.602  0.00  0.00    +0.000 OA
ATOM     13  H   UNL     1      45.192   2.388   9.415  0.00  0.00    +0.000 HD
ATOM     14  H   UNL     1      43.757   1.375   9.385  0.00  0.00    +0.000 HD
ENDBRANCH   6  10
BRANCH   8  15
ATOM     15  O   UNL     1      45.926   7.039  11.082  0.00  0.00    +0.000 OA
ATOM     16  H   UNL     1      46.283   6.941  10.181  0.00  0.00    +0.000 HD
ENDBRANCH   8  15
BRANCH   1  17
ATOM     17  C   UNL     1      47.601   7.495  13.680  0.00  0.00    +0.000 C 
BRANCH  17  20
ATOM     18  C   UNL     1      51.350   8.279  13.531  0.00  0.00    +0.000 A 
ATOM     19  C   UNL     1      50.067   7.974  14.013  0.00  0.00    +0.000 A 
ATOM     20  C   UNL     1      49.002   7.694  13.137  0.00  0.00    +0.000 A 
ATOM     21  C   UNL     1      49.250   7.684  11.759  0.00  0.00    +0.000 A 
ATOM     22  C   UNL     1      50.538   7.935  11.270  0.00  0.00    +0.000 A 
ATOM     23  C   UNL     1      51.593   8.239  12.145  0.00  0.00    +0.000 A 
BRANCH  23  24
ATOM     24  C   UNL     1      52.935   8.489  11.522  0.00  0.00    +0.000 C 
ATOM     25  N   UNL     1      53.949   7.614  11.783  0.00  0.00    +0.000 N 
ATOM     26  O   UNL     1      53.130   9.449  10.781  0.00  0.00    +0.000 OA
ATOM     27  H   UNL     1      53.835   6.863  12.450  0.00  0.00    +0.000 HD
ATOM     28  H   UNL     1      54.862   7.793  11.388  0.00  0.00    +0.000 HD
ENDBRANCH  23  24
BRANCH  18  30
ATOM     29  C   UNL     1      52.911   7.813  15.291  0.00  0.00    +0.000 C 
ATOM     30  O   UNL     1      52.370   8.714  14.338  0.00  0.00    +0.000 OA
ENDBRANCH  18  30
ENDBRANCH  17  20
ENDBRANCH   1  17
TORSDOF 6
ENDMDL
MODEL 6
REMARK VINA RESULT:    -5.884      3.724      7.324
REMARK INTER + INTRA:          -8.630
REMARK INTER:                  -7.853
REMARK INTRA:                  -0.777
REMARK UNBOUND:                -0.853
REMARK  Name = 
REMARK  7 active torsions:
REMARK  status: ('A' for Active; 'I' for Inactive)
REMARK    1  A    between atoms: C_1  and  O_2
REMARK    2  A    between atoms: O_2  and  C_3
REMARK    3  A    between atoms: C_5  and  C_6
REMARK    4  A    between atoms: C_6  and  N_7
REMARK    5  A    between atoms: C_12  and  C_13
REMARK    6  A    between atoms: C_17  and  O_18
REMARK    7  A    between atoms: C_22  and  C_23
REMARK                            x       y       z     vdW  Elec       q    Type
REMARK                         _______ _______ _______ _____ _____    ______ ____
ROOT
ATOM      1  N   UNL     1      46.085   7.983  12.907  0.00  0.00    +0.000 N 
ATOM      2  C   UNL     1      45.272   8.708  12.075  0.00  0.00    +0.000 A 
ATOM      3  N   UNL     1      44.443   7.937  11.408  0.00  0.00    +0.000 NA
ATOM      4  C   UNL     1      44.716   6.669  11.839  0.00  0.00    +0.000 A 
ATOM      5  N   UNL     1      44.111   5.550  11.382  0.00  0.00    +0.000 NA
ATOM      6  C   UNL     1      44.562   4.405  11.962  0.00  0.00    +0.000 A 
ATOM      7  C   UNL     1      45.525   4.319  12.966  0.00  0.00    +0.000 A 
ATOM      8  C   UNL     1      46.122   5.484  13.415  0.00  0.00    +0.000 A 
ATOM      9  C   UNL     1      45.710   6.667  12.813  0.00  0.00    +0.000 A 
ENDROOT
BRANCH   6  10
ATOM     10  C   UNL     1      43.972   3.130  11.442  0.00  0.00    +0.000 C 
ATOM     11  N   UNL     1      43.648   2.194  12.389  0.00  0.00    +0.000 N 
ATOM     12  O   UNL     1      43.779   2.934  10.250  0.00  0.00    +0.000 OA
ATOM     13  H   UNL     1      43.808   2.394  13.371  0.00  0.00    +0.000 HD
ATOM     14  H   UNL     1      43.226   1.324  12.106  0.00  0.00    +0.000 HD
ENDBRANCH   6  10
BRANCH   8  15
ATOM     15  O   UNL     1      47.083   5.477  14.384  0.00  0.00    +0.000 OA
ATOM     16  H   UNL     1      47.693   6.218  14.218  0.00  0.00    +0.000 HD
ENDBRANCH   8  15
BRANCH   1  17
ATOM     17  C   UNL     1      47.155   8.530  13.724  0.00  0.00    +0.000 C 
BRANCH  17  20
ATOM     18  C   UNL     1      50.958   8.539  13.244  0.00  0.00    +0.000 A 
ATOM     19  C   UNL     1      49.686   8.575  13.839  0.00  0.00    +0.000 A 
ATOM     20  C   UNL     1      48.518   8.357  13.085  0.00  0.00    +0.000 A 
ATOM     21  C   UNL     1      48.644   8.061  11.722  0.00  0.00    +0.000 A 
ATOM     22  C   UNL     1      49.910   7.970  11.130  0.00  0.00    +0.000 A 
ATOM     23  C   UNL     1      51.073   8.213  11.880  0.00  0.00    +0.000 A 
BRANCH  23  24
ATOM     24  C   UNL     1      52.380   8.088  11.155  0.00  0.00    +0.000 C 
ATOM     25  N   UNL     1      53.401   7.417  11.762  0.00  0.00    +0.000 N 
ATOM     26  O   UNL     1      52.541   8.564  10.034  0.00  0.00    +0.000 OA
ATOM     27  H   UNL     1      53.319   7.086  12.713  0.00  0.00    +0.000 HD
ATOM     28  H   UNL     1      54.293   7.354  11.289  0.00  0.00    +0.000 HD
ENDBRANCH  23  24
BRANCH  18  30
ATOM     29  C   UNL     1      52.291  10.272  14.231  0.00  0.00    +0.000 C 
ATOM     30  O   UNL     1      52.104   8.904  13.904  0.00  0.00    +0.000 OA
ENDBRANCH  18  30
ENDBRANCH  17  20
ENDBRANCH   1  17
TORSDOF 6
ENDMDL
MODEL 7
REMARK VINA RESULT:    -5.771      2.680      4.299
REMARK INTER + INTRA:          -8.480
REMARK INTER:                  -7.725
REMARK INTRA:                  -0.755
REMARK UNBOUND:                -0.853
REMARK  Name = 
REMARK  7 active torsions:
REMARK  status: ('A' for Active; 'I' for Inactive)
REMARK    1  A    between atoms: C_1  and  O_2
REMARK    2  A    between atoms: O_2  and  C_3
REMARK    3  A    between atoms: C_5  and  C_6
REMARK    4  A    between atoms: C_6  and  N_7
REMARK    5  A    between atoms: C_12  and  C_13
REMARK    6  A    between atoms: C_17  and  O_18
REMARK    7  A    between atoms: C_22  and  C_23
REMARK                            x       y       z     vdW  Elec       q    Type
REMARK                         _______ _______ _______ _____ _____    ______ ____
ROOT
ATOM      1  N   UNL     1      46.186   8.254  12.691  0.00  0.00    +0.000 N 
ATOM      2  C   UNL     1      46.430   9.484  12.137  0.00  0.00    +0.000 A 
ATOM      3  N   UNL     1      47.631   9.925  12.437  0.00  0.00    +0.000 NA
ATOM      4  C   UNL     1      48.191   8.936  13.196  0.00  0.00    +0.000 A 
ATOM      5  N   UNL     1      49.422   8.990  13.751  0.00  0.00    +0.000 NA
ATOM      6  C   UNL     1      49.750   7.882  14.469  0.00  0.00    +0.000 A 
ATOM      7  C   UNL     1      48.961   6.745  14.629  0.00  0.00    +0.000 A 
ATOM      8  C   UNL     1      47.706   6.719  14.044  0.00  0.00    +0.000 A 
ATOM      9  C   UNL     1      47.327   7.853  13.336  0.00  0.00    +0.000 A 
ENDROOT
BRANCH   6  10
ATOM     10  C   UNL     1      51.078   7.920  15.163  0.00  0.00    +0.000 C 
ATOM     11  N   UNL     1      52.174   7.752  14.359  0.00  0.00    +0.000 N 
ATOM     12  O   UNL     1      51.184   8.100  16.368  0.00  0.00    +0.000 OA
ATOM     13  H   UNL     1      52.052   7.618  13.360  0.00  0.00    +0.000 HD
ATOM     14  H   UNL     1      53.098   7.790  14.761  0.00  0.00    +0.000 HD
ENDBRANCH   6  10
BRANCH   8  15
ATOM     15  O   UNL     1      46.872   5.647  14.169  0.00  0.00    +0.000 OA
ATOM     16  H   UNL     1      47.065   5.021  13.448  0.00  0.00    +0.000 HD
ENDBRANCH   8  15
BRANCH   1  17
ATOM     17  C   UNL     1      44.929   7.529  12.607  0.00  0.00    +0.000 C 
BRANCH  17  20
ATOM     18  C   UNL     1      44.076   4.364  10.620  0.00  0.00    +0.000 A 
ATOM     19  C   UNL     1      44.015   5.415  11.550  0.00  0.00    +0.000 A 
ATOM     20  C   UNL     1      44.937   6.478  11.516  0.00  0.00    +0.000 A 
ATOM     21  C   UNL     1      45.906   6.495  10.504  0.00  0.00    +0.000 A 
ATOM     22  C   UNL     1      45.942   5.479   9.541  0.00  0.00    +0.000 A 
ATOM     23  C   UNL     1      45.037   4.407   9.592  0.00  0.00    +0.000 A 
BRANCH  23  24
ATOM     24  C   UNL     1      45.156   3.372   8.513  0.00  0.00    +0.000 C 
ATOM     25  N   UNL     1      45.246   2.060   8.874  0.00  0.00    +0.000 N 
ATOM     26  O   UNL     1      45.163   3.682   7.324  0.00  0.00    +0.000 OA
ATOM     27  H   UNL     1      45.322   1.787   9.845  0.00  0.00    +0.000 HD
ATOM     28  H   UNL     1      45.355   1.361   8.152  0.00  0.00    +0.000 HD
ENDBRANCH  23  24
BRANCH  18  30
ATOM     29  C   UNL     1      43.327   2.499  11.929  0.00  0.00    +0.000 C 
ATOM     30  O   UNL     1      43.304   3.234  10.716  0.00  0.00    +0.000 OA
ENDBRANCH  18  30
ENDBRANCH  17  20
ENDBRANCH   1  17
TORSDOF 6
ENDMDL
MODEL 8
REMARK VINA RESULT:    -5.653      4.179      9.249
REMARK INTER + INTRA:          -8.323
REMARK INTER:                  -7.584
REMARK INTRA:                  -0.739
REMARK UNBOUND:                -0.853
REMARK  Name = 
REMARK  7 active torsions:
REMARK  status: ('A' for Active; 'I' for Inactive)
REMARK    1  A    between atoms: C_1  and  O_2
REMARK    2  A    between atoms: O_2  and  C_3
REMARK    3  A    between atoms: C_5  and  C_6
REMARK    4  A    between atoms: C_6  and  N_7
REMARK    5  A    between atoms: C_12  and  C_13
REMARK    6  A    between atoms: C_17  and  O_18
REMARK    7  A    between atoms: C_22  and  C_23
REMARK                            x       y       z     vdW  Elec       q    Type
REMARK                         _______ _______ _______ _____ _____    ______ ____
ROOT
ATOM      1  N   UNL     1      47.659   7.056  14.025  0.00  0.00    +0.000 N 
ATOM      2  C   UNL     1      47.267   8.360  13.868  0.00  0.00    +0.000 A 
ATOM      3  N   UNL     1      46.159   8.457  13.169  0.00  0.00    +0.000 NA
ATOM      4  C   UNL     1      45.811   7.168  12.880  0.00  0.00    +0.000 A 
ATOM      5  N   UNL     1      44.740   6.803  12.139  0.00  0.00    +0.000 NA
ATOM      6  C   UNL     1      44.610   5.458  11.985  0.00  0.00    +0.000 A 
ATOM      7  C   UNL     1      45.439   4.485  12.541  0.00  0.00    +0.000 A 
ATOM      8  C   UNL     1      46.525   4.892  13.298  0.00  0.00    +0.000 A 
ATOM      9  C   UNL     1      46.707   6.262  13.440  0.00  0.00    +0.000 A 
ENDROOT
BRANCH   6  10
ATOM     10  C   UNL     1      43.478   5.004  11.115  0.00  0.00    +0.000 C 
ATOM     11  N   UNL     1      42.221   5.215  11.616  0.00  0.00    +0.000 N 
ATOM     12  O   UNL     1      43.657   4.487  10.021  0.00  0.00    +0.000 OA
ATOM     13  H   UNL     1      42.106   5.660  12.522  0.00  0.00    +0.000 HD
ATOM     14  H   UNL     1      41.415   4.953  11.070  0.00  0.00    +0.000 HD
ENDBRANCH   6  10
BRANCH   8  15
ATOM     15  O   UNL     1      47.389   3.997  13.861  0.00  0.00    +0.000 OA
ATOM     16  H   UNL     1      47.004   3.684  14.699  0.00  0.00    +0.000 HD
ENDBRANCH   8  15
BRANCH   1  17
ATOM     17  C   UNL     1      48.878   6.618  14.684  0.00  0.00    +0.000 C 
BRANCH  17  20
ATOM     18  C   UNL     1      48.598   7.088  18.477  0.00  0.00    +0.000 A 
ATOM     19  C   UNL     1      48.674   7.353  17.101  0.00  0.00    +0.000 A 
ATOM     20  C   UNL     1      48.665   6.312  16.153  0.00  0.00    +0.000 A 
ATOM     21  C   UNL     1      48.539   4.993  16.604  0.00  0.00    +0.000 A 
ATOM     22  C   UNL     1      48.410   4.722  17.972  0.00  0.00    +0.000 A 
ATOM     23  C   UNL     1      48.444   5.760  18.917  0.00  0.00    +0.000 A 
BRANCH  23  24
ATOM     24  C   UNL     1      48.294   5.365  20.357  0.00  0.00    +0.000 C 
ATOM     25  N   UNL     1      47.146   5.705  21.011  0.00  0.00    +0.000 N 
ATOM     26  O   UNL     1      49.172   4.740  20.946  0.00  0.00    +0.000 OA
ATOM     27  H   UNL     1      46.445   6.286  20.572  0.00  0.00    +0.000 HD
ATOM     28  H   UNL     1      47.052   5.466  21.989  0.00  0.00    +0.000 HD
ENDBRANCH  23  24
BRANCH  18  30
ATOM     29  C   UNL     1      47.742   9.021  19.610  0.00  0.00    +0.000 C 
ATOM     30  O   UNL     1      48.766   8.055  19.437  0.00  0.00    +0.000 OA
ENDBRANCH  18  30
ENDBRANCH  17  20
ENDBRANCH   1  17
TORSDOF 6
ENDMDL
MODEL 9
REMARK VINA RESULT:    -5.524      3.638      5.720
REMARK INTER + INTRA:          -8.153
REMARK INTER:                  -7.290
REMARK INTRA:                  -0.863
REMARK UNBOUND:                -0.853
REMARK  Name = 
REMARK  7 active torsions:
REMARK  status: ('A' for Active; 'I' for Inactive)
REMARK    1  A    between atoms: C_1  and  O_2
REMARK    2  A    between atoms: O_2  and  C_3
REMARK    3  A    between atoms: C_5  and  C_6
REMARK    4  A    between atoms: C_6  and  N_7
REMARK    5  A    between atoms: C_12  and  C_13
REMARK    6  A    between atoms: C_17  and  O_18
REMARK    7  A    between atoms: C_22  and  C_23
REMARK                            x       y       z     vdW  Elec       q    Type
REMARK                         _______ _______ _______ _____ _____    ______ ____
ROOT
ATOM      1  N   UNL     1      48.207   8.284  12.738  0.00  0.00    +0.000 N 
ATOM      2  C   UNL     1      49.037   7.901  11.717  0.00  0.00    +0.000 A 
ATOM      3  N   UNL     1      50.302   7.956  12.068  0.00  0.00    +0.000 NA
ATOM      4  C   UNL     1      50.289   8.369  13.370  0.00  0.00    +0.000 A 
ATOM      5  N   UNL     1      51.390   8.593  14.122  0.00  0.00    +0.000 NA
ATOM      6  C   UNL     1      51.116   9.008  15.388  0.00  0.00    +0.000 A 
ATOM      7  C   UNL     1      49.848   9.170  15.942  0.00  0.00    +0.000 A 
ATOM      8  C   UNL     1      48.740   8.928  15.147  0.00  0.00    +0.000 A 
ATOM      9  C   UNL     1      48.988   8.541  13.835  0.00  0.00    +0.000 A 
ENDROOT
BRANCH   6  10
ATOM     10  C   UNL     1      52.303   9.336  16.241  0.00  0.00    +0.000 C 
ATOM     11  N   UNL     1      52.022   9.853  17.478  0.00  0.00    +0.000 N 
ATOM     12  O   UNL     1      53.453   9.148  15.868  0.00  0.00    +0.000 OA
ATOM     13  H   UNL     1      51.056   9.984  17.763  0.00  0.00    +0.000 HD
ATOM     14  H   UNL     1      52.776  10.074  18.110  0.00  0.00    +0.000 HD
ENDBRANCH   6  10
BRANCH   8  15
ATOM     15  O   UNL     1      47.467   9.080  15.615  0.00  0.00    +0.000 OA
ATOM     16  H   UNL     1      47.201  10.008  15.486  0.00  0.00    +0.000 HD
ENDBRANCH   8  15
BRANCH   1  17
ATOM     17  C   UNL     1      46.762   8.403  12.648  0.00  0.00    +0.000 C 
BRANCH  17  20
ATOM     18  C   UNL     1      45.882   4.680  12.887  0.00  0.00    +0.000 A 
ATOM     19  C   UNL     1      46.403   5.951  13.179  0.00  0.00    +0.000 A 
ATOM     20  C   UNL     1      46.085   7.072  12.389  0.00  0.00    +0.000 A 
ATOM     21  C   UNL     1      45.200   6.909  11.316  0.00  0.00    +0.000 A 
ATOM     22  C   UNL     1      44.634   5.656  11.049  0.00  0.00    +0.000 A 
ATOM     23  C   UNL     1      44.972   4.534  11.823  0.00  0.00    +0.000 A 
BRANCH  23  24
ATOM     24  C   UNL     1      44.309   3.239  11.458  0.00  0.00    +0.000 C 
ATOM     25  N   UNL     1      43.777   2.475  12.455  0.00  0.00    +0.000 N 
ATOM     26  O   UNL     1      44.229   2.866  10.291  0.00  0.00    +0.000 OA
ATOM     27  H   UNL     1      43.899   2.722  13.428  0.00  0.00    +0.000 HD
ATOM     28  H   UNL     1      43.353   1.588  12.217  0.00  0.00    +0.000 HD
ENDBRANCH  23  24
BRANCH  18  30
ATOM     29  C   UNL     1      47.182   3.659  14.626  0.00  0.00    +0.000 C 
ATOM     30  O   UNL     1      46.291   3.538  13.529  0.00  0.00    +0.000 OA
ENDBRANCH  18  30
ENDBRANCH  17  20
ENDBRANCH   1  17
TORSDOF 6
ENDMDL
