MODEL 1
REMARK VINA RESULT:    -7.305      0.000      0.000
REMARK INTER + INTRA:          -9.320
REMARK INTER:                  -9.014
REMARK INTRA:                  -0.306
REMARK UNBOUND:                -0.306
REMARK  Name = 
REMARK  4 active torsions:
REMARK  status: ('A' for Active; 'I' for Inactive)
REMARK    1  A    between atoms: C_2  and  C_3
REMARK    2  A    between atoms: C_6  and  N_7
REMARK    3  A    between atoms: N_7  and  C_8
REMARK    4  A    between atoms: C_8  and  C_9
REMARK                            x       y       z     vdW  Elec       q    Type
REMARK                         _______ _______ _______ _____ _____    ______ ____
ROOT
ATOM      1  N   UNL     1      43.784   3.889  10.205  0.00  0.00    +0.000 N 
ATOM      2  H   UNL     1      43.291   3.043  10.496  0.00  0.00    +0.000 HD
ENDROOT
BRANCH   1   6
ATOM      3  C   UNL     1      46.629   2.554   7.546  0.00  0.00    +0.000 A 
ATOM      4  C   UNL     1      45.978   1.711   8.437  0.00  0.00    +0.000 A 
ATOM      5  N   UNL     1      45.065   2.162   9.336  0.00  0.00    +0.000 NA
ATOM      6  C   UNL     1      44.807   3.490   9.346  0.00  0.00    +0.000 A 
ATOM      7  C   UNL     1      45.478   4.327   8.457  0.00  0.00    +0.000 A 
ATOM      8  N   UNL     1      46.395   3.890   7.544  0.00  0.00    +0.000 NA
BRANCH   3  10
ATOM      9  N   UNL     1      48.304   1.624   5.797  0.00  0.00    +0.000 NA
ATOM     10  C   UNL     1      47.534   2.028   6.564  0.00  0.00    +0.000 C 
ENDBRANCH   3  10
ENDBRANCH   1   6
BRANCH   1  11
ATOM     11  C   UNL     1      43.892   4.928  11.247  0.00  0.00    +0.000 C 
ATOM     12  C   UNL     1      42.641   5.073  12.117  0.00  0.00    +0.000 C 
ATOM     13  C   UNL     1      43.068   6.204  11.243  0.00  0.00    +0.000 C 
BRANCH  11  14
ATOM     14  C   UNL     1      45.232   5.001  12.002  0.00  0.00    +0.000 A 
ATOM     15  C   UNL     1      46.098   6.076  11.797  0.00  0.00    +0.000 A 
ATOM     16  C   UNL     1      47.136   6.308  12.697  0.00  0.00    +0.000 A 
ATOM     17  C   UNL     1      47.314   5.441  13.766  0.00  0.00    +0.000 A 
ATOM     18  C   UNL     1      46.477   4.344  13.857  0.00  0.00    +0.000 A 
ATOM     19  N   UNL     1      45.460   4.104  13.002  0.00  0.00    +0.000 NA
ENDBRANCH  11  14
ENDBRANCH   1  11
TORSDOF 4
ENDMDL
MODEL 2
REMARK VINA RESULT:    -6.311      1.888      5.968
REMARK INTER + INTRA:          -8.092
REMARK INTER:                  -7.768
REMARK INTRA:                  -0.324
REMARK UNBOUND:                -0.306
REMARK  Name = 
REMARK  4 active torsions:
REMARK  status: ('A' for Active; 'I' for Inactive)
REMARK    1  A    between atoms: C_2  and  C_3
REMARK    2  A    between atoms: C_6  and  N_7
REMARK    3  A    between atoms: N_7  and  C_8
REMARK    4  A    between atoms: C_8  and  C_9
REMARK                            x       y       z     vdW  Elec       q    Type
REMARK                         _______ _______ _______ _____ _____    ______ ____
ROOT
ATOM      1  N   UNL     1      45.623   5.336  11.715  0.00  0.00    +0.000 N 
ATOM      2  H   UNL     1      46.324   5.754  11.103  0.00  0.00    +0.000 HD
ENDROOT
BRANCH   1   6
ATOM      3  C   UNL     1      47.401   4.068  15.205  0.00  0.00    +0.000 A 
ATOM      4  C   UNL     1      47.155   5.406  14.929  0.00  0.00    +0.000 A 
ATOM      5  N   UNL     1      46.598   5.823  13.762  0.00  0.00    +0.000 NA
ATOM      6  C   UNL     1      46.292   4.874  12.847  0.00  0.00    +0.000 A 
ATOM      7  C   UNL     1      46.559   3.535  13.129  0.00  0.00    +0.000 A 
ATOM      8  N   UNL     1      47.113   3.100  14.300  0.00  0.00    +0.000 NA
BRANCH   3  10
ATOM      9  N   UNL     1      48.389   3.321  17.484  0.00  0.00    +0.000 NA
ATOM     10  C   UNL     1      47.924   3.664  16.479  0.00  0.00    +0.000 C 
ENDBRANCH   3  10
ENDBRANCH   1   6
BRANCH   1  11
ATOM     11  C   UNL     1      44.534   4.630  11.013  0.00  0.00    +0.000 C 
ATOM     12  C   UNL     1      43.232   5.429  10.917  0.00  0.00    +0.000 C 
ATOM     13  C   UNL     1      43.262   4.161  11.701  0.00  0.00    +0.000 C 
BRANCH  11  14
ATOM     14  C   UNL     1      44.929   3.857   9.741  0.00  0.00    +0.000 A 
ATOM     15  C   UNL     1      45.575   4.513   8.691  0.00  0.00    +0.000 A 
ATOM     16  C   UNL     1      46.209   3.769   7.700  0.00  0.00    +0.000 A 
ATOM     17  C   UNL     1      46.157   2.383   7.753  0.00  0.00    +0.000 A 
ATOM     18  C   UNL     1      45.422   1.800   8.769  0.00  0.00    +0.000 A 
ATOM     19  N   UNL     1      44.806   2.501   9.745  0.00  0.00    +0.000 NA
ENDBRANCH  11  14
ENDBRANCH   1  11
TORSDOF 4
ENDMDL
MODEL 3
REMARK VINA RESULT:    -6.105      2.174      5.817
REMARK INTER + INTRA:          -7.838
REMARK INTER:                  -7.684
REMARK INTRA:                  -0.155
REMARK UNBOUND:                -0.306
REMARK  Name = 
REMARK  4 active torsions:
REMARK  status: ('A' for Active; 'I' for Inactive)
REMARK    1  A    between atoms: C_2  and  C_3
REMARK    2  A    between atoms: C_6  and  N_7
REMARK    3  A    between atoms: N_7  and  C_8
REMARK    4  A    between atoms: C_8  and  C_9
REMARK                            x       y       z     vdW  Elec       q    Type
REMARK                         _______ _______ _______ _____ _____    ______ ____
ROOT
ATOM      1  N   UNL     1      45.054   5.574  11.379  0.00  0.00    +0.000 N 
ATOM      2  H   UNL     1      45.027   6.231  10.597  0.00  0.00    +0.000 HD
ENDROOT
BRANCH   1   6
ATOM      3  C   UNL     1      48.366   6.636  13.580  0.00  0.00    +0.000 A 
ATOM      4  C   UNL     1      47.983   7.306  12.426  0.00  0.00    +0.000 A 
ATOM      5  N   UNL     1      46.909   6.931  11.684  0.00  0.00    +0.000 NA
ATOM      6  C   UNL     1      46.210   5.852  12.106  0.00  0.00    +0.000 A 
ATOM      7  C   UNL     1      46.613   5.179  13.257  0.00  0.00    +0.000 A 
ATOM      8  N   UNL     1      47.687   5.547  14.017  0.00  0.00    +0.000 NA
BRANCH   3  10
ATOM      9  N   UNL     1      50.352   7.444  15.041  0.00  0.00    +0.000 NA
ATOM     10  C   UNL     1      49.465   7.107  14.374  0.00  0.00    +0.000 C 
ENDBRANCH   3  10
ENDBRANCH   1   6
BRANCH   1  11
ATOM     11  C   UNL     1      44.535   4.228  11.071  0.00  0.00    +0.000 C 
ATOM     12  C   UNL     1      43.059   4.031  11.425  0.00  0.00    +0.000 C 
ATOM     13  C   UNL     1      44.101   3.235  12.137  0.00  0.00    +0.000 C 
BRANCH  11  14
ATOM     14  C   UNL     1      44.978   3.615   9.729  0.00  0.00    +0.000 A 
ATOM     15  C   UNL     1      45.461   4.434   8.707  0.00  0.00    +0.000 A 
ATOM     16  C   UNL     1      46.151   3.867   7.637  0.00  0.00    +0.000 A 
ATOM     17  C   UNL     1      46.314   2.490   7.589  0.00  0.00    +0.000 A 
ATOM     18  C   UNL     1      45.730   1.732   8.586  0.00  0.00    +0.000 A 
ATOM     19  N   UNL     1      45.064   2.259   9.636  0.00  0.00    +0.000 NA
ENDBRANCH  11  14
ENDBRANCH   1  11
TORSDOF 4
ENDMDL
MODEL 4
REMARK VINA RESULT:    -5.153      3.651      5.548
REMARK INTER + INTRA:          -6.665
REMARK INTER:                  -6.343
REMARK INTRA:                  -0.321
REMARK UNBOUND:                -0.306
REMARK  Name = 
REMARK  4 active torsions:
REMARK  status: ('A' for Active; 'I' for Inactive)
REMARK    1  A    between atoms: C_2  and  C_3
REMARK    2  A    between atoms: C_6  and  N_7
REMARK    3  A    between atoms: N_7  and  C_8
REMARK    4  A    between atoms: C_8  and  C_9
REMARK                            x       y       z     vdW  Elec       q    Type
REMARK                         _______ _______ _______ _____ _____    ______ ____
ROOT
ATOM      1  N   UNL     1      46.343   7.684  13.150  0.00  0.00    +0.000 N 
ATOM      2  H   UNL     1      45.889   8.209  13.899  0.00  0.00    +0.000 HD
ENDROOT
BRANCH   1   6
ATOM      3  C   UNL     1      44.204   4.267  12.316  0.00  0.00    +0.000 A 
ATOM      4  C   UNL     1      43.915   5.495  11.737  0.00  0.00    +0.000 A 
ATOM      5  N   UNL     1      44.602   6.627  12.041  0.00  0.00    +0.000 NA
ATOM      6  C   UNL     1      45.595   6.524  12.955  0.00  0.00    +0.000 A 
ATOM      7  C   UNL     1      45.865   5.289  13.540  0.00  0.00    +0.000 A 
ATOM      8  N   UNL     1      45.188   4.140  13.241  0.00  0.00    +0.000 NA
BRANCH   3  10
ATOM      9  N   UNL     1      42.979   2.102  11.579  0.00  0.00    +0.000 NA
ATOM     10  C   UNL     1      43.502   3.081  11.915  0.00  0.00    +0.000 C 
ENDBRANCH   3  10
ENDBRANCH   1   6
BRANCH   1  11
ATOM     11  C   UNL     1      47.816   7.768  13.143  0.00  0.00    +0.000 C 
ATOM     12  C   UNL     1      48.379   8.764  12.126  0.00  0.00    +0.000 C 
ATOM     13  C   UNL     1      48.673   7.310  11.974  0.00  0.00    +0.000 C 
BRANCH  11  14
ATOM     14  C   UNL     1      48.508   7.769  14.518  0.00  0.00    +0.000 A 
ATOM     15  C   UNL     1      48.288   8.815  15.416  0.00  0.00    +0.000 A 
ATOM     16  C   UNL     1      48.645   8.662  16.754  0.00  0.00    +0.000 A 
ATOM     17  C   UNL     1      49.248   7.481  17.165  0.00  0.00    +0.000 A 
ATOM     18  C   UNL     1      49.521   6.525  16.205  0.00  0.00    +0.000 A 
ATOM     19  N   UNL     1      49.177   6.647  14.905  0.00  0.00    +0.000 NA
ENDBRANCH  11  14
ENDBRANCH   1  11
TORSDOF 4
ENDMDL
MODEL 5
REMARK VINA RESULT:    -5.087      2.687      6.626
REMARK INTER + INTRA:          -6.583
REMARK INTER:                  -6.452
REMARK INTRA:                  -0.131
REMARK UNBOUND:                -0.306
REMARK  Name = 
REMARK  4 active torsions:
REMARK  status: ('A' for Active; 'I' for Inactive)
REMARK    1  A    between atoms: C_2  and  C_3
REMARK    2  A    between atoms: C_6  and  N_7
REMARK    3  A    between atoms: N_7  and  C_8
REMARK    4  A    between atoms: C_8  and  C_9
REMARK                            x       y       z     vdW  Elec       q    Type
REMARK                         _______ _______ _______ _____ _____    ______ ____
ROOT
ATOM      1  N   UNL     1      46.911   6.236  11.703  0.00  0.00    +0.000 N 
ATOM      2  H   UNL     1      47.524   5.694  11.093  0.00  0.00    +0.000 HD
ENDROOT
BRANCH   1   6
ATOM      3  C   UNL     1      48.623   6.718  15.416  0.00  0.00    +0.000 A 
ATOM      4  C   UNL     1      48.608   7.723  14.458  0.00  0.00    +0.000 A 
ATOM      5  N   UNL     1      48.073   7.548  13.222  0.00  0.00    +0.000 NA
ATOM      6  C   UNL     1      47.548   6.333  12.939  0.00  0.00    +0.000 A 
ATOM      7  C   UNL     1      47.583   5.328  13.904  0.00  0.00    +0.000 A 
ATOM      8  N   UNL     1      48.112   5.490  15.152  0.00  0.00    +0.000 NA
BRANCH   3  10
ATOM      9  N   UNL     1      49.543   7.116  17.809  0.00  0.00    +0.000 NA
ATOM     10  C   UNL     1      49.135   6.965  16.734  0.00  0.00    +0.000 C 
ENDBRANCH   3  10
ENDBRANCH   1   6
BRANCH   1  11
ATOM     11  C   UNL     1      45.470   6.001  11.496  0.00  0.00    +0.000 C 
ATOM     12  C   UNL     1      44.615   7.270  11.554  0.00  0.00    +0.000 C 
ATOM     13  C   UNL     1      44.425   6.205  12.580  0.00  0.00    +0.000 C 
BRANCH  11  14
ATOM     14  C   UNL     1      45.093   5.003  10.385  0.00  0.00    +0.000 A 
ATOM     15  C   UNL     1      45.717   5.069   9.138  0.00  0.00    +0.000 A 
ATOM     16  C   UNL     1      45.617   3.993   8.259  0.00  0.00    +0.000 A 
ATOM     17  C   UNL     1      44.867   2.884   8.626  0.00  0.00    +0.000 A 
ATOM     18  C   UNL     1      44.200   2.925   9.836  0.00  0.00    +0.000 A 
ATOM     19  N   UNL     1      44.287   3.953  10.707  0.00  0.00    +0.000 NA
ENDBRANCH  11  14
ENDBRANCH   1  11
TORSDOF 4
ENDMDL
MODEL 6
REMARK VINA RESULT:    -5.082      3.377      7.351
REMARK INTER + INTRA:          -6.576
REMARK INTER:                  -6.238
REMARK INTRA:                  -0.337
REMARK UNBOUND:                -0.306
REMARK  Name = 
REMARK  4 active torsions:
REMARK  status: ('A' for Active; 'I' for Inactive)
REMARK    1  A    between atoms: C_2  and  C_3
REMARK    2  A    between atoms: C_6  and  N_7
REMARK    3  A    between atoms: N_7  and  C_8
REMARK    4  A    between atoms: C_8  and  C_9
REMARK                            x       y       z     vdW  Elec       q    Type
REMARK                         _______ _______ _______ _____ _____    ______ ____
ROOT
ATOM      1  N   UNL     1      47.617   5.316  13.657  0.00  0.00    +0.000 N 
ATOM      2  H   UNL     1      47.892   4.404  13.291  0.00  0.00    +0.000 HD
ENDROOT
BRANCH   1   6
ATOM      3  C   UNL     1      48.146   4.910  17.719  0.00  0.00    +0.000 A 
ATOM      4  C   UNL     1      47.350   4.050  16.974  0.00  0.00    +0.000 A 
ATOM      5  N   UNL     1      47.151   4.208  15.640  0.00  0.00    +0.000 NA
ATOM      6  C   UNL     1      47.758   5.260  15.042  0.00  0.00    +0.000 A 
ATOM      7  C   UNL     1      48.542   6.125  15.804  0.00  0.00    +0.000 A 
ATOM      8  N   UNL     1      48.756   5.976  17.145  0.00  0.00    +0.000 NA
BRANCH   3  10
ATOM      9  N   UNL     1      48.584   4.421  20.229  0.00  0.00    +0.000 NA
ATOM     10  C   UNL     1      48.388   4.667  19.112  0.00  0.00    +0.000 C 
ENDBRANCH   3  10
ENDBRANCH   1   6
BRANCH   1  11
ATOM     11  C   UNL     1      46.507   5.962  12.932  0.00  0.00    +0.000 C 
ATOM     12  C   UNL     1      46.949   6.801  11.730  0.00  0.00    +0.000 C 
ATOM     13  C   UNL     1      46.296   7.467  12.894  0.00  0.00    +0.000 C 
BRANCH  11  14
ATOM     14  C   UNL     1      45.246   5.106  12.709  0.00  0.00    +0.000 A 
ATOM     15  C   UNL     1      43.977   5.676  12.831  0.00  0.00    +0.000 A 
ATOM     16  C   UNL     1      42.868   5.004  12.325  0.00  0.00    +0.000 A 
ATOM     17  C   UNL     1      43.039   3.758  11.737  0.00  0.00    +0.000 A 
ATOM     18  C   UNL     1      44.308   3.212  11.733  0.00  0.00    +0.000 A 
ATOM     19  N   UNL     1      45.400   3.848  12.211  0.00  0.00    +0.000 NA
ENDBRANCH  11  14
ENDBRANCH   1  11
TORSDOF 4
ENDMDL
MODEL 7
REMARK VINA RESULT:    -4.651      4.691      7.471
REMARK INTER + INTRA:          -6.045
REMARK INTER:                  -5.897
REMARK INTRA:                  -0.148
REMARK UNBOUND:                -0.306
REMARK  Name = 
REMARK  4 active torsions:
REMARK  status: ('A' for Active; 'I' for Inactive)
REMARK    1  A    between atoms: C_2  and  C_3
REMARK    2  A    between atoms: C_6  and  N_7
REMARK    3  A    between atoms: N_7  and  C_8
REMARK    4  A    between atoms: C_8  and  C_9
REMARK                            x       y       z     vdW  Elec       q    Type
REMARK                         _______ _______ _______ _____ _____    ______ ____
ROOT
ATOM      1  N   UNL     1      47.009   5.114  15.481  0.00  0.00    +0.000 N 
ATOM      2  H   UNL     1      46.649   5.986  15.871  0.00  0.00    +0.000 HD
ENDROOT
BRANCH   1   6
ATOM      3  C   UNL     1      50.427   3.950  17.459  0.00  0.00    +0.000 A 
ATOM      4  C   UNL     1      49.390   3.073  17.168  0.00  0.00    +0.000 A 
ATOM      5  N   UNL     1      48.250   3.469  16.546  0.00  0.00    +0.000 NA
ATOM      6  C   UNL     1      48.144   4.777  16.217  0.00  0.00    +0.000 A 
ATOM      7  C   UNL     1      49.185   5.651  16.528  0.00  0.00    +0.000 A 
ATOM      8  N   UNL     1      50.340   5.267  17.149  0.00  0.00    +0.000 NA
BRANCH   3  10
ATOM      9  N   UNL     1      52.617   3.049  18.520  0.00  0.00    +0.000 NA
ATOM     10  C   UNL     1      51.645   3.478  18.054  0.00  0.00    +0.000 C 
ENDBRANCH   3  10
ENDBRANCH   1   6
BRANCH   1  11
ATOM     11  C   UNL     1      46.863   4.984  14.019  0.00  0.00    +0.000 C 
ATOM     12  C   UNL     1      45.496   4.460  13.572  0.00  0.00    +0.000 C 
ATOM     13  C   UNL     1      46.719   3.648  13.308  0.00  0.00    +0.000 C 
BRANCH  11  14
ATOM     14  C   UNL     1      47.438   6.133  13.170  0.00  0.00    +0.000 A 
ATOM     15  C   UNL     1      46.643   7.234  12.845  0.00  0.00    +0.000 A 
ATOM     16  C   UNL     1      47.240   8.398  12.365  0.00  0.00    +0.000 A 
ATOM     17  C   UNL     1      48.616   8.430  12.185  0.00  0.00    +0.000 A 
ATOM     18  C   UNL     1      49.330   7.275  12.439  0.00  0.00    +0.000 A 
ATOM     19  N   UNL     1      48.775   6.138  12.911  0.00  0.00    +0.000 NA
ENDBRANCH  11  14
ENDBRANCH   1  11
TORSDOF 4
ENDMDL
