MODEL 1
REMARK VINA RESULT:    -7.484      0.000      0.000
REMARK INTER + INTRA:         -11.799
REMARK INTER:                 -10.547
REMARK INTRA:                  -1.251
REMARK UNBOUND:                -1.251
REMARK  Name = 
REMARK  7 active torsions:
REMARK  status: ('A' for Active; 'I' for Inactive)
REMARK    1  A    between atoms: C_2  and  C_3
REMARK    2  A    between atoms: C_8  and  C_9
REMARK    3  A    between atoms: N_11  and  C_12
REMARK    4  A    between atoms: C_12  and  C_13
REMARK    5  A    between atoms: C_16  and  C_17
REMARK    6  A    between atoms: C_17  and  N_18
REMARK    7  A    between atoms: C_19  and  C_21
REMARK                            x       y       z     vdW  Elec       q    Type
REMARK                         _______ _______ _______ _____ _____    ______ ____
ROOT
ATOM      1  C   UNL     1      50.024   7.062  15.671  0.00  0.00    +0.000 A 
ATOM      2  C   UNL     1      48.823   6.353  15.531  0.00  0.00    +0.000 A 
ATOM      3  C   UNL     1      48.021   6.520  14.396  0.00  0.00    +0.000 A 
ATOM      4  C   UNL     1      48.415   7.378  13.361  0.00  0.00    +0.000 A 
ATOM      5  C   UNL     1      49.614   8.090  13.503  0.00  0.00    +0.000 A 
ATOM      6  C   UNL     1      50.414   7.929  14.641  0.00  0.00    +0.000 A 
ENDROOT
BRANCH   1   7
ATOM      7  C   UNL     1      50.873   6.893  16.907  0.00  0.00    +0.000 C 
BRANCH   7  10
ATOM      8  C   UNL     1      51.099   4.680  17.969  0.00  0.00    +0.000 C 
ATOM      9  O   UNL     1      50.228   4.923  18.800  0.00  0.00    +0.000 OA
ATOM     10  N   UNL     1      51.467   5.573  16.989  0.00  0.00    +0.000 N 
ATOM     11  H   UNL     1      52.090   5.310  16.239  0.00  0.00    +0.000 HD
BRANCH   8  17
ATOM     12  C   UNL     1      51.264   2.176  17.404  0.00  0.00    +0.000 A 
ATOM     13  C   UNL     1      52.034   0.997  17.429  0.00  0.00    +0.000 A 
ATOM     14  C   UNL     1      53.283   0.973  18.049  0.00  0.00    +0.000 A 
ATOM     15  C   UNL     1      53.778   2.124  18.652  0.00  0.00    +0.000 A 
ATOM     16  C   UNL     1      53.027   3.301  18.623  0.00  0.00    +0.000 A 
ATOM     17  C   UNL     1      51.764   3.344  18.008  0.00  0.00    +0.000 A 
BRANCH  12  19
ATOM     18  N   UNL     1      49.000   2.087  16.149  0.00  0.00    +0.000 NA
ATOM     19  C   UNL     1      49.998   2.124  16.739  0.00  0.00    +0.000 C 
ENDBRANCH  12  19
ENDBRANCH   8  17
ENDBRANCH   7  10
ENDBRANCH   1   7
BRANCH   4  20
ATOM     20  C   UNL     1      47.556   7.554  12.134  0.00  0.00    +0.000 C 
BRANCH  20  21
ATOM     21  N   UNL     1      46.857   6.340  11.792  0.00  0.00    +0.000 N 
ATOM     22  C   UNL     1      45.486   6.276  11.812  0.00  0.00    +0.000 C 
ATOM     23  O   UNL     1      44.793   7.255  12.078  0.00  0.00    +0.000 OA
ATOM     24  H   UNL     1      47.398   5.481  11.792  0.00  0.00    +0.000 HD
BRANCH  22  25
ATOM     25  C   UNL     1      44.880   4.990  11.439  0.00  0.00    +0.000 A 
ATOM     26  C   UNL     1      44.110   4.296  12.364  0.00  0.00    +0.000 A 
ATOM     27  S   UNL     1      43.443   2.849  11.754  0.00  0.00    +0.000 S 
ATOM     28  C   UNL     1      44.201   3.072  10.247  0.00  0.00    +0.000 A 
ATOM     29  N   UNL     1      44.060   2.157   9.251  0.00  0.00    +0.000 NA
ATOM     30  C   UNL     1      44.712   2.436   8.172  0.00  0.00    +0.000 A 
ATOM     31  N   UNL     1      45.488   3.553   7.998  0.00  0.00    +0.000 N 
ATOM     32  C   UNL     1      45.638   4.516   8.965  0.00  0.00    +0.000 A 
ATOM     33  O   UNL     1      46.312   5.523   8.762  0.00  0.00    +0.000 OA
ATOM     34  C   UNL     1      44.936   4.245  10.204  0.00  0.00    +0.000 A 
ATOM     35  H   UNL     1      45.967   3.717   7.126  0.00  0.00    +0.000 HD
ENDBRANCH  22  25
ENDBRANCH  20  21
ENDBRANCH   4  20
TORSDOF 7
ENDMDL
MODEL 2
REMARK VINA RESULT:    -7.396      1.340      2.144
REMARK INTER + INTRA:         -11.674
REMARK INTER:                 -10.596
REMARK INTRA:                  -1.078
REMARK UNBOUND:                -1.251
REMARK  Name = 
REMARK  7 active torsions:
REMARK  status: ('A' for Active; 'I' for Inactive)
REMARK    1  A    between atoms: C_2  and  C_3
REMARK    2  A    between atoms: C_8  and  C_9
REMARK    3  A    between atoms: N_11  and  C_12
REMARK    4  A    between atoms: C_12  and  C_13
REMARK    5  A    between atoms: C_16  and  C_17
REMARK    6  A    between atoms: C_17  and  N_18
REMARK    7  A    between atoms: C_19  and  C_21
REMARK                            x       y       z     vdW  Elec       q    Type
REMARK                         _______ _______ _______ _____ _____    ______ ____
ROOT
ATOM      1  C   UNL     1      49.990   7.035  15.919  0.00  0.00    +0.000 A 
ATOM      2  C   UNL     1      50.604   8.004  15.113  0.00  0.00    +0.000 A 
ATOM      3  C   UNL     1      50.092   8.311  13.848  0.00  0.00    +0.000 A 
ATOM      4  C   UNL     1      48.939   7.677  13.368  0.00  0.00    +0.000 A 
ATOM      5  C   UNL     1      48.327   6.705  14.172  0.00  0.00    +0.000 A 
ATOM      6  C   UNL     1      48.842   6.392  15.437  0.00  0.00    +0.000 A 
ENDROOT
BRANCH   1   7
ATOM      7  C   UNL     1      50.560   6.693  17.274  0.00  0.00    +0.000 C 
BRANCH   7  10
ATOM      8  C   UNL     1      50.980   4.439  18.177  0.00  0.00    +0.000 C 
ATOM      9  O   UNL     1      50.085   4.541  19.012  0.00  0.00    +0.000 OA
ATOM     10  N   UNL     1      51.272   5.431  17.268  0.00  0.00    +0.000 N 
ATOM     11  H   UNL     1      51.921   5.280  16.510  0.00  0.00    +0.000 HD
BRANCH   8  17
ATOM     12  C   UNL     1      51.382   2.011  17.426  0.00  0.00    +0.000 A 
ATOM     13  C   UNL     1      52.256   0.908  17.378  0.00  0.00    +0.000 A 
ATOM     14  C   UNL     1      53.493   0.948  18.022  0.00  0.00    +0.000 A 
ATOM     15  C   UNL     1      53.871   2.088  18.722  0.00  0.00    +0.000 A 
ATOM     16  C   UNL     1      53.016   3.192  18.766  0.00  0.00    +0.000 A 
ATOM     17  C   UNL     1      51.764   3.169  18.128  0.00  0.00    +0.000 A 
BRANCH  12  19
ATOM     18  N   UNL     1      49.146   1.845  16.129  0.00  0.00    +0.000 NA
ATOM     19  C   UNL     1      50.136   1.897  16.732  0.00  0.00    +0.000 C 
ENDBRANCH  12  19
ENDBRANCH   8  17
ENDBRANCH   7  10
ENDBRANCH   1   7
BRANCH   4  20
ATOM     20  C   UNL     1      48.381   8.012  12.008  0.00  0.00    +0.000 C 
BRANCH  20  21
ATOM     21  N   UNL     1      47.652   6.904  11.440  0.00  0.00    +0.000 N 
ATOM     22  C   UNL     1      46.280   6.896  11.404  0.00  0.00    +0.000 C 
ATOM     23  O   UNL     1      45.614   7.845  11.808  0.00  0.00    +0.000 OA
ATOM     24  H   UNL     1      48.162   6.036  11.313  0.00  0.00    +0.000 HD
BRANCH  22  25
ATOM     25  C   UNL     1      45.644   5.718  10.797  0.00  0.00    +0.000 A 
ATOM     26  C   UNL     1      45.764   5.496   9.431  0.00  0.00    +0.000 A 
ATOM     27  S   UNL     1      45.007   4.063   8.900  0.00  0.00    +0.000 S 
ATOM     28  C   UNL     1      44.447   3.714  10.468  0.00  0.00    +0.000 A 
ATOM     29  N   UNL     1      43.690   2.609  10.711  0.00  0.00    +0.000 NA
ATOM     30  C   UNL     1      43.309   2.482  11.937  0.00  0.00    +0.000 A 
ATOM     31  N   UNL     1      43.623   3.358  12.946  0.00  0.00    +0.000 N 
ATOM     32  C   UNL     1      44.405   4.469  12.753  0.00  0.00    +0.000 A 
ATOM     33  O   UNL     1      44.696   5.213  13.687  0.00  0.00    +0.000 OA
ATOM     34  C   UNL     1      44.850   4.668  11.388  0.00  0.00    +0.000 A 
ATOM     35  H   UNL     1      43.299   3.197  13.888  0.00  0.00    +0.000 HD
ENDBRANCH  22  25
ENDBRANCH  20  21
ENDBRANCH   4  20
TORSDOF 7
ENDMDL
MODEL 3
REMARK VINA RESULT:    -7.287      2.973      9.631
REMARK INTER + INTRA:         -11.521
REMARK INTER:                 -10.487
REMARK INTRA:                  -1.034
REMARK UNBOUND:                -1.251
REMARK  Name = 
REMARK  7 active torsions:
REMARK  status: ('A' for Active; 'I' for Inactive)
REMARK    1  A    between atoms: C_2  and  C_3
REMARK    2  A    between atoms: C_8  and  C_9
REMARK    3  A    between atoms: N_11  and  C_12
REMARK    4  A    between atoms: C_12  and  C_13
REMARK    5  A    between atoms: C_16  and  C_17
REMARK    6  A    between atoms: C_17  and  N_18
REMARK    7  A    between atoms: C_19  and  C_21
REMARK                            x       y       z     vdW  Elec       q    Type
REMARK                         _______ _______ _______ _____ _____    ______ ____
ROOT
ATOM      1  C   UNL     1      47.584   5.766  14.631  0.00  0.00    +0.000 A 
ATOM      2  C   UNL     1      47.009   4.512  14.876  0.00  0.00    +0.000 A 
ATOM      3  C   UNL     1      47.333   3.789  16.030  0.00  0.00    +0.000 A 
ATOM      4  C   UNL     1      48.219   4.315  16.980  0.00  0.00    +0.000 A 
ATOM      5  C   UNL     1      48.797   5.568  16.732  0.00  0.00    +0.000 A 
ATOM      6  C   UNL     1      48.478   6.289  15.575  0.00  0.00    +0.000 A 
ENDROOT
BRANCH   1   7
ATOM      7  C   UNL     1      47.245   6.530  13.375  0.00  0.00    +0.000 C 
BRANCH   7  10
ATOM      8  C   UNL     1      45.707   5.765  11.608  0.00  0.00    +0.000 C 
ATOM      9  O   UNL     1      44.875   6.629  11.874  0.00  0.00    +0.000 OA
ATOM     10  N   UNL     1      46.907   5.653  12.272  0.00  0.00    +0.000 N 
ATOM     11  H   UNL     1      47.630   5.022  11.957  0.00  0.00    +0.000 HD
BRANCH   8  17
ATOM     12  C   UNL     1      44.639   3.648  10.611  0.00  0.00    +0.000 A 
ATOM     13  C   UNL     1      44.354   2.885   9.462  0.00  0.00    +0.000 A 
ATOM     14  C   UNL     1      44.833   3.272   8.210  0.00  0.00    +0.000 A 
ATOM     15  C   UNL     1      45.603   4.424   8.091  0.00  0.00    +0.000 A 
ATOM     16  C   UNL     1      45.882   5.193   9.223  0.00  0.00    +0.000 A 
ATOM     17  C   UNL     1      45.413   4.817  10.493  0.00  0.00    +0.000 A 
BRANCH  12  19
ATOM     18  N   UNL     1      43.723   2.828  12.890  0.00  0.00    +0.000 NA
ATOM     19  C   UNL     1      44.103   3.191  11.856  0.00  0.00    +0.000 C 
ENDBRANCH  12  19
ENDBRANCH   8  17
ENDBRANCH   7  10
ENDBRANCH   1   7
BRANCH   4  20
ATOM     20  C   UNL     1      48.564   3.541  18.227  0.00  0.00    +0.000 C 
BRANCH  20  21
ATOM     21  N   UNL     1      49.974   3.245  18.300  0.00  0.00    +0.000 N 
ATOM     22  C   UNL     1      50.559   2.347  17.443  0.00  0.00    +0.000 C 
ATOM     23  O   UNL     1      49.924   1.791  16.551  0.00  0.00    +0.000 OA
ATOM     24  H   UNL     1      50.457   3.512  19.152  0.00  0.00    +0.000 HD
BRANCH  22  25
ATOM     25  C   UNL     1      52.003   2.127  17.604  0.00  0.00    +0.000 A 
ATOM     26  C   UNL     1      52.499   0.832  17.691  0.00  0.00    +0.000 A 
ATOM     27  S   UNL     1      54.197   0.755  17.826  0.00  0.00    +0.000 S 
ATOM     28  C   UNL     1      54.329   2.451  17.825  0.00  0.00    +0.000 A 
ATOM     29  N   UNL     1      55.540   3.059  17.941  0.00  0.00    +0.000 NA
ATOM     30  C   UNL     1      55.491   4.349  17.955  0.00  0.00    +0.000 A 
ATOM     31  N   UNL     1      54.338   5.087  17.856  0.00  0.00    +0.000 N 
ATOM     32  C   UNL     1      53.099   4.517  17.710  0.00  0.00    +0.000 A 
ATOM     33  O   UNL     1      52.090   5.209  17.588  0.00  0.00    +0.000 OA
ATOM     34  C   UNL     1      53.094   3.067  17.702  0.00  0.00    +0.000 A 
ATOM     35  H   UNL     1      54.369   6.095  17.866  0.00  0.00    +0.000 HD
ENDBRANCH  22  25
ENDBRANCH  20  21
ENDBRANCH   4  20
TORSDOF 7
ENDMDL
MODEL 4
REMARK VINA RESULT:    -7.152      3.076      9.678
REMARK INTER + INTRA:         -11.330
REMARK INTER:                 -10.299
REMARK INTRA:                  -1.030
REMARK UNBOUND:                -1.251
REMARK  Name = 
REMARK  7 active torsions:
REMARK  status: ('A' for Active; 'I' for Inactive)
REMARK    1  A    between atoms: C_2  and  C_3
REMARK    2  A    between atoms: C_8  and  C_9
REMARK    3  A    between atoms: N_11  and  C_12
REMARK    4  A    between atoms: C_12  and  C_13
REMARK    5  A    between atoms: C_16  and  C_17
REMARK    6  A    between atoms: C_17  and  N_18
REMARK    7  A    between atoms: C_19  and  C_21
REMARK                            x       y       z     vdW  Elec       q    Type
REMARK                         _______ _______ _______ _____ _____    ______ ____
ROOT
ATOM      1  C   UNL     1      47.363   6.188  14.032  0.00  0.00    +0.000 A 
ATOM      2  C   UNL     1      46.847   4.966  14.485  0.00  0.00    +0.000 A 
ATOM      3  C   UNL     1      47.329   4.376  15.659  0.00  0.00    +0.000 A 
ATOM      4  C   UNL     1      48.320   5.008  16.422  0.00  0.00    +0.000 A 
ATOM      5  C   UNL     1      48.839   6.228  15.967  0.00  0.00    +0.000 A 
ATOM      6  C   UNL     1      48.361   6.816  14.789  0.00  0.00    +0.000 A 
ENDROOT
BRANCH   1   7
ATOM      7  C   UNL     1      46.852   6.807  12.753  0.00  0.00    +0.000 C 
BRANCH   7  10
ATOM      8  C   UNL     1      45.344   5.563  11.253  0.00  0.00    +0.000 C 
ATOM      9  O   UNL     1      44.353   6.175  11.643  0.00  0.00    +0.000 OA
ATOM     10  N   UNL     1      46.613   5.818  11.721  0.00  0.00    +0.000 N 
ATOM     11  H   UNL     1      47.428   5.398  11.299  0.00  0.00    +0.000 HD
BRANCH   8  17
ATOM     12  C   UNL     1      44.454   3.316  10.372  0.00  0.00    +0.000 A 
ATOM     13  C   UNL     1      44.275   2.454   9.273  0.00  0.00    +0.000 A 
ATOM     14  C   UNL     1      44.796   2.776   8.020  0.00  0.00    +0.000 A 
ATOM     15  C   UNL     1      45.505   3.960   7.849  0.00  0.00    +0.000 A 
ATOM     16  C   UNL     1      45.679   4.827   8.930  0.00  0.00    +0.000 A 
ATOM     17  C   UNL     1      45.165   4.518  10.201  0.00  0.00    +0.000 A 
BRANCH  12  19
ATOM     18  N   UNL     1      43.465   2.570  12.646  0.00  0.00    +0.000 NA
ATOM     19  C   UNL     1      43.880   2.921  11.621  0.00  0.00    +0.000 C 
ENDBRANCH  12  19
ENDBRANCH   8  17
ENDBRANCH   7  10
ENDBRANCH   1   7
BRANCH   4  20
ATOM     20  C   UNL     1      48.836   4.378  17.692  0.00  0.00    +0.000 C 
BRANCH  20  21
ATOM     21  N   UNL     1      50.204   3.943  17.555  0.00  0.00    +0.000 N 
ATOM     22  C   UNL     1      51.120   4.144  18.557  0.00  0.00    +0.000 C 
ATOM     23  O   UNL     1      50.810   4.660  19.628  0.00  0.00    +0.000 OA
ATOM     24  H   UNL     1      50.528   3.728  16.618  0.00  0.00    +0.000 HD
BRANCH  22  25
ATOM     25  C   UNL     1      52.484   3.655  18.313  0.00  0.00    +0.000 A 
ATOM     26  C   UNL     1      53.567   4.503  18.505  0.00  0.00    +0.000 A 
ATOM     27  S   UNL     1      55.077   3.763  18.223  0.00  0.00    +0.000 S 
ATOM     28  C   UNL     1      54.337   2.295  17.783  0.00  0.00    +0.000 A 
ATOM     29  N   UNL     1      55.082   1.225  17.396  0.00  0.00    +0.000 NA
ATOM     30  C   UNL     1      54.391   0.186  17.062  0.00  0.00    +0.000 A 
ATOM     31  N   UNL     1      53.021   0.121  17.088  0.00  0.00    +0.000 N 
ATOM     32  C   UNL     1      52.231   1.166  17.497  0.00  0.00    +0.000 A 
ATOM     33  O   UNL     1      51.008   1.060  17.542  0.00  0.00    +0.000 OA
ATOM     34  C   UNL     1      52.957   2.364  17.871  0.00  0.00    +0.000 A 
ATOM     35  H   UNL     1      52.540  -0.725  16.821  0.00  0.00    +0.000 HD
ENDBRANCH  22  25
ENDBRANCH  20  21
ENDBRANCH   4  20
TORSDOF 7
ENDMDL
MODEL 5
REMARK VINA RESULT:    -6.848      2.766      9.098
REMARK INTER + INTRA:         -10.901
REMARK INTER:                  -9.832
REMARK INTRA:                  -1.069
REMARK UNBOUND:                -1.251
REMARK  Name = 
REMARK  7 active torsions:
REMARK  status: ('A' for Active; 'I' for Inactive)
REMARK    1  A    between atoms: C_2  and  C_3
REMARK    2  A    between atoms: C_8  and  C_9
REMARK    3  A    between atoms: N_11  and  C_12
REMARK    4  A    between atoms: C_12  and  C_13
REMARK    5  A    between atoms: C_16  and  C_17
REMARK    6  A    between atoms: C_17  and  N_18
REMARK    7  A    between atoms: C_19  and  C_21
REMARK                            x       y       z     vdW  Elec       q    Type
REMARK                         _______ _______ _______ _____ _____    ______ ____
ROOT
ATOM      1  C   UNL     1      46.838   7.619  13.291  0.00  0.00    +0.000 A 
ATOM      2  C   UNL     1      47.652   6.529  13.626  0.00  0.00    +0.000 A 
ATOM      3  C   UNL     1      48.747   6.689  14.482  0.00  0.00    +0.000 A 
ATOM      4  C   UNL     1      49.039   7.938  15.046  0.00  0.00    +0.000 A 
ATOM      5  C   UNL     1      48.228   9.030  14.707  0.00  0.00    +0.000 A 
ATOM      6  C   UNL     1      47.135   8.872  13.846  0.00  0.00    +0.000 A 
ENDROOT
BRANCH   1   7
ATOM      7  C   UNL     1      45.671   7.443  12.350  0.00  0.00    +0.000 C 
BRANCH   7  10
ATOM      8  C   UNL     1      44.761   5.652  10.923  0.00  0.00    +0.000 C 
ATOM      9  O   UNL     1      43.601   6.012  11.107  0.00  0.00    +0.000 OA
ATOM     10  N   UNL     1      45.842   6.303  11.471  0.00  0.00    +0.000 N 
ATOM     11  H   UNL     1      46.789   6.073  11.206  0.00  0.00    +0.000 HD
BRANCH   8  17
ATOM     12  C   UNL     1      44.562   3.163  10.300  0.00  0.00    +0.000 A 
ATOM     13  C   UNL     1      44.775   2.155   9.341  0.00  0.00    +0.000 A 
ATOM     14  C   UNL     1      45.424   2.437   8.139  0.00  0.00    +0.000 A 
ATOM     15  C   UNL     1      45.870   3.729   7.882  0.00  0.00    +0.000 A 
ATOM     16  C   UNL     1      45.654   4.739   8.822  0.00  0.00    +0.000 A 
ATOM     17  C   UNL     1      45.006   4.473  10.040  0.00  0.00    +0.000 A 
BRANCH  12  19
ATOM     18  N   UNL     1      43.369   2.461  12.489  0.00  0.00    +0.000 NA
ATOM     19  C   UNL     1      43.879   2.798  11.503  0.00  0.00    +0.000 C 
ENDBRANCH  12  19
ENDBRANCH   8  17
ENDBRANCH   7  10
ENDBRANCH   1   7
BRANCH   4  20
ATOM     20  C   UNL     1      50.214   8.112  15.975  0.00  0.00    +0.000 C 
BRANCH  20  21
ATOM     21  N   UNL     1      50.887   6.861  16.227  0.00  0.00    +0.000 N 
ATOM     22  C   UNL     1      51.624   6.664  17.368  0.00  0.00    +0.000 C 
ATOM     23  O   UNL     1      51.708   7.522  18.244  0.00  0.00    +0.000 OA
ATOM     24  H   UNL     1      51.015   6.240  15.434  0.00  0.00    +0.000 HD
BRANCH  22  25
ATOM     25  C   UNL     1      52.260   5.349  17.523  0.00  0.00    +0.000 A 
ATOM     26  C   UNL     1      53.637   5.263  17.682  0.00  0.00    +0.000 A 
ATOM     27  S   UNL     1      54.205   3.669  17.897  0.00  0.00    +0.000 S 
ATOM     28  C   UNL     1      52.637   3.030  17.733  0.00  0.00    +0.000 A 
ATOM     29  N   UNL     1      52.418   1.689  17.793  0.00  0.00    +0.000 NA
ATOM     30  C   UNL     1      51.187   1.341  17.624  0.00  0.00    +0.000 A 
ATOM     31  N   UNL     1      50.152   2.215  17.408  0.00  0.00    +0.000 N 
ATOM     32  C   UNL     1      50.321   3.576  17.368  0.00  0.00    +0.000 A 
ATOM     33  O   UNL     1      49.366   4.333  17.209  0.00  0.00    +0.000 OA
ATOM     34  C   UNL     1      51.690   4.022  17.538  0.00  0.00    +0.000 A 
ATOM     35  H   UNL     1      49.208   1.878  17.291  0.00  0.00    +0.000 HD
ENDBRANCH  22  25
ENDBRANCH  20  21
ENDBRANCH   4  20
TORSDOF 7
ENDMDL
MODEL 6
REMARK VINA RESULT:    -6.737      3.303      8.733
REMARK INTER + INTRA:         -10.745
REMARK INTER:                 -10.559
REMARK INTRA:                  -0.186
REMARK UNBOUND:                -1.251
REMARK  Name = 
REMARK  7 active torsions:
REMARK  status: ('A' for Active; 'I' for Inactive)
REMARK    1  A    between atoms: C_2  and  C_3
REMARK    2  A    between atoms: C_8  and  C_9
REMARK    3  A    between atoms: N_11  and  C_12
REMARK    4  A    between atoms: C_12  and  C_13
REMARK    5  A    between atoms: C_16  and  C_17
REMARK    6  A    between atoms: C_17  and  N_18
REMARK    7  A    between atoms: C_19  and  C_21
REMARK                            x       y       z     vdW  Elec       q    Type
REMARK                         _______ _______ _______ _____ _____    ______ ____
ROOT
ATOM      1  C   UNL     1      44.744   6.644  11.400  0.00  0.00    +0.000 A 
ATOM      2  C   UNL     1      45.597   5.918  12.242  0.00  0.00    +0.000 A 
ATOM      3  C   UNL     1      46.528   6.573  13.056  0.00  0.00    +0.000 A 
ATOM      4  C   UNL     1      46.610   7.972  13.068  0.00  0.00    +0.000 A 
ATOM      5  C   UNL     1      45.760   8.698  12.223  0.00  0.00    +0.000 A 
ATOM      6  C   UNL     1      44.832   8.043  11.403  0.00  0.00    +0.000 A 
ENDROOT
BRANCH   1   7
ATOM      7  C   UNL     1      43.757   5.929  10.510  0.00  0.00    +0.000 C 
BRANCH   7  10
ATOM      8  C   UNL     1      45.375   4.774   9.053  0.00  0.00    +0.000 C 
ATOM      9  O   UNL     1      45.936   5.822   8.744  0.00  0.00    +0.000 OA
ATOM     10  N   UNL     1      44.314   4.724   9.929  0.00  0.00    +0.000 N 
ATOM     11  H   UNL     1      43.950   3.846  10.270  0.00  0.00    +0.000 HD
BRANCH   8  17
ATOM     12  C   UNL     1      45.426   2.213   8.819  0.00  0.00    +0.000 A 
ATOM     13  C   UNL     1      45.925   1.089   8.132  0.00  0.00    +0.000 A 
ATOM     14  C   UNL     1      46.874   1.233   7.121  0.00  0.00    +0.000 A 
ATOM     15  C   UNL     1      47.338   2.499   6.784  0.00  0.00    +0.000 A 
ATOM     16  C   UNL     1      46.842   3.621   7.451  0.00  0.00    +0.000 A 
ATOM     17  C   UNL     1      45.889   3.496   8.476  0.00  0.00    +0.000 A 
BRANCH  12  19
ATOM     18  N   UNL     1      43.610   1.815  10.622  0.00  0.00    +0.000 NA
ATOM     19  C   UNL     1      44.446   1.984   9.836  0.00  0.00    +0.000 C 
ENDBRANCH  12  19
ENDBRANCH   8  17
ENDBRANCH   7  10
ENDBRANCH   1   7
BRANCH   4  20
ATOM     20  C   UNL     1      47.608   8.681  13.949  0.00  0.00    +0.000 C 
BRANCH  20  21
ATOM     21  N   UNL     1      47.840   7.963  15.179  0.00  0.00    +0.000 N 
ATOM     22  C   UNL     1      48.935   7.151  15.334  0.00  0.00    +0.000 C 
ATOM     23  O   UNL     1      49.787   7.033  14.457  0.00  0.00    +0.000 OA
ATOM     24  H   UNL     1      47.054   7.870  15.813  0.00  0.00    +0.000 HD
BRANCH  22  25
ATOM     25  C   UNL     1      49.076   6.474  16.631  0.00  0.00    +0.000 A 
ATOM     26  C   UNL     1      49.754   7.102  17.667  0.00  0.00    +0.000 A 
ATOM     27  S   UNL     1      49.783   6.200  19.115  0.00  0.00    +0.000 S 
ATOM     28  C   UNL     1      48.934   4.914  18.394  0.00  0.00    +0.000 A 
ATOM     29  N   UNL     1      48.644   3.786  19.097  0.00  0.00    +0.000 NA
ATOM     30  C   UNL     1      48.022   2.880  18.419  0.00  0.00    +0.000 A 
ATOM     31  N   UNL     1      47.658   3.003  17.102  0.00  0.00    +0.000 N 
ATOM     32  C   UNL     1      47.905   4.133  16.363  0.00  0.00    +0.000 A 
ATOM     33  O   UNL     1      47.533   4.224  15.196  0.00  0.00    +0.000 OA
ATOM     34  C   UNL     1      48.615   5.179  17.072  0.00  0.00    +0.000 A 
ATOM     35  H   UNL     1      47.166   2.259  16.632  0.00  0.00    +0.000 HD
ENDBRANCH  22  25
ENDBRANCH  20  21
ENDBRANCH   4  20
TORSDOF 7
ENDMDL
MODEL 7
REMARK VINA RESULT:    -6.471      5.497      8.942
REMARK INTER + INTRA:         -10.370
REMARK INTER:                  -9.156
REMARK INTRA:                  -1.214
REMARK UNBOUND:                -1.251
REMARK  Name = 
REMARK  7 active torsions:
REMARK  status: ('A' for Active; 'I' for Inactive)
REMARK    1  A    between atoms: C_2  and  C_3
REMARK    2  A    between atoms: C_8  and  C_9
REMARK    3  A    between atoms: N_11  and  C_12
REMARK    4  A    between atoms: C_12  and  C_13
REMARK    5  A    between atoms: C_16  and  C_17
REMARK    6  A    between atoms: C_17  and  N_18
REMARK    7  A    between atoms: C_19  and  C_21
REMARK                            x       y       z     vdW  Elec       q    Type
REMARK                         _______ _______ _______ _____ _____    ______ ____
ROOT
ATOM      1  C   UNL     1      47.831   7.833  12.613  0.00  0.00    +0.000 A 
ATOM      2  C   UNL     1      49.165   7.447  12.801  0.00  0.00    +0.000 A 
ATOM      3  C   UNL     1      50.215   8.282  12.404  0.00  0.00    +0.000 A 
ATOM      4  C   UNL     1      49.956   9.536  11.835  0.00  0.00    +0.000 A 
ATOM      5  C   UNL     1      48.622   9.921  11.643  0.00  0.00    +0.000 A 
ATOM      6  C   UNL     1      47.571   9.083  12.035  0.00  0.00    +0.000 A 
ENDROOT
BRANCH   1   7
ATOM      7  C   UNL     1      46.703   6.918  13.025  0.00  0.00    +0.000 C 
BRANCH   7  10
ATOM      8  C   UNL     1      45.420   5.844  11.216  0.00  0.00    +0.000 C 
ATOM      9  O   UNL     1      44.604   6.760  11.170  0.00  0.00    +0.000 OA
ATOM     10  N   UNL     1      46.494   5.843  12.076  0.00  0.00    +0.000 N 
ATOM     11  H   UNL     1      47.224   5.147  12.012  0.00  0.00    +0.000 HD
BRANCH   8  17
ATOM     12  C   UNL     1      44.565   3.505  10.571  0.00  0.00    +0.000 A 
ATOM     13  C   UNL     1      44.394   2.534   9.565  0.00  0.00    +0.000 A 
ATOM     14  C   UNL     1      44.902   2.738   8.282  0.00  0.00    +0.000 A 
ATOM     15  C   UNL     1      45.588   3.911   7.989  0.00  0.00    +0.000 A 
ATOM     16  C   UNL     1      45.754   4.885   8.977  0.00  0.00    +0.000 A 
ATOM     17  C   UNL     1      45.253   4.696  10.276  0.00  0.00    +0.000 A 
BRANCH  12  19
ATOM     18  N   UNL     1      43.605   3.016  12.926  0.00  0.00    +0.000 NA
ATOM     19  C   UNL     1      44.005   3.227  11.859  0.00  0.00    +0.000 C 
ENDBRANCH  12  19
ENDBRANCH   8  17
ENDBRANCH   7  10
ENDBRANCH   1   7
BRANCH   4  20
ATOM     20  C   UNL     1      51.087  10.441  11.412  0.00  0.00    +0.000 C 
BRANCH  20  21
ATOM     21  N   UNL     1      52.144   9.709  10.760  0.00  0.00    +0.000 N 
ATOM     22  C   UNL     1      52.444   9.915   9.437  0.00  0.00    +0.000 C 
ATOM     23  O   UNL     1      51.860  10.759   8.762  0.00  0.00    +0.000 OA
ATOM     24  H   UNL     1      52.477   8.870  11.224  0.00  0.00    +0.000 HD
BRANCH  22  25
ATOM     25  C   UNL     1      53.545   9.118   8.878  0.00  0.00    +0.000 A 
ATOM     26  C   UNL     1      54.546   9.742   8.146  0.00  0.00    +0.000 A 
ATOM     27  S   UNL     1      55.770   8.680   7.612  0.00  0.00    +0.000 S 
ATOM     28  C   UNL     1      54.978   7.338   8.295  0.00  0.00    +0.000 A 
ATOM     29  N   UNL     1      55.495   6.086   8.176  0.00  0.00    +0.000 NA
ATOM     30  C   UNL     1      54.778   5.158   8.715  0.00  0.00    +0.000 A 
ATOM     31  N   UNL     1      53.592   5.372   9.372  0.00  0.00    +0.000 N 
ATOM     32  C   UNL     1      53.048   6.620   9.541  0.00  0.00    +0.000 A 
ATOM     33  O   UNL     1      52.002   6.779  10.165  0.00  0.00    +0.000 OA
ATOM     34  C   UNL     1      53.807   7.699   8.940  0.00  0.00    +0.000 A 
ATOM     35  H   UNL     1      53.083   4.603   9.779  0.00  0.00    +0.000 HD
ENDBRANCH  22  25
ENDBRANCH  20  21
ENDBRANCH   4  20
TORSDOF 7
ENDMDL
MODEL 8
REMARK VINA RESULT:    -6.362      3.557      9.270
REMARK INTER + INTRA:         -10.217
REMARK INTER:                  -9.323
REMARK INTRA:                  -0.894
REMARK UNBOUND:                -1.251
REMARK  Name = 
REMARK  7 active torsions:
REMARK  status: ('A' for Active; 'I' for Inactive)
REMARK    1  A    between atoms: C_2  and  C_3
REMARK    2  A    between atoms: C_8  and  C_9
REMARK    3  A    between atoms: N_11  and  C_12
REMARK    4  A    between atoms: C_12  and  C_13
REMARK    5  A    between atoms: C_16  and  C_17
REMARK    6  A    between atoms: C_17  and  N_18
REMARK    7  A    between atoms: C_19  and  C_21
REMARK                            x       y       z     vdW  Elec       q    Type
REMARK                         _______ _______ _______ _____ _____    ______ ____
ROOT
ATOM      1  C   UNL     1      46.955   7.818  12.647  0.00  0.00    +0.000 A 
ATOM      2  C   UNL     1      48.172   7.226  12.284  0.00  0.00    +0.000 A 
ATOM      3  C   UNL     1      49.348   7.521  12.984  0.00  0.00    +0.000 A 
ATOM      4  C   UNL     1      49.329   8.392  14.080  0.00  0.00    +0.000 A 
ATOM      5  C   UNL     1      48.112   8.987  14.441  0.00  0.00    +0.000 A 
ATOM      6  C   UNL     1      46.936   8.698  13.738  0.00  0.00    +0.000 A 
ENDROOT
BRANCH   1   7
ATOM      7  C   UNL     1      45.695   7.512  11.874  0.00  0.00    +0.000 C 
BRANCH   7  10
ATOM      8  C   UNL     1      44.723   5.572  10.705  0.00  0.00    +0.000 C 
ATOM      9  O   UNL     1      43.575   5.890  11.006  0.00  0.00    +0.000 OA
ATOM     10  N   UNL     1      45.823   6.316  11.066  0.00  0.00    +0.000 N 
ATOM     11  H   UNL     1      46.743   6.111  10.703  0.00  0.00    +0.000 HD
BRANCH   8  17
ATOM     12  C   UNL     1      44.486   3.052  10.243  0.00  0.00    +0.000 A 
ATOM     13  C   UNL     1      44.656   1.986   9.339  0.00  0.00    +0.000 A 
ATOM     14  C   UNL     1      45.260   2.190   8.098  0.00  0.00    +0.000 A 
ATOM     15  C   UNL     1      45.702   3.460   7.746  0.00  0.00    +0.000 A 
ATOM     16  C   UNL     1      45.529   4.527   8.630  0.00  0.00    +0.000 A 
ATOM     17  C   UNL     1      44.927   4.340   9.887  0.00  0.00    +0.000 A 
BRANCH  12  19
ATOM     18  N   UNL     1      43.385   2.519  12.526  0.00  0.00    +0.000 NA
ATOM     19  C   UNL     1      43.848   2.765  11.491  0.00  0.00    +0.000 C 
ENDBRANCH  12  19
ENDBRANCH   8  17
ENDBRANCH   7  10
ENDBRANCH   1   7
BRANCH   4  20
ATOM     20  C   UNL     1      50.594   8.705  14.841  0.00  0.00    +0.000 C 
BRANCH  20  21
ATOM     21  N   UNL     1      50.487   8.335  16.231  0.00  0.00    +0.000 N 
ATOM     22  C   UNL     1      50.891   7.100  16.674  0.00  0.00    +0.000 C 
ATOM     23  O   UNL     1      51.401   6.274  15.921  0.00  0.00    +0.000 OA
ATOM     24  H   UNL     1      49.876   8.900  16.812  0.00  0.00    +0.000 HD
BRANCH  22  25
ATOM     25  C   UNL     1      50.743   6.834  18.112  0.00  0.00    +0.000 A 
ATOM     26  C   UNL     1      51.533   7.519  19.025  0.00  0.00    +0.000 A 
ATOM     27  S   UNL     1      51.200   7.125  20.651  0.00  0.00    +0.000 S 
ATOM     28  C   UNL     1      50.023   5.987  20.191  0.00  0.00    +0.000 A 
ATOM     29  N   UNL     1      49.353   5.257  21.124  0.00  0.00    +0.000 NA
ATOM     30  C   UNL     1      48.510   4.410  20.635  0.00  0.00    +0.000 A 
ATOM     31  N   UNL     1      48.271   4.233  19.296  0.00  0.00    +0.000 N 
ATOM     32  C   UNL     1      48.902   4.966  18.322  0.00  0.00    +0.000 A 
ATOM     33  O   UNL     1      48.637   4.806  17.133  0.00  0.00    +0.000 OA
ATOM     34  C   UNL     1      49.872   5.923  18.816  0.00  0.00    +0.000 A 
ATOM     35  H   UNL     1      47.592   3.558  18.978  0.00  0.00    +0.000 HD
ENDBRANCH  22  25
ENDBRANCH  20  21
ENDBRANCH   4  20
TORSDOF 7
ENDMDL
MODEL 9
REMARK VINA RESULT:    -6.033      2.418      2.655
REMARK INTER + INTRA:          -9.753
REMARK INTER:                  -8.480
REMARK INTRA:                  -1.273
REMARK UNBOUND:                -1.251
REMARK  Name = 
REMARK  7 active torsions:
REMARK  status: ('A' for Active; 'I' for Inactive)
REMARK    1  A    between atoms: C_2  and  C_3
REMARK    2  A    between atoms: C_8  and  C_9
REMARK    3  A    between atoms: N_11  and  C_12
REMARK    4  A    between atoms: C_12  and  C_13
REMARK    5  A    between atoms: C_16  and  C_17
REMARK    6  A    between atoms: C_17  and  N_18
REMARK    7  A    between atoms: C_19  and  C_21
REMARK                            x       y       z     vdW  Elec       q    Type
REMARK                         _______ _______ _______ _____ _____    ______ ____
ROOT
ATOM      1  C   UNL     1      49.422   8.553  14.866  0.00  0.00    +0.000 A 
ATOM      2  C   UNL     1      49.372   9.507  13.840  0.00  0.00    +0.000 A 
ATOM      3  C   UNL     1      48.433   9.399  12.808  0.00  0.00    +0.000 A 
ATOM      4  C   UNL     1      47.503   8.350  12.792  0.00  0.00    +0.000 A 
ATOM      5  C   UNL     1      47.556   7.395  13.816  0.00  0.00    +0.000 A 
ATOM      6  C   UNL     1      48.499   7.498  14.846  0.00  0.00    +0.000 A 
ENDROOT
BRANCH   1   7
ATOM      7  C   UNL     1      50.451   8.665  15.965  0.00  0.00    +0.000 C 
BRANCH   7  10
ATOM      8  C   UNL     1      50.557   6.716  17.469  0.00  0.00    +0.000 C 
ATOM      9  O   UNL     1      51.397   6.150  16.775  0.00  0.00    +0.000 OA
ATOM     10  N   UNL     1      50.051   7.959  17.166  0.00  0.00    +0.000 N 
ATOM     11  H   UNL     1      49.460   8.463  17.812  0.00  0.00    +0.000 HD
BRANCH   8  17
ATOM     12  C   UNL     1      49.028   5.113  18.778  0.00  0.00    +0.000 A 
ATOM     13  C   UNL     1      48.744   4.467  19.996  0.00  0.00    +0.000 A 
ATOM     14  C   UNL     1      49.498   4.732  21.139  0.00  0.00    +0.000 A 
ATOM     15  C   UNL     1      50.543   5.647  21.080  0.00  0.00    +0.000 A 
ATOM     16  C   UNL     1      50.840   6.286  19.874  0.00  0.00    +0.000 A 
ATOM     17  C   UNL     1      50.088   6.035  18.713  0.00  0.00    +0.000 A 
BRANCH  12  19
ATOM     18  N   UNL     1      47.511   4.534  16.760  0.00  0.00    +0.000 NA
ATOM     19  C   UNL     1      48.216   4.780  17.648  0.00  0.00    +0.000 C 
ENDBRANCH  12  19
ENDBRANCH   8  17
ENDBRANCH   7  10
ENDBRANCH   1   7
BRANCH   4  20
ATOM     20  C   UNL     1      46.485   8.236  11.685  0.00  0.00    +0.000 C 
BRANCH  20  21
ATOM     21  N   UNL     1      46.083   6.868  11.468  0.00  0.00    +0.000 N 
ATOM     22  C   UNL     1      44.759   6.523  11.356  0.00  0.00    +0.000 C 
ATOM     23  O   UNL     1      43.863   7.363  11.391  0.00  0.00    +0.000 OA
ATOM     24  H   UNL     1      46.773   6.149  11.659  0.00  0.00    +0.000 HD
BRANCH  22  25
ATOM     25  C   UNL     1      44.465   5.101  11.129  0.00  0.00    +0.000 A 
ATOM     26  C   UNL     1      43.686   4.403  12.043  0.00  0.00    +0.000 A 
ATOM     27  S   UNL     1      43.403   2.779  11.604  0.00  0.00    +0.000 S 
ATOM     28  C   UNL     1      44.354   2.935  10.203  0.00  0.00    +0.000 A 
ATOM     29  N   UNL     1      44.551   1.878   9.369  0.00  0.00    +0.000 NA
ATOM     30  C   UNL     1      45.317   2.128   8.361  0.00  0.00    +0.000 A 
ATOM     31  N   UNL     1      45.899   3.344   8.107  0.00  0.00    +0.000 N 
ATOM     32  C   UNL     1      45.707   4.444   8.904  0.00  0.00    +0.000 A 
ATOM     33  O   UNL     1      46.215   5.528   8.627  0.00  0.00    +0.000 OA
ATOM     34  C   UNL     1      44.864   4.215  10.061  0.00  0.00    +0.000 A 
ATOM     35  H   UNL     1      46.483   3.477   7.295  0.00  0.00    +0.000 HD
ENDBRANCH  22  25
ENDBRANCH  20  21
ENDBRANCH   4  20
TORSDOF 7
ENDMDL
