MODEL 1
REMARK VINA RESULT:    -7.932      0.000      0.000
REMARK INTER + INTRA:         -11.641
REMARK INTER:                 -10.714
REMARK INTRA:                  -0.927
REMARK UNBOUND:                -0.927
REMARK  Name = 
REMARK  6 active torsions:
REMARK  status: ('A' for Active; 'I' for Inactive)
REMARK    1  A    between atoms: C_2  and  C_3
REMARK    2  A    between atoms: C_7  and  C_8
REMARK    3  A    between atoms: C_8  and  C_9
REMARK    4  A    between atoms: C_12  and  C_13
REMARK    5  A    between atoms: C_13  and  N_14
REMARK    6  A    between atoms: C_15  and  C_17
REMARK                            x       y       z     vdW  Elec       q    Type
REMARK                         _______ _______ _______ _____ _____    ______ ____
ROOT
ATOM      1  C   UNL     1      47.101   7.906  13.537  0.00  0.00    +0.000 C 
ENDROOT
BRANCH   1   5
ATOM      2  C   UNL     1      44.966   5.037  11.199  0.00  0.00    +0.000 A 
ATOM      3  C   UNL     1      44.527   6.359  11.193  0.00  0.00    +0.000 A 
ATOM      4  C   UNL     1      45.215   7.306  11.954  0.00  0.00    +0.000 A 
ATOM      5  C   UNL     1      46.303   6.917  12.737  0.00  0.00    +0.000 A 
ATOM      6  C   UNL     1      46.648   5.571  12.707  0.00  0.00    +0.000 A 
ATOM      7  N   UNL     1      46.012   4.632  11.962  0.00  0.00    +0.000 NA
BRANCH   2   8
ATOM      8  C   UNL     1      44.327   4.006  10.289  0.00  0.00    +0.000 C 
BRANCH   8  13
ATOM      9  C   UNL     1      46.267   1.736   7.908  0.00  0.00    +0.000 A 
ATOM     10  C   UNL     1      46.807   2.662   7.009  0.00  0.00    +0.000 A 
ATOM     11  C   UNL     1      46.554   4.023   7.180  0.00  0.00    +0.000 A 
ATOM     12  C   UNL     1      45.753   4.461   8.238  0.00  0.00    +0.000 A 
ATOM     13  C   UNL     1      45.184   3.541   9.130  0.00  0.00    +0.000 A 
ATOM     14  C   UNL     1      45.463   2.176   8.966  0.00  0.00    +0.000 A 
BRANCH   9  16
ATOM     15  N   UNL     1      46.769  -0.793   7.613  0.00  0.00    +0.000 NA
ATOM     16  C   UNL     1      46.545   0.337   7.752  0.00  0.00    +0.000 C 
ENDBRANCH   9  16
ENDBRANCH   8  13
ENDBRANCH   2   8
ENDBRANCH   1   5
BRANCH   1  17
ATOM     17  N   UNL     1      47.592   7.318  14.765  0.00  0.00    +0.000 N 
ATOM     18  C   UNL     1      48.900   6.935  14.913  0.00  0.00    +0.000 C 
ATOM     19  O   UNL     1      49.731   7.084  14.019  0.00  0.00    +0.000 OA
ATOM     20  H   UNL     1      46.897   6.962  15.413  0.00  0.00    +0.000 HD
BRANCH  18  21
ATOM     21  C   UNL     1      49.272   6.406  16.232  0.00  0.00    +0.000 A 
ATOM     22  C   UNL     1      50.245   7.047  16.990  0.00  0.00    +0.000 A 
ATOM     23  S   UNL     1      50.487   6.345  18.526  0.00  0.00    +0.000 S 
ATOM     24  C   UNL     1      49.348   5.122  18.209  0.00  0.00    +0.000 A 
ATOM     25  N   UNL     1      49.081   4.155  19.127  0.00  0.00    +0.000 NA
ATOM     26  C   UNL     1      48.226   3.269  18.738  0.00  0.00    +0.000 A 
ATOM     27  N   UNL     1      47.609   3.264  17.513  0.00  0.00    +0.000 N 
ATOM     28  C   UNL     1      47.815   4.245  16.573  0.00  0.00    +0.000 A 
ATOM     29  O   UNL     1      47.198   4.245  15.511  0.00  0.00    +0.000 OA
ATOM     30  C   UNL     1      48.780   5.255  16.955  0.00  0.00    +0.000 A 
ATOM     31  H   UNL     1      46.941   2.548  17.274  0.00  0.00    +0.000 HD
ENDBRANCH  18  21
ENDBRANCH   1  17
TORSDOF 6
ENDMDL
MODEL 2
REMARK VINA RESULT:    -7.608      1.293      1.857
REMARK INTER + INTRA:         -11.203
REMARK INTER:                 -10.060
REMARK INTRA:                  -1.143
REMARK UNBOUND:                -0.927
REMARK  Name = 
REMARK  6 active torsions:
REMARK  status: ('A' for Active; 'I' for Inactive)
REMARK    1  A    between atoms: C_2  and  C_3
REMARK    2  A    between atoms: C_7  and  C_8
REMARK    3  A    between atoms: C_8  and  C_9
REMARK    4  A    between atoms: C_12  and  C_13
REMARK    5  A    between atoms: C_13  and  N_14
REMARK    6  A    between atoms: C_15  and  C_17
REMARK                            x       y       z     vdW  Elec       q    Type
REMARK                         _______ _______ _______ _____ _____    ______ ____
ROOT
ATOM      1  C   UNL     1      47.544   8.375  13.740  0.00  0.00    +0.000 C 
ENDROOT
BRANCH   1   5
ATOM      2  C   UNL     1      44.935   6.285  11.079  0.00  0.00    +0.000 A 
ATOM      3  C   UNL     1      46.219   5.785  11.280  0.00  0.00    +0.000 A 
ATOM      4  C   UNL     1      47.082   6.459  12.146  0.00  0.00    +0.000 A 
ATOM      5  C   UNL     1      46.668   7.639  12.767  0.00  0.00    +0.000 A 
ATOM      6  C   UNL     1      45.382   8.082  12.480  0.00  0.00    +0.000 A 
ATOM      7  N   UNL     1      44.514   7.437  11.660  0.00  0.00    +0.000 NA
BRANCH   2   8
ATOM      8  C   UNL     1      43.927   5.515  10.249  0.00  0.00    +0.000 C 
BRANCH   8  13
ATOM      9  C   UNL     1      45.629   3.104   7.825  0.00  0.00    +0.000 A 
ATOM     10  C   UNL     1      45.367   1.868   8.423  0.00  0.00    +0.000 A 
ATOM     11  C   UNL     1      44.629   1.811   9.605  0.00  0.00    +0.000 A 
ATOM     12  C   UNL     1      44.161   2.988  10.198  0.00  0.00    +0.000 A 
ATOM     13  C   UNL     1      44.441   4.236   9.622  0.00  0.00    +0.000 A 
ATOM     14  C   UNL     1      45.163   4.281   8.421  0.00  0.00    +0.000 A 
BRANCH   9  16
ATOM     15  N   UNL     1      46.954   3.205   5.596  0.00  0.00    +0.000 NA
ATOM     16  C   UNL     1      46.366   3.165   6.595  0.00  0.00    +0.000 C 
ENDBRANCH   9  16
ENDBRANCH   8  13
ENDBRANCH   2   8
ENDBRANCH   1   5
BRANCH   1  17
ATOM     17  N   UNL     1      47.854   7.557  14.893  0.00  0.00    +0.000 N 
ATOM     18  C   UNL     1      49.092   6.994  15.071  0.00  0.00    +0.000 C 
ATOM     19  O   UNL     1      50.009   7.164  14.271  0.00  0.00    +0.000 OA
ATOM     20  H   UNL     1      47.069   7.202  15.429  0.00  0.00    +0.000 HD
BRANCH  18  21
ATOM     21  C   UNL     1      49.284   6.236  16.314  0.00  0.00    +0.000 A 
ATOM     22  C   UNL     1      50.266   6.621  17.219  0.00  0.00    +0.000 A 
ATOM     23  S   UNL     1      50.290   5.681  18.644  0.00  0.00    +0.000 S 
ATOM     24  C   UNL     1      49.031   4.687  18.075  0.00  0.00    +0.000 A 
ATOM     25  N   UNL     1      48.568   3.646  18.818  0.00  0.00    +0.000 NA
ATOM     26  C   UNL     1      47.640   2.953  18.247  0.00  0.00    +0.000 A 
ATOM     27  N   UNL     1      47.129   3.208  17.001  0.00  0.00    +0.000 N 
ATOM     28  C   UNL     1      47.536   4.274  16.234  0.00  0.00    +0.000 A 
ATOM     29  O   UNL     1      47.013   4.511  15.148  0.00  0.00    +0.000 OA
ATOM     30  C   UNL     1      48.590   5.075  16.823  0.00  0.00    +0.000 A 
ATOM     31  H   UNL     1      46.396   2.635  16.615  0.00  0.00    +0.000 HD
ENDBRANCH  18  21
ENDBRANCH   1  17
TORSDOF 6
ENDMDL
MODEL 3
REMARK VINA RESULT:    -7.034      2.993      8.614
REMARK INTER + INTRA:         -10.428
REMARK INTER:                  -9.458
REMARK INTRA:                  -0.970
REMARK UNBOUND:                -0.927
REMARK  Name = 
REMARK  6 active torsions:
REMARK  status: ('A' for Active; 'I' for Inactive)
REMARK    1  A    between atoms: C_2  and  C_3
REMARK    2  A    between atoms: C_7  and  C_8
REMARK    3  A    between atoms: C_8  and  C_9
REMARK    4  A    between atoms: C_12  and  C_13
REMARK    5  A    between atoms: C_13  and  N_14
REMARK    6  A    between atoms: C_15  and  C_17
REMARK                            x       y       z     vdW  Elec       q    Type
REMARK                         _______ _______ _______ _____ _____    ______ ____
ROOT
ATOM      1  C   UNL     1      47.099   7.981  11.996  0.00  0.00    +0.000 C 
ENDROOT
BRANCH   1   5
ATOM      2  C   UNL     1      49.564   7.849  15.483  0.00  0.00    +0.000 A 
ATOM      3  C   UNL     1      48.566   8.817  15.411  0.00  0.00    +0.000 A 
ATOM      4  C   UNL     1      47.754   8.872  14.276  0.00  0.00    +0.000 A 
ATOM      5  C   UNL     1      47.973   7.989  13.217  0.00  0.00    +0.000 A 
ATOM      6  C   UNL     1      49.014   7.079  13.362  0.00  0.00    +0.000 A 
ATOM      7  N   UNL     1      49.805   6.989  14.461  0.00  0.00    +0.000 NA
BRANCH   2   8
ATOM      8  C   UNL     1      50.381   7.673  16.748  0.00  0.00    +0.000 C 
BRANCH   8  13
ATOM      9  C   UNL     1      48.428   4.721  18.183  0.00  0.00    +0.000 A 
ATOM     10  C   UNL     1      48.864   4.711  19.512  0.00  0.00    +0.000 A 
ATOM     11  C   UNL     1      49.781   5.666  19.948  0.00  0.00    +0.000 A 
ATOM     12  C   UNL     1      50.274   6.625  19.058  0.00  0.00    +0.000 A 
ATOM     13  C   UNL     1      49.865   6.630  17.717  0.00  0.00    +0.000 A 
ATOM     14  C   UNL     1      48.924   5.680  17.293  0.00  0.00    +0.000 A 
BRANCH   9  16
ATOM     15  N   UNL     1      46.676   2.984  17.378  0.00  0.00    +0.000 NA
ATOM     16  C   UNL     1      47.465   3.757  17.735  0.00  0.00    +0.000 C 
ENDBRANCH   9  16
ENDBRANCH   8  13
ENDBRANCH   2   8
ENDBRANCH   1   5
BRANCH   1  17
ATOM     17  N   UNL     1      46.494   6.682  11.789  0.00  0.00    +0.000 N 
ATOM     18  C   UNL     1      45.142   6.533  11.611  0.00  0.00    +0.000 C 
ATOM     19  O   UNL     1      44.374   7.492  11.600  0.00  0.00    +0.000 OA
ATOM     20  H   UNL     1      47.052   5.872  12.035  0.00  0.00    +0.000 HD
BRANCH  18  21
ATOM     21  C   UNL     1      44.673   5.165  11.354  0.00  0.00    +0.000 A 
ATOM     22  C   UNL     1      43.920   4.496  12.312  0.00  0.00    +0.000 A 
ATOM     23  S   UNL     1      43.392   2.952  11.811  0.00  0.00    +0.000 S 
ATOM     24  C   UNL     1      44.203   3.096  10.322  0.00  0.00    +0.000 A 
ATOM     25  N   UNL     1      44.173   2.092   9.406  0.00  0.00    +0.000 NA
ATOM     26  C   UNL     1      44.864   2.320   8.340  0.00  0.00    +0.000 A 
ATOM     27  N   UNL     1      45.581   3.465   8.104  0.00  0.00    +0.000 N 
ATOM     28  C   UNL     1      45.604   4.523   8.980  0.00  0.00    +0.000 A 
ATOM     29  O   UNL     1      46.205   5.559   8.710  0.00  0.00    +0.000 OA
ATOM     30  C   UNL     1      44.856   4.310  10.203  0.00  0.00    +0.000 A 
ATOM     31  H   UNL     1      46.093   3.587   7.243  0.00  0.00    +0.000 HD
ENDBRANCH  18  21
ENDBRANCH   1  17
TORSDOF 6
ENDMDL
MODEL 4
REMARK VINA RESULT:    -6.955      3.921      8.794
REMARK INTER + INTRA:         -10.322
REMARK INTER:                  -9.275
REMARK INTRA:                  -1.047
REMARK UNBOUND:                -0.927
REMARK  Name = 
REMARK  6 active torsions:
REMARK  status: ('A' for Active; 'I' for Inactive)
REMARK    1  A    between atoms: C_2  and  C_3
REMARK    2  A    between atoms: C_7  and  C_8
REMARK    3  A    between atoms: C_8  and  C_9
REMARK    4  A    between atoms: C_12  and  C_13
REMARK    5  A    between atoms: C_13  and  N_14
REMARK    6  A    between atoms: C_15  and  C_17
REMARK                            x       y       z     vdW  Elec       q    Type
REMARK                         _______ _______ _______ _____ _____    ______ ____
ROOT
ATOM      1  C   UNL     1      47.152   3.402  16.826  0.00  0.00    +0.000 C 
ENDROOT
BRANCH   1   5
ATOM      2  C   UNL     1      51.128   4.151  18.199  0.00  0.00    +0.000 A 
ATOM      3  C   UNL     1      50.866   2.950  17.545  0.00  0.00    +0.000 A 
ATOM      4  C   UNL     1      49.570   2.693  17.092  0.00  0.00    +0.000 A 
ATOM      5  C   UNL     1      48.550   3.615  17.331  0.00  0.00    +0.000 A 
ATOM      6  C   UNL     1      48.896   4.770  18.023  0.00  0.00    +0.000 A 
ATOM      7  N   UNL     1      50.150   5.057  18.455  0.00  0.00    +0.000 NA
BRANCH   2   8
ATOM      8  C   UNL     1      52.543   4.525  18.591  0.00  0.00    +0.000 C 
BRANCH   8  13
ATOM      9  C   UNL     1      53.670   6.662  15.633  0.00  0.00    +0.000 A 
ATOM     10  C   UNL     1      54.949   6.153  15.385  0.00  0.00    +0.000 A 
ATOM     11  C   UNL     1      55.443   5.109  16.167  0.00  0.00    +0.000 A 
ATOM     12  C   UNL     1      54.669   4.581  17.204  0.00  0.00    +0.000 A 
ATOM     13  C   UNL     1      53.396   5.101  17.480  0.00  0.00    +0.000 A 
ATOM     14  C   UNL     1      52.898   6.134  16.673  0.00  0.00    +0.000 A 
BRANCH   9  16
ATOM     15  N   UNL     1      52.711   8.567  14.153  0.00  0.00    +0.000 NA
ATOM     16  C   UNL     1      53.147   7.718  14.815  0.00  0.00    +0.000 C 
ENDBRANCH   9  16
ENDBRANCH   8  13
ENDBRANCH   2   8
ENDBRANCH   1   5
BRANCH   1  17
ATOM     17  N   UNL     1      46.786   4.403  15.847  0.00  0.00    +0.000 N 
ATOM     18  C   UNL     1      46.876   4.167  14.499  0.00  0.00    +0.000 C 
ATOM     19  O   UNL     1      47.256   3.089  14.048  0.00  0.00    +0.000 OA
ATOM     20  H   UNL     1      46.709   5.360  16.177  0.00  0.00    +0.000 HD
BRANCH  18  21
ATOM     21  C   UNL     1      46.417   5.252  13.623  0.00  0.00    +0.000 A 
ATOM     22  C   UNL     1      47.243   6.343  13.374  0.00  0.00    +0.000 A 
ATOM     23  S   UNL     1      46.581   7.463  12.269  0.00  0.00    +0.000 S 
ATOM     24  C   UNL     1      45.143   6.564  12.132  0.00  0.00    +0.000 A 
ATOM     25  N   UNL     1      44.124   6.987  11.338  0.00  0.00    +0.000 NA
ATOM     26  C   UNL     1      43.079   6.229  11.361  0.00  0.00    +0.000 A 
ATOM     27  N   UNL     1      42.961   5.083  12.104  0.00  0.00    +0.000 N 
ATOM     28  C   UNL     1      43.981   4.595  12.885  0.00  0.00    +0.000 A 
ATOM     29  O   UNL     1      43.865   3.532  13.489  0.00  0.00    +0.000 OA
ATOM     30  C   UNL     1      45.172   5.419  12.907  0.00  0.00    +0.000 A 
ATOM     31  H   UNL     1      42.120   4.528  12.069  0.00  0.00    +0.000 HD
ENDBRANCH  18  21
ENDBRANCH   1  17
TORSDOF 6
ENDMDL
MODEL 5
REMARK VINA RESULT:    -6.757      5.169      7.752
REMARK INTER + INTRA:         -10.055
REMARK INTER:                  -9.045
REMARK INTRA:                  -1.009
REMARK UNBOUND:                -0.927
REMARK  Name = 
REMARK  6 active torsions:
REMARK  status: ('A' for Active; 'I' for Inactive)
REMARK    1  A    between atoms: C_2  and  C_3
REMARK    2  A    between atoms: C_7  and  C_8
REMARK    3  A    between atoms: C_8  and  C_9
REMARK    4  A    between atoms: C_12  and  C_13
REMARK    5  A    between atoms: C_13  and  N_14
REMARK    6  A    between atoms: C_15  and  C_17
REMARK                            x       y       z     vdW  Elec       q    Type
REMARK                         _______ _______ _______ _____ _____    ______ ____
ROOT
ATOM      1  C   UNL     1      46.533   8.240  12.297  0.00  0.00    +0.000 C 
ENDROOT
BRANCH   1   5
ATOM      2  C   UNL     1      50.720   8.686  11.574  0.00  0.00    +0.000 A 
ATOM      3  C   UNL     1      50.242   7.437  11.963  0.00  0.00    +0.000 A 
ATOM      4  C   UNL     1      48.876   7.279  12.203  0.00  0.00    +0.000 A 
ATOM      5  C   UNL     1      48.014   8.371  12.091  0.00  0.00    +0.000 A 
ATOM      6  C   UNL     1      48.586   9.587  11.732  0.00  0.00    +0.000 A 
ATOM      7  N   UNL     1      49.905   9.767  11.471  0.00  0.00    +0.000 NA
BRANCH   2   8
ATOM      8  C   UNL     1      52.172   8.870  11.179  0.00  0.00    +0.000 C 
BRANCH   8  13
ATOM      9  C   UNL     1      52.818   7.302   7.757  0.00  0.00    +0.000 A 
ATOM     10  C   UNL     1      53.059   8.430   6.968  0.00  0.00    +0.000 A 
ATOM     11  C   UNL     1      53.027   9.699   7.545  0.00  0.00    +0.000 A 
ATOM     12  C   UNL     1      52.740   9.846   8.906  0.00  0.00    +0.000 A 
ATOM     13  C   UNL     1      52.469   8.723   9.702  0.00  0.00    +0.000 A 
ATOM     14  C   UNL     1      52.529   7.449   9.118  0.00  0.00    +0.000 A 
BRANCH   9  16
ATOM     15  N   UNL     1      52.913   4.928   6.711  0.00  0.00    +0.000 NA
ATOM     16  C   UNL     1      52.876   5.992   7.174  0.00  0.00    +0.000 C 
ENDBRANCH   9  16
ENDBRANCH   8  13
ENDBRANCH   2   8
ENDBRANCH   1   5
BRANCH   1  17
ATOM     17  N   UNL     1      46.084   6.886  12.051  0.00  0.00    +0.000 N 
ATOM     18  C   UNL     1      44.816   6.612  11.604  0.00  0.00    +0.000 C 
ATOM     19  O   UNL     1      43.999   7.500  11.373  0.00  0.00    +0.000 OA
ATOM     20  H   UNL     1      46.636   6.139  12.459  0.00  0.00    +0.000 HD
BRANCH  18  21
ATOM     21  C   UNL     1      44.516   5.199  11.343  0.00  0.00    +0.000 A 
ATOM     22  C   UNL     1      43.767   4.466  12.256  0.00  0.00    +0.000 A 
ATOM     23  S   UNL     1      43.446   2.868  11.749  0.00  0.00    +0.000 S 
ATOM     24  C   UNL     1      44.349   3.078  10.323  0.00  0.00    +0.000 A 
ATOM     25  N   UNL     1      44.496   2.064   9.429  0.00  0.00    +0.000 NA
ATOM     26  C   UNL     1      45.239   2.351   8.413  0.00  0.00    +0.000 A 
ATOM     27  N   UNL     1      45.847   3.563   8.207  0.00  0.00    +0.000 N 
ATOM     28  C   UNL     1      45.689   4.629   9.060  0.00  0.00    +0.000 A 
ATOM     29  O   UNL     1      46.196   5.720   8.813  0.00  0.00    +0.000 OA
ATOM     30  C   UNL     1      44.876   4.353  10.227  0.00  0.00    +0.000 A 
ATOM     31  H   UNL     1      46.407   3.728   7.385  0.00  0.00    +0.000 HD
ENDBRANCH  18  21
ENDBRANCH   1  17
TORSDOF 6
ENDMDL
MODEL 6
REMARK VINA RESULT:    -6.752      3.357      7.949
REMARK INTER + INTRA:         -10.048
REMARK INTER:                  -9.029
REMARK INTRA:                  -1.019
REMARK UNBOUND:                -0.927
REMARK  Name = 
REMARK  6 active torsions:
REMARK  status: ('A' for Active; 'I' for Inactive)
REMARK    1  A    between atoms: C_2  and  C_3
REMARK    2  A    between atoms: C_7  and  C_8
REMARK    3  A    between atoms: C_8  and  C_9
REMARK    4  A    between atoms: C_12  and  C_13
REMARK    5  A    between atoms: C_13  and  N_14
REMARK    6  A    between atoms: C_15  and  C_17
REMARK                            x       y       z     vdW  Elec       q    Type
REMARK                         _______ _______ _______ _____ _____    ______ ____
ROOT
ATOM      1  C   UNL     1      48.182   8.355  11.868  0.00  0.00    +0.000 C 
ENDROOT
BRANCH   1   5
ATOM      2  C   UNL     1      49.429   7.821  15.920  0.00  0.00    +0.000 A 
ATOM      3  C   UNL     1      48.290   8.582  15.670  0.00  0.00    +0.000 A 
ATOM      4  C   UNL     1      47.872   8.765  14.350  0.00  0.00    +0.000 A 
ATOM      5  C   UNL     1      48.615   8.222  13.300  0.00  0.00    +0.000 A 
ATOM      6  C   UNL     1      49.757   7.507  13.643  0.00  0.00    +0.000 A 
ATOM      7  N   UNL     1      50.175   7.295  14.916  0.00  0.00    +0.000 NA
BRANCH   2   8
ATOM      8  C   UNL     1      49.842   7.493  17.341  0.00  0.00    +0.000 C 
BRANCH   8  13
ATOM      9  C   UNL     1      49.074   3.757  17.540  0.00  0.00    +0.000 A 
ATOM     10  C   UNL     1      48.465   3.658  18.795  0.00  0.00    +0.000 A 
ATOM     11  C   UNL     1      48.289   4.802  19.572  0.00  0.00    +0.000 A 
ATOM     12  C   UNL     1      48.733   6.043  19.106  0.00  0.00    +0.000 A 
ATOM     13  C   UNL     1      49.371   6.151  17.862  0.00  0.00    +0.000 A 
ATOM     14  C   UNL     1      49.520   4.999  17.076  0.00  0.00    +0.000 A 
BRANCH   9  16
ATOM     15  N   UNL     1      49.375   1.644  16.063  0.00  0.00    +0.000 NA
ATOM     16  C   UNL     1      49.233   2.587  16.725  0.00  0.00    +0.000 C 
ENDBRANCH   9  16
ENDBRANCH   8  13
ENDBRANCH   2   8
ENDBRANCH   1   5
BRANCH   1  17
ATOM     17  N   UNL     1      47.496   7.165  11.412  0.00  0.00    +0.000 N 
ATOM     18  C   UNL     1      46.129   7.102  11.334  0.00  0.00    +0.000 C 
ATOM     19  O   UNL     1      45.412   8.055  11.630  0.00  0.00    +0.000 OA
ATOM     20  H   UNL     1      48.032   6.303  11.398  0.00  0.00    +0.000 HD
BRANCH  18  21
ATOM     21  C   UNL     1      45.571   5.853  10.799  0.00  0.00    +0.000 A 
ATOM     22  C   UNL     1      45.774   5.514   9.467  0.00  0.00    +0.000 A 
ATOM     23  S   UNL     1      45.128   3.992   9.042  0.00  0.00    +0.000 S 
ATOM     24  C   UNL     1      44.498   3.760  10.606  0.00  0.00    +0.000 A 
ATOM     25  N   UNL     1      43.796   2.639  10.921  0.00  0.00    +0.000 NA
ATOM     26  C   UNL     1      43.344   2.615  12.130  0.00  0.00    +0.000 A 
ATOM     27  N   UNL     1      43.532   3.609  13.055  0.00  0.00    +0.000 N 
ATOM     28  C   UNL     1      44.271   4.738  12.794  0.00  0.00    +0.000 A 
ATOM     29  O   UNL     1      44.473   5.580  13.665  0.00  0.00    +0.000 OA
ATOM     30  C   UNL     1      44.789   4.822  11.443  0.00  0.00    +0.000 A 
ATOM     31  H   UNL     1      43.161   3.524  13.989  0.00  0.00    +0.000 HD
ENDBRANCH  18  21
ENDBRANCH   1  17
TORSDOF 6
ENDMDL
MODEL 7
REMARK VINA RESULT:    -6.588      3.789      7.848
REMARK INTER + INTRA:          -9.826
REMARK INTER:                  -8.774
REMARK INTRA:                  -1.052
REMARK UNBOUND:                -0.927
REMARK  Name = 
REMARK  6 active torsions:
REMARK  status: ('A' for Active; 'I' for Inactive)
REMARK    1  A    between atoms: C_2  and  C_3
REMARK    2  A    between atoms: C_7  and  C_8
REMARK    3  A    between atoms: C_8  and  C_9
REMARK    4  A    between atoms: C_12  and  C_13
REMARK    5  A    between atoms: C_13  and  N_14
REMARK    6  A    between atoms: C_15  and  C_17
REMARK                            x       y       z     vdW  Elec       q    Type
REMARK                         _______ _______ _______ _____ _____    ______ ____
ROOT
ATOM      1  C   UNL     1      47.926   9.021  13.673  0.00  0.00    +0.000 C 
ENDROOT
BRANCH   1   5
ATOM      2  C   UNL     1      49.947   6.897  16.781  0.00  0.00    +0.000 A 
ATOM      3  C   UNL     1      48.980   7.834  17.136  0.00  0.00    +0.000 A 
ATOM      4  C   UNL     1      48.313   8.536  16.130  0.00  0.00    +0.000 A 
ATOM      5  C   UNL     1      48.645   8.323  14.791  0.00  0.00    +0.000 A 
ATOM      6  C   UNL     1      49.647   7.394  14.533  0.00  0.00    +0.000 A 
ATOM      7  N   UNL     1      50.297   6.683  15.487  0.00  0.00    +0.000 NA
BRANCH   2   8
ATOM      8  C   UNL     1      50.602   6.024  17.834  0.00  0.00    +0.000 C 
BRANCH   8  13
ATOM      9  C   UNL     1      51.423   2.306  17.542  0.00  0.00    +0.000 A 
ATOM     10  C   UNL     1      50.175   1.764  17.221  0.00  0.00    +0.000 A 
ATOM     11  C   UNL     1      49.069   2.602  17.084  0.00  0.00    +0.000 A 
ATOM     12  C   UNL     1      49.203   3.979  17.282  0.00  0.00    +0.000 A 
ATOM     13  C   UNL     1      50.443   4.532  17.632  0.00  0.00    +0.000 A 
ATOM     14  C   UNL     1      51.555   3.684  17.742  0.00  0.00    +0.000 A 
BRANCH   9  16
ATOM     15  N   UNL     1      53.489   0.749  17.753  0.00  0.00    +0.000 NA
ATOM     16  C   UNL     1      52.570   1.451  17.658  0.00  0.00    +0.000 C 
ENDBRANCH   9  16
ENDBRANCH   8  13
ENDBRANCH   2   8
ENDBRANCH   1   5
BRANCH   1  17
ATOM     17  N   UNL     1      46.737   8.297  13.277  0.00  0.00    +0.000 N 
ATOM     18  C   UNL     1      46.750   7.385  12.253  0.00  0.00    +0.000 C 
ATOM     19  O   UNL     1      47.774   7.120  11.627  0.00  0.00    +0.000 OA
ATOM     20  H   UNL     1      45.848   8.665  13.599  0.00  0.00    +0.000 HD
BRANCH  18  21
ATOM     21  C   UNL     1      45.485   6.683  11.999  0.00  0.00    +0.000 A 
ATOM     22  C   UNL     1      44.408   7.368  11.449  0.00  0.00    +0.000 A 
ATOM     23  S   UNL     1      43.052   6.377  11.144  0.00  0.00    +0.000 S 
ATOM     24  C   UNL     1      43.832   5.013  11.795  0.00  0.00    +0.000 A 
ATOM     25  N   UNL     1      43.205   3.808  11.858  0.00  0.00    +0.000 NA
ATOM     26  C   UNL     1      43.900   2.871  12.412  0.00  0.00    +0.000 A 
ATOM     27  N   UNL     1      45.168   3.029  12.907  0.00  0.00    +0.000 N 
ATOM     28  C   UNL     1      45.857   4.215  12.825  0.00  0.00    +0.000 A 
ATOM     29  O   UNL     1      47.016   4.305  13.221  0.00  0.00    +0.000 OA
ATOM     30  C   UNL     1      45.114   5.305  12.226  0.00  0.00    +0.000 A 
ATOM     31  H   UNL     1      45.663   2.253  13.319  0.00  0.00    +0.000 HD
ENDBRANCH  18  21
ENDBRANCH   1  17
TORSDOF 6
ENDMDL
MODEL 8
REMARK VINA RESULT:    -6.413      3.334      8.690
REMARK INTER + INTRA:          -9.590
REMARK INTER:                  -8.770
REMARK INTRA:                  -0.819
REMARK UNBOUND:                -0.927
REMARK  Name = 
REMARK  6 active torsions:
REMARK  status: ('A' for Active; 'I' for Inactive)
REMARK    1  A    between atoms: C_2  and  C_3
REMARK    2  A    between atoms: C_7  and  C_8
REMARK    3  A    between atoms: C_8  and  C_9
REMARK    4  A    between atoms: C_12  and  C_13
REMARK    5  A    between atoms: C_13  and  N_14
REMARK    6  A    between atoms: C_15  and  C_17
REMARK                            x       y       z     vdW  Elec       q    Type
REMARK                         _______ _______ _______ _____ _____    ______ ____
ROOT
ATOM      1  C   UNL     1      47.603   7.500  12.199  0.00  0.00    +0.000 C 
ENDROOT
BRANCH   1   5
ATOM      2  C   UNL     1      49.732   7.124  15.884  0.00  0.00    +0.000 A 
ATOM      3  C   UNL     1      50.114   8.125  14.995  0.00  0.00    +0.000 A 
ATOM      4  C   UNL     1      49.427   8.258  13.787  0.00  0.00    +0.000 A 
ATOM      5  C   UNL     1      48.399   7.370  13.466  0.00  0.00    +0.000 A 
ATOM      6  C   UNL     1      48.110   6.380  14.398  0.00  0.00    +0.000 A 
ATOM      7  N   UNL     1      48.745   6.240  15.589  0.00  0.00    +0.000 NA
BRANCH   2   8
ATOM      8  C   UNL     1      50.366   7.027  17.258  0.00  0.00    +0.000 C 
BRANCH   8  13
ATOM      9  C   UNL     1      51.888   3.534  17.523  0.00  0.00    +0.000 A 
ATOM     10  C   UNL     1      53.228   3.828  17.794  0.00  0.00    +0.000 A 
ATOM     11  C   UNL     1      53.638   5.156  17.905  0.00  0.00    +0.000 A 
ATOM     12  C   UNL     1      52.716   6.193  17.732  0.00  0.00    +0.000 A 
ATOM     13  C   UNL     1      51.375   5.912  17.432  0.00  0.00    +0.000 A 
ATOM     14  C   UNL     1      50.967   4.573  17.348  0.00  0.00    +0.000 A 
BRANCH   9  16
ATOM     15  N   UNL     1      51.096   1.068  17.371  0.00  0.00    +0.000 NA
ATOM     16  C   UNL     1      51.455   2.169  17.434  0.00  0.00    +0.000 C 
ENDBRANCH   9  16
ENDBRANCH   8  13
ENDBRANCH   2   8
ENDBRANCH   1   5
BRANCH   1  17
ATOM     17  N   UNL     1      46.884   6.280  11.901  0.00  0.00    +0.000 N 
ATOM     18  C   UNL     1      45.514   6.241  11.847  0.00  0.00    +0.000 C 
ATOM     19  O   UNL     1      44.823   7.240  12.033  0.00  0.00    +0.000 OA
ATOM     20  H   UNL     1      47.400   5.411  11.987  0.00  0.00    +0.000 HD
BRANCH  18  21
ATOM     21  C   UNL     1      44.920   4.950  11.477  0.00  0.00    +0.000 A 
ATOM     22  C   UNL     1      44.183   4.230  12.410  0.00  0.00    +0.000 A 
ATOM     23  S   UNL     1      43.498   2.797  11.782  0.00  0.00    +0.000 S 
ATOM     24  C   UNL     1      44.215   3.055  10.261  0.00  0.00    +0.000 A 
ATOM     25  N   UNL     1      44.042   2.169   9.244  0.00  0.00    +0.000 NA
ATOM     26  C   UNL     1      44.675   2.470   8.159  0.00  0.00    +0.000 A 
ATOM     27  N   UNL     1      45.464   3.579   7.998  0.00  0.00    +0.000 N 
ATOM     28  C   UNL     1      45.632   4.523   8.982  0.00  0.00    +0.000 A 
ATOM     29  O   UNL     1      46.294   5.538   8.783  0.00  0.00    +0.000 OA
ATOM     30  C   UNL     1      44.954   4.224  10.228  0.00  0.00    +0.000 A 
ATOM     31  H   UNL     1      45.924   3.764   7.120  0.00  0.00    +0.000 HD
ENDBRANCH  18  21
ENDBRANCH   1  17
TORSDOF 6
ENDMDL
MODEL 9
REMARK VINA RESULT:    -6.216      3.273      9.369
REMARK INTER + INTRA:          -9.324
REMARK INTER:                  -8.344
REMARK INTRA:                  -0.980
REMARK UNBOUND:                -0.927
REMARK  Name = 
REMARK  6 active torsions:
REMARK  status: ('A' for Active; 'I' for Inactive)
REMARK    1  A    between atoms: C_2  and  C_3
REMARK    2  A    between atoms: C_7  and  C_8
REMARK    3  A    between atoms: C_8  and  C_9
REMARK    4  A    between atoms: C_12  and  C_13
REMARK    5  A    between atoms: C_13  and  N_14
REMARK    6  A    between atoms: C_15  and  C_17
REMARK                            x       y       z     vdW  Elec       q    Type
REMARK                         _______ _______ _______ _____ _____    ______ ____
ROOT
ATOM      1  C   UNL     1      47.646   7.624  12.020  0.00  0.00    +0.000 C 
ENDROOT
BRANCH   1   5
ATOM      2  C   UNL     1      50.173   7.201  15.439  0.00  0.00    +0.000 A 
ATOM      3  C   UNL     1      50.507   8.153  14.480  0.00  0.00    +0.000 A 
ATOM      4  C   UNL     1      49.689   8.301  13.357  0.00  0.00    +0.000 A 
ATOM      5  C   UNL     1      48.578   7.474  13.188  0.00  0.00    +0.000 A 
ATOM      6  C   UNL     1      48.342   6.528  14.179  0.00  0.00    +0.000 A 
ATOM      7  N   UNL     1      49.105   6.376  15.291  0.00  0.00    +0.000 NA
BRANCH   2   8
ATOM      8  C   UNL     1      50.959   7.097  16.732  0.00  0.00    +0.000 C 
BRANCH   8  13
ATOM      9  C   UNL     1      48.598   7.317  19.726  0.00  0.00    +0.000 A 
ATOM     10  C   UNL     1      48.682   6.023  20.249  0.00  0.00    +0.000 A 
ATOM     11  C   UNL     1      49.512   5.082  19.642  0.00  0.00    +0.000 A 
ATOM     12  C   UNL     1      50.249   5.424  18.505  0.00  0.00    +0.000 A 
ATOM     13  C   UNL     1      50.153   6.711  17.954  0.00  0.00    +0.000 A 
ATOM     14  C   UNL     1      49.335   7.658  18.586  0.00  0.00    +0.000 A 
BRANCH   9  16
ATOM     15  N   UNL     1      47.103   9.099  20.877  0.00  0.00    +0.000 NA
ATOM     16  C   UNL     1      47.766   8.297  20.362  0.00  0.00    +0.000 C 
ENDBRANCH   9  16
ENDBRANCH   8  13
ENDBRANCH   2   8
ENDBRANCH   1   5
BRANCH   1  17
ATOM     17  N   UNL     1      46.917   6.400  11.766  0.00  0.00    +0.000 N 
ATOM     18  C   UNL     1      45.546   6.359  11.765  0.00  0.00    +0.000 C 
ATOM     19  O   UNL     1      44.862   7.361  11.963  0.00  0.00    +0.000 OA
ATOM     20  H   UNL     1      47.436   5.532  11.845  0.00  0.00    +0.000 HD
BRANCH  18  21
ATOM     21  C   UNL     1      44.940   5.063  11.435  0.00  0.00    +0.000 A 
ATOM     22  C   UNL     1      44.188   4.384  12.387  0.00  0.00    +0.000 A 
ATOM     23  S   UNL     1      43.491   2.938  11.804  0.00  0.00    +0.000 S 
ATOM     24  C   UNL     1      44.222   3.136  10.280  0.00  0.00    +0.000 A 
ATOM     25  N   UNL     1      44.046   2.217   9.293  0.00  0.00    +0.000 NA
ATOM     26  C   UNL     1      44.690   2.472   8.204  0.00  0.00    +0.000 A 
ATOM     27  N   UNL     1      45.493   3.567   8.009  0.00  0.00    +0.000 N 
ATOM     28  C   UNL     1      45.664   4.542   8.962  0.00  0.00    +0.000 A 
ATOM     29  O   UNL     1      46.340   5.542   8.733  0.00  0.00    +0.000 OA
ATOM     30  C   UNL     1      44.974   4.294  10.212  0.00  0.00    +0.000 A 
ATOM     31  H   UNL     1      45.961   3.715   7.129  0.00  0.00    +0.000 HD
ENDBRANCH  18  21
ENDBRANCH   1  17
TORSDOF 6
ENDMDL
