MODEL 1
REMARK VINA RESULT:    -7.147      0.000      0.000
REMARK INTER + INTRA:          -9.598
REMARK INTER:                  -9.027
REMARK INTRA:                  -0.571
REMARK UNBOUND:                -0.571
REMARK  Name = 
REMARK  5 active torsions:
REMARK  status: ('A' for Active; 'I' for Inactive)
REMARK    1  A    between atoms: N_1  and  C_2
REMARK    2  A    between atoms: C_2  and  C_3
REMARK    3  A    between atoms: C_6  and  O_7
REMARK    4  A    between atoms: O_7  and  C_8
REMARK    5  A    between atoms: C_8  and  C_9
REMARK                            x       y       z     vdW  Elec       q    Type
REMARK                         _______ _______ _______ _____ _____    ______ ____
ROOT
ATOM      1  C   UNL     1      46.573   2.184   7.549  0.00  0.00    +0.000 A 
ATOM      2  C   UNL     1      45.799   1.266   8.274  0.00  0.00    +0.000 A 
ATOM      3  C   UNL     1      44.824   1.700   9.173  0.00  0.00    +0.000 A 
ATOM      4  C   UNL     1      44.591   3.064   9.349  0.00  0.00    +0.000 A 
ATOM      5  C   UNL     1      45.392   3.981   8.663  0.00  0.00    +0.000 A 
ATOM      6  F   UNL     1      45.209   5.299   8.837  0.00  0.00    +0.000 F 
ATOM      7  C   UNL     1      46.372   3.554   7.768  0.00  0.00    +0.000 A 
ENDROOT
BRANCH   1   8
ATOM      8  C   UNL     1      47.604   1.692   6.569  0.00  0.00    +0.000 C 
BRANCH   8   9
ATOM      9  N   UNL     1      48.649   2.687   6.359  0.00  0.00    +0.000 NA
ATOM     10  H   UNL     1      49.088   2.907   7.251  0.00  0.00    +0.000 HD
ATOM     11  H   UNL     1      48.223   3.551   6.026  0.00  0.00    +0.000 HD
ENDBRANCH   8   9
ENDBRANCH   1   8
BRANCH   4  12
ATOM     12  O   UNL     1      43.618   3.577  10.165  0.00  0.00    +0.000 OA
BRANCH  12  13
ATOM     13  C   UNL     1      43.717   3.178  11.538  0.00  0.00    +0.000 C 
BRANCH  13  14
ATOM     14  C   UNL     1      44.838   3.896  12.253  0.00  0.00    +0.000 A 
ATOM     15  C   UNL     1      44.848   5.284  12.371  0.00  0.00    +0.000 A 
ATOM     16  C   UNL     1      45.865   5.890  13.100  0.00  0.00    +0.000 A 
ATOM     17  C   UNL     1      46.835   5.101  13.702  0.00  0.00    +0.000 A 
ATOM     18  C   UNL     1      46.745   3.727  13.554  0.00  0.00    +0.000 A 
ATOM     19  N   UNL     1      45.772   3.110  12.850  0.00  0.00    +0.000 NA
ENDBRANCH  13  14
ENDBRANCH  12  13
ENDBRANCH   4  12
TORSDOF 5
ENDMDL
MODEL 2
REMARK VINA RESULT:    -6.848      1.113      1.607
REMARK INTER + INTRA:          -9.221
REMARK INTER:                  -9.224
REMARK INTRA:                   0.003
REMARK UNBOUND:                -0.571
REMARK  Name = 
REMARK  5 active torsions:
REMARK  status: ('A' for Active; 'I' for Inactive)
REMARK    1  A    between atoms: N_1  and  C_2
REMARK    2  A    between atoms: C_2  and  C_3
REMARK    3  A    between atoms: C_6  and  O_7
REMARK    4  A    between atoms: O_7  and  C_8
REMARK    5  A    between atoms: C_8  and  C_9
REMARK                            x       y       z     vdW  Elec       q    Type
REMARK                         _______ _______ _______ _____ _____    ______ ____
ROOT
ATOM      1  C   UNL     1      46.667   2.318   7.617  0.00  0.00    +0.000 A 
ATOM      2  C   UNL     1      46.538   3.713   7.559  0.00  0.00    +0.000 A 
ATOM      3  C   UNL     1      45.560   4.376   8.302  0.00  0.00    +0.000 A 
ATOM      4  C   UNL     1      44.703   3.654   9.133  0.00  0.00    +0.000 A 
ATOM      5  C   UNL     1      44.799   2.260   9.156  0.00  0.00    +0.000 A 
ATOM      6  F   UNL     1      43.968   1.539   9.924  0.00  0.00    +0.000 F 
ATOM      7  C   UNL     1      45.770   1.592   8.412  0.00  0.00    +0.000 A 
ENDROOT
BRANCH   1   8
ATOM      8  C   UNL     1      47.744   1.628   6.823  0.00  0.00    +0.000 C 
BRANCH   8   9
ATOM      9  N   UNL     1      48.714   2.585   6.306  0.00  0.00    +0.000 NA
ATOM     10  H   UNL     1      48.623   3.463   6.813  0.00  0.00    +0.000 HD
ATOM     11  H   UNL     1      48.493   2.789   5.333  0.00  0.00    +0.000 HD
ENDBRANCH   8   9
ENDBRANCH   1   8
BRANCH   4  12
ATOM     12  O   UNL     1      43.754   4.225   9.939  0.00  0.00    +0.000 OA
BRANCH  12  13
ATOM     13  C   UNL     1      43.801   3.802  11.308  0.00  0.00    +0.000 C 
BRANCH  13  14
ATOM     14  C   UNL     1      45.003   4.365  12.030  0.00  0.00    +0.000 A 
ATOM     15  C   UNL     1      45.327   5.718  11.949  0.00  0.00    +0.000 A 
ATOM     16  C   UNL     1      46.402   6.198  12.689  0.00  0.00    +0.000 A 
ATOM     17  C   UNL     1      47.115   5.325  13.499  0.00  0.00    +0.000 A 
ATOM     18  C   UNL     1      46.719   3.998  13.540  0.00  0.00    +0.000 A 
ATOM     19  N   UNL     1      45.683   3.503  12.831  0.00  0.00    +0.000 NA
ENDBRANCH  13  14
ENDBRANCH  12  13
ENDBRANCH   4  12
TORSDOF 5
ENDMDL
MODEL 3
REMARK VINA RESULT:    -6.758      2.446      5.897
REMARK INTER + INTRA:          -9.107
REMARK INTER:                  -8.699
REMARK INTRA:                  -0.408
REMARK UNBOUND:                -0.571
REMARK  Name = 
REMARK  5 active torsions:
REMARK  status: ('A' for Active; 'I' for Inactive)
REMARK    1  A    between atoms: N_1  and  C_2
REMARK    2  A    between atoms: C_2  and  C_3
REMARK    3  A    between atoms: C_6  and  O_7
REMARK    4  A    between atoms: O_7  and  C_8
REMARK    5  A    between atoms: C_8  and  C_9
REMARK                            x       y       z     vdW  Elec       q    Type
REMARK                         _______ _______ _______ _____ _____    ______ ____
ROOT
ATOM      1  C   UNL     1      45.829   6.941  12.540  0.00  0.00    +0.000 A 
ATOM      2  C   UNL     1      45.189   6.832  11.296  0.00  0.00    +0.000 A 
ATOM      3  C   UNL     1      44.916   5.582  10.737  0.00  0.00    +0.000 A 
ATOM      4  C   UNL     1      45.262   4.417  11.422  0.00  0.00    +0.000 A 
ATOM      5  C   UNL     1      45.940   4.525  12.639  0.00  0.00    +0.000 A 
ATOM      6  F   UNL     1      46.311   3.420  13.305  0.00  0.00    +0.000 F 
ATOM      7  C   UNL     1      46.221   5.769  13.200  0.00  0.00    +0.000 A 
ENDROOT
BRANCH   1   8
ATOM      8  C   UNL     1      46.093   8.299  13.133  0.00  0.00    +0.000 C 
BRANCH   8   9
ATOM      9  N   UNL     1      44.995   9.218  12.859  0.00  0.00    +0.000 NA
ATOM     10  H   UNL     1      44.153   8.683  12.656  0.00  0.00    +0.000 HD
ATOM     11  H   UNL     1      45.209   9.750  12.017  0.00  0.00    +0.000 HD
ENDBRANCH   8   9
ENDBRANCH   1   8
BRANCH   4  12
ATOM     12  O   UNL     1      44.981   3.153  10.977  0.00  0.00    +0.000 OA
BRANCH  12  13
ATOM     13  C   UNL     1      44.355   3.099   9.689  0.00  0.00    +0.000 C 
BRANCH  13  14
ATOM     14  C   UNL     1      45.327   2.690   8.607  0.00  0.00    +0.000 A 
ATOM     15  C   UNL     1      45.787   3.606   7.664  0.00  0.00    +0.000 A 
ATOM     16  C   UNL     1      46.735   3.195   6.733  0.00  0.00    +0.000 A 
ATOM     17  C   UNL     1      47.209   1.891   6.774  0.00  0.00    +0.000 A 
ATOM     18  C   UNL     1      46.716   1.045   7.754  0.00  0.00    +0.000 A 
ATOM     19  N   UNL     1      45.794   1.414   8.668  0.00  0.00    +0.000 NA
ENDBRANCH  13  14
ENDBRANCH  12  13
ENDBRANCH   4  12
TORSDOF 5
ENDMDL
MODEL 4
REMARK VINA RESULT:    -6.749      1.695      5.427
REMARK INTER + INTRA:          -9.096
REMARK INTER:                  -8.641
REMARK INTRA:                  -0.455
REMARK UNBOUND:                -0.571
REMARK  Name = 
REMARK  5 active torsions:
REMARK  status: ('A' for Active; 'I' for Inactive)
REMARK    1  A    between atoms: N_1  and  C_2
REMARK    2  A    between atoms: C_2  and  C_3
REMARK    3  A    between atoms: C_6  and  O_7
REMARK    4  A    between atoms: O_7  and  C_8
REMARK    5  A    between atoms: C_8  and  C_9
REMARK                            x       y       z     vdW  Elec       q    Type
REMARK                         _______ _______ _______ _____ _____    ______ ____
ROOT
ATOM      1  C   UNL     1      46.649   5.082  13.270  0.00  0.00    +0.000 A 
ATOM      2  C   UNL     1      46.076   3.802  13.294  0.00  0.00    +0.000 A 
ATOM      3  C   UNL     1      45.265   3.358  12.248  0.00  0.00    +0.000 A 
ATOM      4  C   UNL     1      45.027   4.183  11.147  0.00  0.00    +0.000 A 
ATOM      5  C   UNL     1      45.559   5.475  11.144  0.00  0.00    +0.000 A 
ATOM      6  F   UNL     1      45.322   6.300  10.112  0.00  0.00    +0.000 F 
ATOM      7  C   UNL     1      46.365   5.926  12.188  0.00  0.00    +0.000 A 
ENDROOT
BRANCH   1   8
ATOM      8  C   UNL     1      47.537   5.530  14.399  0.00  0.00    +0.000 C 
BRANCH   8   9
ATOM      9  N   UNL     1      48.675   6.295  13.904  0.00  0.00    +0.000 NA
ATOM     10  H   UNL     1      48.923   7.009  14.585  0.00  0.00    +0.000 HD
ATOM     11  H   UNL     1      48.400   6.788  13.056  0.00  0.00    +0.000 HD
ENDBRANCH   8   9
ENDBRANCH   1   8
BRANCH   4  12
ATOM     12  O   UNL     1      44.294   3.809  10.053  0.00  0.00    +0.000 OA
BRANCH  12  13
ATOM     13  C   UNL     1      44.498   2.455   9.631  0.00  0.00    +0.000 C 
BRANCH  13  14
ATOM     14  C   UNL     1      45.457   2.365   8.468  0.00  0.00    +0.000 A 
ATOM     15  C   UNL     1      45.696   3.462   7.642  0.00  0.00    +0.000 A 
ATOM     16  C   UNL     1      46.640   3.347   6.628  0.00  0.00    +0.000 A 
ATOM     17  C   UNL     1      47.330   2.153   6.471  0.00  0.00    +0.000 A 
ATOM     18  C   UNL     1      47.049   1.115   7.344  0.00  0.00    +0.000 A 
ATOM     19  N   UNL     1      46.136   1.195   8.335  0.00  0.00    +0.000 NA
ENDBRANCH  13  14
ENDBRANCH  12  13
ENDBRANCH   4  12
TORSDOF 5
ENDMDL
MODEL 5
REMARK VINA RESULT:    -6.707      1.981      5.647
REMARK INTER + INTRA:          -9.042
REMARK INTER:                  -8.991
REMARK INTRA:                  -0.051
REMARK UNBOUND:                -0.571
REMARK  Name = 
REMARK  5 active torsions:
REMARK  status: ('A' for Active; 'I' for Inactive)
REMARK    1  A    between atoms: N_1  and  C_2
REMARK    2  A    between atoms: C_2  and  C_3
REMARK    3  A    between atoms: C_6  and  O_7
REMARK    4  A    between atoms: O_7  and  C_8
REMARK    5  A    between atoms: C_8  and  C_9
REMARK                            x       y       z     vdW  Elec       q    Type
REMARK                         _______ _______ _______ _____ _____    ______ ____
ROOT
ATOM      1  C   UNL     1      46.466   5.801  12.711  0.00  0.00    +0.000 A 
ATOM      2  C   UNL     1      46.412   6.256  11.386  0.00  0.00    +0.000 A 
ATOM      3  C   UNL     1      45.648   5.588  10.428  0.00  0.00    +0.000 A 
ATOM      4  C   UNL     1      44.908   4.460  10.784  0.00  0.00    +0.000 A 
ATOM      5  C   UNL     1      44.998   3.978  12.092  0.00  0.00    +0.000 A 
ATOM      6  F   UNL     1      44.320   2.878  12.454  0.00  0.00    +0.000 F 
ATOM      7  C   UNL     1      45.763   4.638  13.052  0.00  0.00    +0.000 A 
ENDROOT
BRANCH   1   8
ATOM      8  C   UNL     1      47.280   6.551  13.732  0.00  0.00    +0.000 C 
BRANCH   8   9
ATOM      9  N   UNL     1      47.776   5.657  14.772  0.00  0.00    +0.000 NA
ATOM     10  H   UNL     1      47.034   5.483  15.447  0.00  0.00    +0.000 HD
ATOM     11  H   UNL     1      48.526   6.122  15.280  0.00  0.00    +0.000 HD
ENDBRANCH   8   9
ENDBRANCH   1   8
BRANCH   4  12
ATOM     12  O   UNL     1      44.088   3.778   9.925  0.00  0.00    +0.000 OA
BRANCH  12  13
ATOM     13  C   UNL     1      44.502   2.435   9.645  0.00  0.00    +0.000 C 
BRANCH  13  14
ATOM     14  C   UNL     1      45.433   2.368   8.458  0.00  0.00    +0.000 A 
ATOM     15  C   UNL     1      45.560   3.441   7.578  0.00  0.00    +0.000 A 
ATOM     16  C   UNL     1      46.484   3.356   6.541  0.00  0.00    +0.000 A 
ATOM     17  C   UNL     1      47.264   2.215   6.417  0.00  0.00    +0.000 A 
ATOM     18  C   UNL     1      47.092   1.199   7.343  0.00  0.00    +0.000 A 
ATOM     19  N   UNL     1      46.202   1.252   8.356  0.00  0.00    +0.000 NA
ENDBRANCH  13  14
ENDBRANCH  12  13
ENDBRANCH   4  12
TORSDOF 5
ENDMDL
MODEL 6
REMARK VINA RESULT:    -6.199      1.739      5.573
REMARK INTER + INTRA:          -8.401
REMARK INTER:                  -8.245
REMARK INTRA:                  -0.157
REMARK UNBOUND:                -0.571
REMARK  Name = 
REMARK  5 active torsions:
REMARK  status: ('A' for Active; 'I' for Inactive)
REMARK    1  A    between atoms: N_1  and  C_2
REMARK    2  A    between atoms: C_2  and  C_3
REMARK    3  A    between atoms: C_6  and  O_7
REMARK    4  A    between atoms: O_7  and  C_8
REMARK    5  A    between atoms: C_8  and  C_9
REMARK                            x       y       z     vdW  Elec       q    Type
REMARK                         _______ _______ _______ _____ _____    ______ ____
ROOT
ATOM      1  C   UNL     1      46.761   5.568  13.471  0.00  0.00    +0.000 A 
ATOM      2  C   UNL     1      46.635   4.176  13.347  0.00  0.00    +0.000 A 
ATOM      3  C   UNL     1      45.633   3.613  12.555  0.00  0.00    +0.000 A 
ATOM      4  C   UNL     1      44.747   4.435  11.857  0.00  0.00    +0.000 A 
ATOM      5  C   UNL     1      44.841   5.819  12.016  0.00  0.00    +0.000 A 
ATOM      6  F   UNL     1      43.984   6.632  11.379  0.00  0.00    +0.000 F 
ATOM      7  C   UNL     1      45.837   6.388  12.809  0.00  0.00    +0.000 A 
ENDROOT
BRANCH   1   8
ATOM      8  C   UNL     1      47.863   6.152  14.312  0.00  0.00    +0.000 C 
BRANCH   8   9
ATOM      9  N   UNL     1      47.976   5.458  15.589  0.00  0.00    +0.000 NA
ATOM     10  H   UNL     1      48.925   5.558  15.944  0.00  0.00    +0.000 HD
ATOM     11  H   UNL     1      47.828   4.461  15.440  0.00  0.00    +0.000 HD
ENDBRANCH   8   9
ENDBRANCH   1   8
BRANCH   4  12
ATOM     12  O   UNL     1      43.772   3.971  11.014  0.00  0.00    +0.000 OA
BRANCH  12  13
ATOM     13  C   UNL     1      43.899   4.410   9.656  0.00  0.00    +0.000 C 
BRANCH  13  14
ATOM     14  C   UNL     1      44.958   3.632   8.909  0.00  0.00    +0.000 A 
ATOM     15  C   UNL     1      45.087   2.254   9.066  0.00  0.00    +0.000 A 
ATOM     16  C   UNL     1      46.031   1.575   8.302  0.00  0.00    +0.000 A 
ATOM     17  C   UNL     1      46.809   2.282   7.396  0.00  0.00    +0.000 A 
ATOM     18  C   UNL     1      46.608   3.648   7.285  0.00  0.00    +0.000 A 
ATOM     19  N   UNL     1      45.702   4.334   8.014  0.00  0.00    +0.000 NA
ENDBRANCH  13  14
ENDBRANCH  12  13
ENDBRANCH   4  12
TORSDOF 5
ENDMDL
MODEL 7
REMARK VINA RESULT:    -5.785      2.403      5.633
REMARK INTER + INTRA:          -7.878
REMARK INTER:                  -7.386
REMARK INTRA:                  -0.492
REMARK UNBOUND:                -0.571
REMARK  Name = 
REMARK  5 active torsions:
REMARK  status: ('A' for Active; 'I' for Inactive)
REMARK    1  A    between atoms: N_1  and  C_2
REMARK    2  A    between atoms: C_2  and  C_3
REMARK    3  A    between atoms: C_6  and  O_7
REMARK    4  A    between atoms: O_7  and  C_8
REMARK    5  A    between atoms: C_8  and  C_9
REMARK                            x       y       z     vdW  Elec       q    Type
REMARK                         _______ _______ _______ _____ _____    ______ ____
ROOT
ATOM      1  C   UNL     1      47.222   6.853  13.109  0.00  0.00    +0.000 A 
ATOM      2  C   UNL     1      46.029   7.496  12.749  0.00  0.00    +0.000 A 
ATOM      3  C   UNL     1      44.879   6.764  12.453  0.00  0.00    +0.000 A 
ATOM      4  C   UNL     1      44.896   5.370  12.532  0.00  0.00    +0.000 A 
ATOM      5  C   UNL     1      46.095   4.726  12.846  0.00  0.00    +0.000 A 
ATOM      6  F   UNL     1      46.148   3.386  12.899  0.00  0.00    +0.000 F 
ATOM      7  C   UNL     1      47.249   5.452  13.136  0.00  0.00    +0.000 A 
ENDROOT
BRANCH   1   8
ATOM      8  C   UNL     1      48.444   7.665  13.445  0.00  0.00    +0.000 C 
BRANCH   8   9
ATOM      9  N   UNL     1      49.571   6.806  13.788  0.00  0.00    +0.000 NA
ATOM     10  H   UNL     1      50.440   7.291  13.576  0.00  0.00    +0.000 HD
ATOM     11  H   UNL     1      49.550   5.978  13.195  0.00  0.00    +0.000 HD
ENDBRANCH   8   9
ENDBRANCH   1   8
BRANCH   4  12
ATOM     12  O   UNL     1      43.801   4.576  12.316  0.00  0.00    +0.000 OA
BRANCH  12  13
ATOM     13  C   UNL     1      43.289   4.617  10.978  0.00  0.00    +0.000 C 
BRANCH  13  14
ATOM     14  C   UNL     1      44.213   3.932  10.000  0.00  0.00    +0.000 A 
ATOM     15  C   UNL     1      44.311   2.543   9.948  0.00  0.00    +0.000 A 
ATOM     16  C   UNL     1      45.123   1.961   8.981  0.00  0.00    +0.000 A 
ATOM     17  C   UNL     1      45.803   2.773   8.084  0.00  0.00    +0.000 A 
ATOM     18  C   UNL     1      45.640   4.144   8.189  0.00  0.00    +0.000 A 
ATOM     19  N   UNL     1      44.861   4.738   9.118  0.00  0.00    +0.000 NA
ENDBRANCH  13  14
ENDBRANCH  12  13
ENDBRANCH   4  12
TORSDOF 5
ENDMDL
MODEL 8
REMARK VINA RESULT:    -5.356      4.554      6.105
REMARK INTER + INTRA:          -7.336
REMARK INTER:                  -6.849
REMARK INTRA:                  -0.487
REMARK UNBOUND:                -0.571
REMARK  Name = 
REMARK  5 active torsions:
REMARK  status: ('A' for Active; 'I' for Inactive)
REMARK    1  A    between atoms: N_1  and  C_2
REMARK    2  A    between atoms: C_2  and  C_3
REMARK    3  A    between atoms: C_6  and  O_7
REMARK    4  A    between atoms: O_7  and  C_8
REMARK    5  A    between atoms: C_8  and  C_9
REMARK                            x       y       z     vdW  Elec       q    Type
REMARK                         _______ _______ _______ _____ _____    ______ ____
ROOT
ATOM      1  C   UNL     1      44.369   5.444  12.425  0.00  0.00    +0.000 A 
ATOM      2  C   UNL     1      44.965   6.703  12.587  0.00  0.00    +0.000 A 
ATOM      3  C   UNL     1      46.242   6.828  13.136  0.00  0.00    +0.000 A 
ATOM      4  C   UNL     1      46.955   5.690  13.516  0.00  0.00    +0.000 A 
ATOM      5  C   UNL     1      46.345   4.440  13.399  0.00  0.00    +0.000 A 
ATOM      6  F   UNL     1      46.996   3.331  13.785  0.00  0.00    +0.000 F 
ATOM      7  C   UNL     1      45.067   4.308  12.857  0.00  0.00    +0.000 A 
ENDROOT
BRANCH   1   8
ATOM      8  C   UNL     1      42.999   5.333  11.810  0.00  0.00    +0.000 C 
BRANCH   8   9
ATOM      9  N   UNL     1      42.716   3.964  11.395  0.00  0.00    +0.000 NA
ATOM     10  H   UNL     1      42.271   3.466  12.162  0.00  0.00    +0.000 HD
ATOM     11  H   UNL     1      43.596   3.485  11.211  0.00  0.00    +0.000 HD
ENDBRANCH   8   9
ENDBRANCH   1   8
BRANCH   4  12
ATOM     12  O   UNL     1      48.233   5.715  14.009  0.00  0.00    +0.000 OA
BRANCH  12  13
ATOM     13  C   UNL     1      48.355   6.271  15.324  0.00  0.00    +0.000 C 
BRANCH  13  14
ATOM     14  C   UNL     1      48.484   5.198  16.379  0.00  0.00    +0.000 A 
ATOM     15  C   UNL     1      47.367   4.521  16.862  0.00  0.00    +0.000 A 
ATOM     16  C   UNL     1      47.548   3.493  17.782  0.00  0.00    +0.000 A 
ATOM     17  C   UNL     1      48.833   3.159  18.185  0.00  0.00    +0.000 A 
ATOM     18  C   UNL     1      49.894   3.868  17.645  0.00  0.00    +0.000 A 
ATOM     19  N   UNL     1      49.749   4.871  16.754  0.00  0.00    +0.000 NA
ENDBRANCH  13  14
ENDBRANCH  12  13
ENDBRANCH   4  12
TORSDOF 5
ENDMDL
MODEL 9
REMARK VINA RESULT:    -5.198      4.445      8.161
REMARK INTER + INTRA:          -7.137
REMARK INTER:                  -6.822
REMARK INTRA:                  -0.315
REMARK UNBOUND:                -0.571
REMARK  Name = 
REMARK  5 active torsions:
REMARK  status: ('A' for Active; 'I' for Inactive)
REMARK    1  A    between atoms: N_1  and  C_2
REMARK    2  A    between atoms: C_2  and  C_3
REMARK    3  A    between atoms: C_6  and  O_7
REMARK    4  A    between atoms: O_7  and  C_8
REMARK    5  A    between atoms: C_8  and  C_9
REMARK                            x       y       z     vdW  Elec       q    Type
REMARK                         _______ _______ _______ _____ _____    ______ ____
ROOT
ATOM      1  C   UNL     1      48.734   4.464  18.559  0.00  0.00    +0.000 A 
ATOM      2  C   UNL     1      48.312   5.518  17.736  0.00  0.00    +0.000 A 
ATOM      3  C   UNL     1      47.851   5.277  16.441  0.00  0.00    +0.000 A 
ATOM      4  C   UNL     1      47.785   3.972  15.952  0.00  0.00    +0.000 A 
ATOM      5  C   UNL     1      48.247   2.926  16.754  0.00  0.00    +0.000 A 
ATOM      6  F   UNL     1      48.223   1.663  16.298  0.00  0.00    +0.000 F 
ATOM      7  C   UNL     1      48.715   3.160  18.046  0.00  0.00    +0.000 A 
ENDROOT
BRANCH   1   8
ATOM      8  C   UNL     1      49.207   4.747  19.960  0.00  0.00    +0.000 C 
BRANCH   8   9
ATOM      9  N   UNL     1      48.424   4.004  20.941  0.00  0.00    +0.000 NA
ATOM     10  H   UNL     1      47.526   3.753  20.534  0.00  0.00    +0.000 HD
ATOM     11  H   UNL     1      48.222   4.612  21.734  0.00  0.00    +0.000 HD
ENDBRANCH   8   9
ENDBRANCH   1   8
BRANCH   4  12
ATOM     12  O   UNL     1      47.292   3.638  14.718  0.00  0.00    +0.000 OA
BRANCH  12  13
ATOM     13  C   UNL     1      46.910   4.755  13.906  0.00  0.00    +0.000 C 
BRANCH  13  14
ATOM     14  C   UNL     1      45.570   4.538  13.244  0.00  0.00    +0.000 A 
ATOM     15  C   UNL     1      44.727   5.607  12.950  0.00  0.00    +0.000 A 
ATOM     16  C   UNL     1      43.536   5.360  12.277  0.00  0.00    +0.000 A 
ATOM     17  C   UNL     1      43.223   4.061  11.901  0.00  0.00    +0.000 A 
ATOM     18  C   UNL     1      44.122   3.055  12.213  0.00  0.00    +0.000 A 
ATOM     19  N   UNL     1      45.283   3.263  12.869  0.00  0.00    +0.000 NA
ENDBRANCH  13  14
ENDBRANCH  12  13
ENDBRANCH   4  12
TORSDOF 5
ENDMDL
