MODEL 1
REMARK VINA RESULT:    -8.275      0.000      0.000
REMARK INTER + INTRA:         -10.173
REMARK INTER:                  -9.727
REMARK INTRA:                  -0.446
REMARK UNBOUND:                -0.446
REMARK  Name = 
REMARK  3 active torsions:
REMARK  status: ('A' for Active; 'I' for Inactive)
REMARK    1  A    between atoms: C_2  and  C_4
REMARK    2  A    between atoms: C_7  and  C_8
REMARK    3  A    between atoms: C_8  and  N_9
REMARK                            x       y       z     vdW  Elec       q    Type
REMARK                         _______ _______ _______ _____ _____    ______ ____
ROOT
ATOM      1  C   UNL     1      46.349   2.469   7.768  0.00  0.00    +0.000 A 
ATOM      2  C   UNL     1      45.607   1.795   8.737  0.00  0.00    +0.000 A 
ATOM      3  C   UNL     1      44.744   2.518   9.562  0.00  0.00    +0.000 A 
ATOM      4  C   UNL     1      44.647   3.903   9.412  0.00  0.00    +0.000 A 
ATOM      5  N   UNL     1      45.361   4.569   8.468  0.00  0.00    +0.000 NA
ATOM      6  C   UNL     1      46.193   3.844   7.675  0.00  0.00    +0.000 A 
ENDROOT
BRANCH   1   8
ATOM      7  N   UNL     1      48.424   2.520   6.493  0.00  0.00    +0.000 N 
ATOM      8  C   UNL     1      47.326   1.803   6.881  0.00  0.00    +0.000 C 
ATOM      9  O   UNL     1      47.173   0.643   6.522  0.00  0.00    +0.000 OA
ATOM     10  H   UNL     1      49.124   2.013   5.964  0.00  0.00    +0.000 HD
ATOM     11  H   UNL     1      48.710   3.375   6.945  0.00  0.00    +0.000 HD
ENDBRANCH   1   8
BRANCH   4  12
ATOM     12  C   UNL     1      43.782   4.727  10.334  0.00  0.00    +0.000 C 
BRANCH  12  13
ATOM     13  N   UNL     1      44.563   5.663  11.133  0.00  0.00    +0.000 N 
ATOM     14  C   UNL     1      44.536   7.026  10.963  0.00  0.00    +0.000 A 
ATOM     15  C   UNL     1      45.392   7.590  11.880  0.00  0.00    +0.000 A 
ATOM     16  C   UNL     1      45.978   6.535  12.630  0.00  0.00    +0.000 A 
ATOM     17  C   UNL     1      46.902   6.500  13.694  0.00  0.00    +0.000 A 
ATOM     18  C   UNL     1      47.300   5.266  14.219  0.00  0.00    +0.000 A 
ATOM     19  C   UNL     1      46.804   4.090  13.677  0.00  0.00    +0.000 A 
ATOM     20  F   UNL     1      47.204   2.916  14.188  0.00  0.00    +0.000 F 
ATOM     21  C   UNL     1      45.896   4.089  12.620  0.00  0.00    +0.000 A 
ATOM     22  C   UNL     1      45.474   5.331  12.119  0.00  0.00    +0.000 A 
ENDBRANCH  12  13
ENDBRANCH   4  12
TORSDOF 3
ENDMDL
MODEL 2
REMARK VINA RESULT:    -8.196      1.681      2.164
REMARK INTER + INTRA:         -10.080
REMARK INTER:                  -9.569
REMARK INTRA:                  -0.510
REMARK UNBOUND:                -0.446
REMARK  Name = 
REMARK  3 active torsions:
REMARK  status: ('A' for Active; 'I' for Inactive)
REMARK    1  A    between atoms: C_2  and  C_4
REMARK    2  A    between atoms: C_7  and  C_8
REMARK    3  A    between atoms: C_8  and  N_9
REMARK                            x       y       z     vdW  Elec       q    Type
REMARK                         _______ _______ _______ _____ _____    ______ ____
ROOT
ATOM      1  C   UNL     1      46.448   2.485   7.618  0.00  0.00    +0.000 A 
ATOM      2  C   UNL     1      45.670   1.890   8.610  0.00  0.00    +0.000 A 
ATOM      3  C   UNL     1      44.937   2.698   9.482  0.00  0.00    +0.000 A 
ATOM      4  C   UNL     1      45.004   4.087   9.352  0.00  0.00    +0.000 A 
ATOM      5  N   UNL     1      45.755   4.678   8.386  0.00  0.00    +0.000 NA
ATOM      6  C   UNL     1      46.457   3.870   7.549  0.00  0.00    +0.000 A 
ENDROOT
BRANCH   1   8
ATOM      7  N   UNL     1      48.309   2.391   6.050  0.00  0.00    +0.000 N 
ATOM      8  C   UNL     1      47.299   1.721   6.681  0.00  0.00    +0.000 C 
ATOM      9  O   UNL     1      47.122   0.524   6.493  0.00  0.00    +0.000 OA
ATOM     10  H   UNL     1      48.935   1.827   5.487  0.00  0.00    +0.000 HD
ATOM     11  H   UNL     1      48.638   3.297   6.347  0.00  0.00    +0.000 HD
ENDBRANCH   1   8
BRANCH   4  12
ATOM     12  C   UNL     1      44.285   4.994  10.321  0.00  0.00    +0.000 C 
BRANCH  12  13
ATOM     13  N   UNL     1      44.931   5.028  11.628  0.00  0.00    +0.000 N 
ATOM     14  C   UNL     1      44.460   4.361  12.733  0.00  0.00    +0.000 A 
ATOM     15  C   UNL     1      45.310   4.619  13.783  0.00  0.00    +0.000 A 
ATOM     16  C   UNL     1      46.329   5.488  13.311  0.00  0.00    +0.000 A 
ATOM     17  C   UNL     1      47.461   6.073  13.916  0.00  0.00    +0.000 A 
ATOM     18  C   UNL     1      48.283   6.918  13.164  0.00  0.00    +0.000 A 
ATOM     19  C   UNL     1      47.969   7.194  11.842  0.00  0.00    +0.000 A 
ATOM     20  F   UNL     1      48.764   8.013  11.139  0.00  0.00    +0.000 F 
ATOM     21  C   UNL     1      46.853   6.639  11.216  0.00  0.00    +0.000 A 
ATOM     22  C   UNL     1      46.051   5.765  11.966  0.00  0.00    +0.000 A 
ENDBRANCH  12  13
ENDBRANCH   4  12
TORSDOF 3
ENDMDL
MODEL 3
REMARK VINA RESULT:    -8.152      2.061      2.909
REMARK INTER + INTRA:         -10.028
REMARK INTER:                  -9.640
REMARK INTRA:                  -0.388
REMARK UNBOUND:                -0.446
REMARK  Name = 
REMARK  3 active torsions:
REMARK  status: ('A' for Active; 'I' for Inactive)
REMARK    1  A    between atoms: C_2  and  C_4
REMARK    2  A    between atoms: C_7  and  C_8
REMARK    3  A    between atoms: C_8  and  N_9
REMARK                            x       y       z     vdW  Elec       q    Type
REMARK                         _______ _______ _______ _____ _____    ______ ____
ROOT
ATOM      1  C   UNL     1      46.411   2.481   7.707  0.00  0.00    +0.000 A 
ATOM      2  C   UNL     1      45.652   1.793   8.653  0.00  0.00    +0.000 A 
ATOM      3  C   UNL     1      44.806   2.509   9.502  0.00  0.00    +0.000 A 
ATOM      4  C   UNL     1      44.740   3.900   9.395  0.00  0.00    +0.000 A 
ATOM      5  N   UNL     1      45.471   4.580   8.473  0.00  0.00    +0.000 NA
ATOM      6  C   UNL     1      46.286   3.861   7.658  0.00  0.00    +0.000 A 
ENDROOT
BRANCH   1   8
ATOM      7  N   UNL     1      48.452   2.549   6.379  0.00  0.00    +0.000 N 
ATOM      8  C   UNL     1      47.373   1.821   6.799  0.00  0.00    +0.000 C 
ATOM      9  O   UNL     1      47.225   0.656   6.452  0.00  0.00    +0.000 OA
ATOM     10  H   UNL     1      49.144   2.047   5.835  0.00  0.00    +0.000 HD
ATOM     11  H   UNL     1      48.738   3.410   6.818  0.00  0.00    +0.000 HD
ENDBRANCH   1   8
BRANCH   4  12
ATOM     12  C   UNL     1      43.894   4.714  10.343  0.00  0.00    +0.000 C 
BRANCH  12  13
ATOM     13  N   UNL     1      44.685   5.325  11.404  0.00  0.00    +0.000 N 
ATOM     14  C   UNL     1      45.375   4.611  12.353  0.00  0.00    +0.000 A 
ATOM     15  C   UNL     1      46.001   5.505  13.191  0.00  0.00    +0.000 A 
ATOM     16  C   UNL     1      45.671   6.814  12.750  0.00  0.00    +0.000 A 
ATOM     17  C   UNL     1      46.022   8.104  13.198  0.00  0.00    +0.000 A 
ATOM     18  C   UNL     1      45.505   9.225  12.539  0.00  0.00    +0.000 A 
ATOM     19  C   UNL     1      44.637   9.061  11.470  0.00  0.00    +0.000 A 
ATOM     20  F   UNL     1      44.145  10.147  10.857  0.00  0.00    +0.000 F 
ATOM     21  C   UNL     1      44.264   7.800  11.007  0.00  0.00    +0.000 A 
ATOM     22  C   UNL     1      44.812   6.680  11.651  0.00  0.00    +0.000 A 
ENDBRANCH  12  13
ENDBRANCH   4  12
TORSDOF 3
ENDMDL
MODEL 4
REMARK VINA RESULT:    -6.834      3.606      6.292
REMARK INTER + INTRA:          -8.479
REMARK INTER:                  -8.291
REMARK INTRA:                  -0.187
REMARK UNBOUND:                -0.446
REMARK  Name = 
REMARK  3 active torsions:
REMARK  status: ('A' for Active; 'I' for Inactive)
REMARK    1  A    between atoms: C_2  and  C_4
REMARK    2  A    between atoms: C_7  and  C_8
REMARK    3  A    between atoms: C_8  and  N_9
REMARK                            x       y       z     vdW  Elec       q    Type
REMARK                         _______ _______ _______ _____ _____    ______ ____
ROOT
ATOM      1  C   UNL     1      47.931   7.013  13.730  0.00  0.00    +0.000 A 
ATOM      2  C   UNL     1      47.108   8.108  13.469  0.00  0.00    +0.000 A 
ATOM      3  C   UNL     1      45.914   7.915  12.773  0.00  0.00    +0.000 A 
ATOM      4  C   UNL     1      45.569   6.633  12.341  0.00  0.00    +0.000 A 
ATOM      5  N   UNL     1      46.360   5.558  12.593  0.00  0.00    +0.000 NA
ATOM      6  C   UNL     1      47.517   5.771  13.275  0.00  0.00    +0.000 A 
ENDROOT
BRANCH   1   8
ATOM      7  N   UNL     1      50.307   7.548  13.677  0.00  0.00    +0.000 N 
ATOM      8  C   UNL     1      49.238   7.120  14.414  0.00  0.00    +0.000 C 
ATOM      9  O   UNL     1      49.357   6.859  15.604  0.00  0.00    +0.000 OA
ATOM     10  H   UNL     1      51.168   7.703  14.188  0.00  0.00    +0.000 HD
ATOM     11  H   UNL     1      50.212   7.994  12.778  0.00  0.00    +0.000 HD
ENDBRANCH   1   8
BRANCH   4  12
ATOM     12  C   UNL     1      44.324   6.397  11.521  0.00  0.00    +0.000 C 
BRANCH  12  13
ATOM     13  N   UNL     1      44.138   4.988  11.193  0.00  0.00    +0.000 N 
ATOM     14  C   UNL     1      43.417   4.110  11.964  0.00  0.00    +0.000 A 
ATOM     15  C   UNL     1      43.456   2.875  11.359  0.00  0.00    +0.000 A 
ATOM     16  C   UNL     1      44.243   2.996  10.183  0.00  0.00    +0.000 A 
ATOM     17  C   UNL     1      44.618   2.088   9.171  0.00  0.00    +0.000 A 
ATOM     18  C   UNL     1      45.436   2.525   8.123  0.00  0.00    +0.000 A 
ATOM     19  C   UNL     1      45.888   3.836   8.098  0.00  0.00    +0.000 A 
ATOM     20  F   UNL     1      46.678   4.235   7.090  0.00  0.00    +0.000 F 
ATOM     21  C   UNL     1      45.542   4.757   9.086  0.00  0.00    +0.000 A 
ATOM     22  C   UNL     1      44.695   4.321  10.117  0.00  0.00    +0.000 A 
ENDBRANCH  12  13
ENDBRANCH   4  12
TORSDOF 3
ENDMDL
MODEL 5
REMARK VINA RESULT:    -6.049      5.184      7.535
REMARK INTER + INTRA:          -7.556
REMARK INTER:                  -7.397
REMARK INTRA:                  -0.159
REMARK UNBOUND:                -0.446
REMARK  Name = 
REMARK  3 active torsions:
REMARK  status: ('A' for Active; 'I' for Inactive)
REMARK    1  A    between atoms: C_2  and  C_4
REMARK    2  A    between atoms: C_7  and  C_8
REMARK    3  A    between atoms: C_8  and  N_9
REMARK                            x       y       z     vdW  Elec       q    Type
REMARK                         _______ _______ _______ _____ _____    ______ ____
ROOT
ATOM      1  C   UNL     1      50.545   2.363  17.379  0.00  0.00    +0.000 A 
ATOM      2  C   UNL     1      50.199   3.596  17.930  0.00  0.00    +0.000 A 
ATOM      3  C   UNL     1      49.042   4.241  17.491  0.00  0.00    +0.000 A 
ATOM      4  C   UNL     1      48.255   3.647  16.502  0.00  0.00    +0.000 A 
ATOM      5  N   UNL     1      48.579   2.443  15.962  0.00  0.00    +0.000 NA
ATOM      6  C   UNL     1      49.710   1.834  16.406  0.00  0.00    +0.000 A 
ENDROOT
BRANCH   1   8
ATOM      7  N   UNL     1      51.649   0.305  18.071  0.00  0.00    +0.000 N 
ATOM      8  C   UNL     1      51.774   1.626  17.739  0.00  0.00    +0.000 C 
ATOM      9  O   UNL     1      52.871   2.169  17.718  0.00  0.00    +0.000 OA
ATOM     10  H   UNL     1      52.513  -0.202  18.221  0.00  0.00    +0.000 HD
ATOM     11  H   UNL     1      50.820  -0.235  17.873  0.00  0.00    +0.000 HD
ENDBRANCH   1   8
BRANCH   4  12
ATOM     12  C   UNL     1      47.038   4.347  15.950  0.00  0.00    +0.000 C 
BRANCH  12  13
ATOM     13  N   UNL     1      47.371   5.250  14.855  0.00  0.00    +0.000 N 
ATOM     14  C   UNL     1      48.376   6.185  14.910  0.00  0.00    +0.000 A 
ATOM     15  C   UNL     1      48.404   6.857  13.711  0.00  0.00    +0.000 A 
ATOM     16  C   UNL     1      47.368   6.328  12.895  0.00  0.00    +0.000 A 
ATOM     17  C   UNL     1      46.930   6.605  11.584  0.00  0.00    +0.000 A 
ATOM     18  C   UNL     1      45.843   5.899  11.058  0.00  0.00    +0.000 A 
ATOM     19  C   UNL     1      45.191   4.953  11.834  0.00  0.00    +0.000 A 
ATOM     20  F   UNL     1      44.145   4.292  11.316  0.00  0.00    +0.000 F 
ATOM     21  C   UNL     1      45.593   4.660  13.136  0.00  0.00    +0.000 A 
ATOM     22  C   UNL     1      46.706   5.347  13.646  0.00  0.00    +0.000 A 
ENDBRANCH  12  13
ENDBRANCH   4  12
TORSDOF 3
ENDMDL
MODEL 6
REMARK VINA RESULT:    -5.855      4.711      7.341
REMARK INTER + INTRA:          -7.328
REMARK INTER:                  -6.818
REMARK INTRA:                  -0.511
REMARK UNBOUND:                -0.446
REMARK  Name = 
REMARK  3 active torsions:
REMARK  status: ('A' for Active; 'I' for Inactive)
REMARK    1  A    between atoms: C_2  and  C_4
REMARK    2  A    between atoms: C_7  and  C_8
REMARK    3  A    between atoms: C_8  and  N_9
REMARK                            x       y       z     vdW  Elec       q    Type
REMARK                         _______ _______ _______ _____ _____    ______ ____
ROOT
ATOM      1  C   UNL     1      47.948   4.933  17.573  0.00  0.00    +0.000 A 
ATOM      2  C   UNL     1      47.165   4.012  16.878  0.00  0.00    +0.000 A 
ATOM      3  C   UNL     1      47.097   4.084  15.486  0.00  0.00    +0.000 A 
ATOM      4  C   UNL     1      47.805   5.082  14.814  0.00  0.00    +0.000 A 
ATOM      5  N   UNL     1      48.575   5.982  15.479  0.00  0.00    +0.000 NA
ATOM      6  C   UNL     1      48.627   5.890  16.834  0.00  0.00    +0.000 A 
ENDROOT
BRANCH   1   8
ATOM      7  N   UNL     1      48.435   3.828  19.688  0.00  0.00    +0.000 N 
ATOM      8  C   UNL     1      48.045   4.972  19.048  0.00  0.00    +0.000 C 
ATOM      9  O   UNL     1      47.808   5.996  19.674  0.00  0.00    +0.000 OA
ATOM     10  H   UNL     1      48.585   3.906  20.687  0.00  0.00    +0.000 HD
ATOM     11  H   UNL     1      48.863   3.050  19.212  0.00  0.00    +0.000 HD
ENDBRANCH   1   8
BRANCH   4  12
ATOM     12  C   UNL     1      47.697   5.239  13.316  0.00  0.00    +0.000 C 
BRANCH  12  13
ATOM     13  N   UNL     1      46.464   5.908  12.918  0.00  0.00    +0.000 N 
ATOM     14  C   UNL     1      46.291   7.271  12.938  0.00  0.00    +0.000 A 
ATOM     15  C   UNL     1      45.015   7.546  12.506  0.00  0.00    +0.000 A 
ATOM     16  C   UNL     1      44.377   6.309  12.225  0.00  0.00    +0.000 A 
ATOM     17  C   UNL     1      43.095   5.966  11.747  0.00  0.00    +0.000 A 
ATOM     18  C   UNL     1      42.758   4.617  11.587  0.00  0.00    +0.000 A 
ATOM     19  C   UNL     1      43.675   3.631  11.920  0.00  0.00    +0.000 A 
ATOM     20  F   UNL     1      43.331   2.344  11.767  0.00  0.00    +0.000 F 
ATOM     21  C   UNL     1      44.947   3.935  12.401  0.00  0.00    +0.000 A 
ATOM     22  C   UNL     1      45.290   5.290  12.528  0.00  0.00    +0.000 A 
ENDBRANCH  12  13
ENDBRANCH   4  12
TORSDOF 3
ENDMDL
MODEL 7
REMARK VINA RESULT:    -5.582      3.157      4.526
REMARK INTER + INTRA:          -7.007
REMARK INTER:                  -6.572
REMARK INTRA:                  -0.435
REMARK UNBOUND:                -0.446
REMARK  Name = 
REMARK  3 active torsions:
REMARK  status: ('A' for Active; 'I' for Inactive)
REMARK    1  A    between atoms: C_2  and  C_4
REMARK    2  A    between atoms: C_7  and  C_8
REMARK    3  A    between atoms: C_8  and  N_9
REMARK                            x       y       z     vdW  Elec       q    Type
REMARK                         _______ _______ _______ _____ _____    ______ ____
ROOT
ATOM      1  C   UNL     1      44.523   4.196  11.406  0.00  0.00    +0.000 A 
ATOM      2  C   UNL     1      45.228   5.039  10.548  0.00  0.00    +0.000 A 
ATOM      3  C   UNL     1      45.689   6.268  11.023  0.00  0.00    +0.000 A 
ATOM      4  C   UNL     1      45.429   6.637  12.344  0.00  0.00    +0.000 A 
ATOM      5  N   UNL     1      44.748   5.821  13.191  0.00  0.00    +0.000 NA
ATOM      6  C   UNL     1      44.310   4.630  12.706  0.00  0.00    +0.000 A 
ENDROOT
BRANCH   1   8
ATOM      7  N   UNL     1      44.537   2.259   9.931  0.00  0.00    +0.000 N 
ATOM      8  C   UNL     1      43.949   2.900  10.986  0.00  0.00    +0.000 C 
ATOM      9  O   UNL     1      42.997   2.405  11.573  0.00  0.00    +0.000 OA
ATOM     10  H   UNL     1      44.187   1.331   9.722  0.00  0.00    +0.000 HD
ATOM     11  H   UNL     1      45.449   2.503   9.577  0.00  0.00    +0.000 HD
ENDBRANCH   1   8
BRANCH   4  12
ATOM     12  C   UNL     1      45.847   7.987  12.872  0.00  0.00    +0.000 C 
BRANCH  12  13
ATOM     13  N   UNL     1      47.293   8.171  12.835  0.00  0.00    +0.000 N 
ATOM     14  C   UNL     1      47.960   8.796  11.809  0.00  0.00    +0.000 A 
ATOM     15  C   UNL     1      49.304   8.786  12.104  0.00  0.00    +0.000 A 
ATOM     16  C   UNL     1      49.470   8.118  13.346  0.00  0.00    +0.000 A 
ATOM     17  C   UNL     1      50.594   7.821  14.144  0.00  0.00    +0.000 A 
ATOM     18  C   UNL     1      50.421   7.117  15.340  0.00  0.00    +0.000 A 
ATOM     19  C   UNL     1      49.155   6.699  15.722  0.00  0.00    +0.000 A 
ATOM     20  F   UNL     1      49.010   6.018  16.868  0.00  0.00    +0.000 F 
ATOM     21  C   UNL     1      48.024   6.970  14.953  0.00  0.00    +0.000 A 
ATOM     22  C   UNL     1      48.199   7.705  13.770  0.00  0.00    +0.000 A 
ENDBRANCH  12  13
ENDBRANCH   4  12
TORSDOF 3
ENDMDL
MODEL 8
REMARK VINA RESULT:    -5.473      4.180      5.848
REMARK INTER + INTRA:          -6.879
REMARK INTER:                  -6.432
REMARK INTRA:                  -0.447
REMARK UNBOUND:                -0.446
REMARK  Name = 
REMARK  3 active torsions:
REMARK  status: ('A' for Active; 'I' for Inactive)
REMARK    1  A    between atoms: C_2  and  C_4
REMARK    2  A    between atoms: C_7  and  C_8
REMARK    3  A    between atoms: C_8  and  N_9
REMARK                            x       y       z     vdW  Elec       q    Type
REMARK                         _______ _______ _______ _____ _____    ______ ____
ROOT
ATOM      1  C   UNL     1      44.545   5.900  12.338  0.00  0.00    +0.000 A 
ATOM      2  C   UNL     1      45.171   4.804  12.931  0.00  0.00    +0.000 A 
ATOM      3  C   UNL     1      46.454   4.953  13.460  0.00  0.00    +0.000 A 
ATOM      4  C   UNL     1      47.092   6.192  13.378  0.00  0.00    +0.000 A 
ATOM      5  N   UNL     1      46.491   7.268  12.806  0.00  0.00    +0.000 NA
ATOM      6  C   UNL     1      45.241   7.098  12.300  0.00  0.00    +0.000 A 
ENDROOT
BRANCH   1   8
ATOM      7  N   UNL     1      42.702   6.983  11.170  0.00  0.00    +0.000 N 
ATOM      8  C   UNL     1      43.211   5.832  11.705  0.00  0.00    +0.000 C 
ATOM      9  O   UNL     1      42.591   4.779  11.639  0.00  0.00    +0.000 OA
ATOM     10  H   UNL     1      41.832   6.892  10.660  0.00  0.00    +0.000 HD
ATOM     11  H   UNL     1      43.264   7.800  10.990  0.00  0.00    +0.000 HD
ENDBRANCH   1   8
BRANCH   4  12
ATOM     12  C   UNL     1      48.507   6.373  13.871  0.00  0.00    +0.000 C 
BRANCH  12  13
ATOM     13  N   UNL     1      48.555   6.813  15.260  0.00  0.00    +0.000 N 
ATOM     14  C   UNL     1      48.778   8.113  15.646  0.00  0.00    +0.000 A 
ATOM     15  C   UNL     1      48.760   8.161  17.020  0.00  0.00    +0.000 A 
ATOM     16  C   UNL     1      48.535   6.843  17.496  0.00  0.00    +0.000 A 
ATOM     17  C   UNL     1      48.407   6.287  18.786  0.00  0.00    +0.000 A 
ATOM     18  C   UNL     1      48.198   4.910  18.924  0.00  0.00    +0.000 A 
ATOM     19  C   UNL     1      48.142   4.102  17.799  0.00  0.00    +0.000 A 
ATOM     20  F   UNL     1      47.949   2.784  17.951  0.00  0.00    +0.000 F 
ATOM     21  C   UNL     1      48.273   4.617  16.511  0.00  0.00    +0.000 A 
ATOM     22  C   UNL     1      48.449   6.004  16.377  0.00  0.00    +0.000 A 
ENDBRANCH  12  13
ENDBRANCH   4  12
TORSDOF 3
ENDMDL
MODEL 9
REMARK VINA RESULT:    -5.281      3.371      4.719
REMARK INTER + INTRA:          -6.653
REMARK INTER:                  -6.355
REMARK INTRA:                  -0.298
REMARK UNBOUND:                -0.446
REMARK  Name = 
REMARK  3 active torsions:
REMARK  status: ('A' for Active; 'I' for Inactive)
REMARK    1  A    between atoms: C_2  and  C_4
REMARK    2  A    between atoms: C_7  and  C_8
REMARK    3  A    between atoms: C_8  and  N_9
REMARK                            x       y       z     vdW  Elec       q    Type
REMARK                         _______ _______ _______ _____ _____    ______ ____
ROOT
ATOM      1  C   UNL     1      45.137   4.058  10.487  0.00  0.00    +0.000 A 
ATOM      2  C   UNL     1      45.578   5.284   9.992  0.00  0.00    +0.000 A 
ATOM      3  C   UNL     1      46.011   6.266  10.885  0.00  0.00    +0.000 A 
ATOM      4  C   UNL     1      45.987   6.007  12.257  0.00  0.00    +0.000 A 
ATOM      5  N   UNL     1      45.564   4.814  12.750  0.00  0.00    +0.000 NA
ATOM      6  C   UNL     1      45.149   3.873  11.861  0.00  0.00    +0.000 A 
ENDROOT
BRANCH   1   8
ATOM      7  N   UNL     1      45.120   2.864   8.364  0.00  0.00    +0.000 N 
ATOM      8  C   UNL     1      44.612   2.974   9.629  0.00  0.00    +0.000 C 
ATOM      9  O   UNL     1      43.769   2.188  10.040  0.00  0.00    +0.000 OA
ATOM     10  H   UNL     1      44.815   2.059   7.829  0.00  0.00    +0.000 HD
ATOM     11  H   UNL     1      45.967   3.325   8.069  0.00  0.00    +0.000 HD
ENDBRANCH   1   8
BRANCH   4  12
ATOM     12  C   UNL     1      46.376   7.069  13.256  0.00  0.00    +0.000 C 
BRANCH  12  13
ATOM     13  N   UNL     1      46.387   8.403  12.669  0.00  0.00    +0.000 N 
ATOM     14  C   UNL     1      45.267   9.185  12.522  0.00  0.00    +0.000 A 
ATOM     15  C   UNL     1      45.645  10.368  11.931  0.00  0.00    +0.000 A 
ATOM     16  C   UNL     1      47.043  10.305  11.693  0.00  0.00    +0.000 A 
ATOM     17  C   UNL     1      47.973  11.207  11.136  0.00  0.00    +0.000 A 
ATOM     18  C   UNL     1      49.316  10.830  11.024  0.00  0.00    +0.000 A 
ATOM     19  C   UNL     1      49.718   9.569  11.438  0.00  0.00    +0.000 A 
ATOM     20  F   UNL     1      51.007   9.222  11.316  0.00  0.00    +0.000 F 
ATOM     21  C   UNL     1      48.823   8.651  11.986  0.00  0.00    +0.000 A 
ATOM     22  C   UNL     1      47.484   9.048  12.127  0.00  0.00    +0.000 A 
ENDBRANCH  12  13
ENDBRANCH   4  12
TORSDOF 3
ENDMDL
