MODEL 1
REMARK VINA RESULT:    -9.398      0.000      0.000
REMARK INTER + INTRA:         -12.950
REMARK INTER:                 -12.145
REMARK INTRA:                  -0.805
REMARK UNBOUND:                -0.805
REMARK  Name = 
REMARK  5 active torsions:
REMARK  status: ('A' for Active; 'I' for Inactive)
REMARK    1  A    between atoms: C_2  and  C_4
REMARK    2  A    between atoms: N_8  and  C_9
REMARK    3  A    between atoms: C_9  and  C_10
REMARK    4  A    between atoms: C_10  and  C_13
REMARK    5  A    between atoms: C_17  and  N_18
REMARK                            x       y       z     vdW  Elec       q    Type
REMARK                         _______ _______ _______ _____ _____    ______ ____
ROOT
ATOM      1  C   UNL     1      43.133   5.648  12.030  0.00  0.00    +0.000 C 
ATOM      2  F   UNL     1      42.277   6.521  11.418  0.00  0.00    +0.000 F 
ATOM      3  F   UNL     1      42.512   5.291  13.194  0.00  0.00    +0.000 F 
ENDROOT
BRANCH   1   4
ATOM      4  C   UNL     1      44.496   6.259  12.284  0.00  0.00    +0.000 A 
ATOM      5  C   UNL     1      44.847   7.477  11.693  0.00  0.00    +0.000 A 
ATOM      6  C   UNL     1      46.071   8.063  11.990  0.00  0.00    +0.000 A 
ATOM      7  C   UNL     1      46.944   7.442  12.889  0.00  0.00    +0.000 A 
ATOM      8  C   UNL     1      46.634   6.224  13.509  0.00  0.00    +0.000 A 
ATOM      9  C   UNL     1      45.401   5.643  13.169  0.00  0.00    +0.000 A 
BRANCH   8  10
ATOM     10  N   UNL     1      47.472   5.647  14.439  0.00  0.00    +0.000 N 
ATOM     11  C   UNL     1      47.313   4.268  14.932  0.00  0.00    +0.000 C 
ATOM     12  C   UNL     1      47.347   4.273  16.468  0.00  0.00    +0.000 C 
ATOM     13  O   UNL     1      48.555   4.876  16.964  0.00  0.00    +0.000 OA
ATOM     14  C   UNL     1      48.663   6.233  16.503  0.00  0.00    +0.000 C 
ATOM     15  C   UNL     1      48.669   6.321  14.965  0.00  0.00    +0.000 C 
ENDBRANCH   8  10
ENDBRANCH   1   4
BRANCH   1  16
ATOM     16  C   UNL     1      43.271   4.391  11.127  0.00  0.00    +0.000 C 
BRANCH  16  21
ATOM     17  C   UNL     1      46.480   2.464   7.648  0.00  0.00    +0.000 A 
ATOM     18  C   UNL     1      45.635   1.802   8.533  0.00  0.00    +0.000 A 
ATOM     19  C   UNL     1      44.713   2.541   9.279  0.00  0.00    +0.000 A 
ATOM     20  C   UNL     1      44.650   3.923   9.131  0.00  0.00    +0.000 A 
ATOM     21  N   UNL     1      43.704   4.707   9.759  0.00  0.00    +0.000 N 
ATOM     22  N   UNL     1      45.479   4.578   8.295  0.00  0.00    +0.000 NA
ATOM     23  C   UNL     1      46.378   3.845   7.582  0.00  0.00    +0.000 A 
ATOM     24  H   UNL     1      43.930   5.685   9.589  0.00  0.00    +0.000 HD
BRANCH  17  26
ATOM     25  N   UNL     1      48.538   2.499   6.368  0.00  0.00    +0.000 N 
ATOM     26  C   UNL     1      47.472   1.768   6.808  0.00  0.00    +0.000 C 
ATOM     27  O   UNL     1      47.366   0.579   6.541  0.00  0.00    +0.000 OA
ATOM     28  H   UNL     1      49.265   1.987   5.877  0.00  0.00    +0.000 HD
ATOM     29  H   UNL     1      48.797   3.388   6.778  0.00  0.00    +0.000 HD
ENDBRANCH  17  26
ENDBRANCH  16  21
ENDBRANCH   1  16
TORSDOF 5
ENDMDL
MODEL 2
REMARK VINA RESULT:    -9.223      1.985      2.907
REMARK INTER + INTRA:         -12.724
REMARK INTER:                 -11.814
REMARK INTRA:                  -0.910
REMARK UNBOUND:                -0.805
REMARK  Name = 
REMARK  5 active torsions:
REMARK  status: ('A' for Active; 'I' for Inactive)
REMARK    1  A    between atoms: C_2  and  C_4
REMARK    2  A    between atoms: N_8  and  C_9
REMARK    3  A    between atoms: C_9  and  C_10
REMARK    4  A    between atoms: C_10  and  C_13
REMARK    5  A    between atoms: C_17  and  N_18
REMARK                            x       y       z     vdW  Elec       q    Type
REMARK                         _______ _______ _______ _____ _____    ______ ____
ROOT
ATOM      1  C   UNL     1      43.448   5.593  12.187  0.00  0.00    +0.000 C 
ATOM      2  F   UNL     1      43.000   6.733  11.577  0.00  0.00    +0.000 F 
ATOM      3  F   UNL     1      42.616   5.406  13.255  0.00  0.00    +0.000 F 
ENDROOT
BRANCH   1   4
ATOM      4  C   UNL     1      44.897   5.699  12.615  0.00  0.00    +0.000 A 
ATOM      5  C   UNL     1      45.512   4.647  13.302  0.00  0.00    +0.000 A 
ATOM      6  C   UNL     1      46.860   4.726  13.625  0.00  0.00    +0.000 A 
ATOM      7  C   UNL     1      47.605   5.849  13.252  0.00  0.00    +0.000 A 
ATOM      8  C   UNL     1      47.034   6.926  12.559  0.00  0.00    +0.000 A 
ATOM      9  C   UNL     1      45.663   6.828  12.269  0.00  0.00    +0.000 A 
BRANCH   8  10
ATOM     10  N   UNL     1      47.786   8.002  12.142  0.00  0.00    +0.000 N 
ATOM     11  C   UNL     1      49.142   7.879  11.580  0.00  0.00    +0.000 C 
ATOM     12  C   UNL     1      50.082   8.855  12.305  0.00  0.00    +0.000 C 
ATOM     13  O   UNL     1      49.597  10.207  12.226  0.00  0.00    +0.000 OA
ATOM     14  C   UNL     1      48.291  10.307  12.818  0.00  0.00    +0.000 C 
ATOM     15  C   UNL     1      47.272   9.381  12.129  0.00  0.00    +0.000 C 
ENDBRANCH   8  10
ENDBRANCH   1   4
BRANCH   1  16
ATOM     16  C   UNL     1      43.270   4.411  11.194  0.00  0.00    +0.000 C 
BRANCH  16  21
ATOM     17  C   UNL     1      46.473   2.516   7.694  0.00  0.00    +0.000 A 
ATOM     18  C   UNL     1      45.636   1.845   8.580  0.00  0.00    +0.000 A 
ATOM     19  C   UNL     1      44.712   2.576   9.332  0.00  0.00    +0.000 A 
ATOM     20  C   UNL     1      44.642   3.959   9.191  0.00  0.00    +0.000 A 
ATOM     21  N   UNL     1      43.695   4.735   9.826  0.00  0.00    +0.000 N 
ATOM     22  N   UNL     1      45.465   4.622   8.354  0.00  0.00    +0.000 NA
ATOM     23  C   UNL     1      46.364   3.896   7.634  0.00  0.00    +0.000 A 
ATOM     24  H   UNL     1      43.916   5.715   9.660  0.00  0.00    +0.000 HD
BRANCH  17  26
ATOM     25  N   UNL     1      48.532   2.563   6.416  0.00  0.00    +0.000 N 
ATOM     26  C   UNL     1      47.466   1.828   6.847  0.00  0.00    +0.000 C 
ATOM     27  O   UNL     1      47.358   0.643   6.566  0.00  0.00    +0.000 OA
ATOM     28  H   UNL     1      49.260   2.056   5.920  0.00  0.00    +0.000 HD
ATOM     29  H   UNL     1      48.793   3.447   6.837  0.00  0.00    +0.000 HD
ENDBRANCH  17  26
ENDBRANCH  16  21
ENDBRANCH   1  16
TORSDOF 5
ENDMDL
MODEL 3
REMARK VINA RESULT:    -8.358      2.086      2.625
REMARK INTER + INTRA:         -11.607
REMARK INTER:                 -11.022
REMARK INTRA:                  -0.584
REMARK UNBOUND:                -0.805
REMARK  Name = 
REMARK  5 active torsions:
REMARK  status: ('A' for Active; 'I' for Inactive)
REMARK    1  A    between atoms: C_2  and  C_4
REMARK    2  A    between atoms: N_8  and  C_9
REMARK    3  A    between atoms: C_9  and  C_10
REMARK    4  A    between atoms: C_10  and  C_13
REMARK    5  A    between atoms: C_17  and  N_18
REMARK                            x       y       z     vdW  Elec       q    Type
REMARK                         _______ _______ _______ _____ _____    ______ ____
ROOT
ATOM      1  C   UNL     1      44.444   4.977  12.186  0.00  0.00    +0.000 C 
ATOM      2  F   UNL     1      43.878   4.784  13.416  0.00  0.00    +0.000 F 
ATOM      3  F   UNL     1      45.466   4.073  12.114  0.00  0.00    +0.000 F 
ENDROOT
BRANCH   1   4
ATOM      4  C   UNL     1      44.935   6.398  11.995  0.00  0.00    +0.000 A 
ATOM      5  C   UNL     1      44.053   7.403  11.585  0.00  0.00    +0.000 A 
ATOM      6  C   UNL     1      44.498   8.715  11.482  0.00  0.00    +0.000 A 
ATOM      7  C   UNL     1      45.822   9.032  11.802  0.00  0.00    +0.000 A 
ATOM      8  C   UNL     1      46.742   8.060  12.221  0.00  0.00    +0.000 A 
ATOM      9  C   UNL     1      46.269   6.739  12.290  0.00  0.00    +0.000 A 
BRANCH   8  10
ATOM     10  N   UNL     1      48.027   8.387  12.591  0.00  0.00    +0.000 N 
ATOM     11  C   UNL     1      49.006   9.000  11.677  0.00  0.00    +0.000 C 
ATOM     12  C   UNL     1      50.321   8.207  11.736  0.00  0.00    +0.000 C 
ATOM     13  O   UNL     1      50.827   8.132  13.081  0.00  0.00    +0.000 OA
ATOM     14  C   UNL     1      49.871   7.493  13.942  0.00  0.00    +0.000 C 
ATOM     15  C   UNL     1      48.526   8.242  13.968  0.00  0.00    +0.000 C 
ENDBRANCH   8  10
ENDBRANCH   1   4
BRANCH   1  16
ATOM     16  C   UNL     1      43.384   4.629  11.105  0.00  0.00    +0.000 C 
BRANCH  16  21
ATOM     17  C   UNL     1      46.483   2.469   7.664  0.00  0.00    +0.000 A 
ATOM     18  C   UNL     1      45.595   1.870   8.551  0.00  0.00    +0.000 A 
ATOM     19  C   UNL     1      44.716   2.673   9.284  0.00  0.00    +0.000 A 
ATOM     20  C   UNL     1      44.740   4.055   9.122  0.00  0.00    +0.000 A 
ATOM     21  N   UNL     1      43.842   4.903   9.737  0.00  0.00    +0.000 N 
ATOM     22  N   UNL     1      45.613   4.648   8.284  0.00  0.00    +0.000 NA
ATOM     23  C   UNL     1      46.468   3.853   7.583  0.00  0.00    +0.000 A 
ATOM     24  H   UNL     1      44.130   5.864   9.558  0.00  0.00    +0.000 HD
BRANCH  17  26
ATOM     25  N   UNL     1      48.537   2.366   6.381  0.00  0.00    +0.000 N 
ATOM     26  C   UNL     1      47.434   1.704   6.837  0.00  0.00    +0.000 C 
ATOM     27  O   UNL     1      47.263   0.518   6.593  0.00  0.00    +0.000 OA
ATOM     28  H   UNL     1      49.235   1.806   5.900  0.00  0.00    +0.000 HD
ATOM     29  H   UNL     1      48.846   3.248   6.774  0.00  0.00    +0.000 HD
ENDBRANCH  17  26
ENDBRANCH  16  21
ENDBRANCH   1  16
TORSDOF 5
ENDMDL
MODEL 4
REMARK VINA RESULT:    -8.323      1.350      2.119
REMARK INTER + INTRA:         -11.561
REMARK INTER:                 -10.568
REMARK INTRA:                  -0.992
REMARK UNBOUND:                -0.805
REMARK  Name = 
REMARK  5 active torsions:
REMARK  status: ('A' for Active; 'I' for Inactive)
REMARK    1  A    between atoms: C_2  and  C_4
REMARK    2  A    between atoms: N_8  and  C_9
REMARK    3  A    between atoms: C_9  and  C_10
REMARK    4  A    between atoms: C_10  and  C_13
REMARK    5  A    between atoms: C_17  and  N_18
REMARK                            x       y       z     vdW  Elec       q    Type
REMARK                         _______ _______ _______ _____ _____    ______ ____
ROOT
ATOM      1  C   UNL     1      44.521   6.065  11.618  0.00  0.00    +0.000 C 
ATOM      2  F   UNL     1      45.179   6.822  10.688  0.00  0.00    +0.000 F 
ATOM      3  F   UNL     1      43.693   6.936  12.269  0.00  0.00    +0.000 F 
ENDROOT
BRANCH   1   4
ATOM      4  C   UNL     1      45.470   5.372  12.574  0.00  0.00    +0.000 A 
ATOM      5  C   UNL     1      45.476   3.977  12.678  0.00  0.00    +0.000 A 
ATOM      6  C   UNL     1      46.400   3.348  13.503  0.00  0.00    +0.000 A 
ATOM      7  C   UNL     1      47.332   4.108  14.217  0.00  0.00    +0.000 A 
ATOM      8  C   UNL     1      47.368   5.508  14.141  0.00  0.00    +0.000 A 
ATOM      9  C   UNL     1      46.404   6.116  13.319  0.00  0.00    +0.000 A 
BRANCH   8  10
ATOM     10  N   UNL     1      48.325   6.248  14.799  0.00  0.00    +0.000 N 
ATOM     11  C   UNL     1      48.733   5.995  16.192  0.00  0.00    +0.000 C 
ATOM     12  C   UNL     1      48.691   7.314  16.980  0.00  0.00    +0.000 C 
ATOM     13  O   UNL     1      49.513   8.320  16.362  0.00  0.00    +0.000 OA
ATOM     14  C   UNL     1      49.067   8.577  15.020  0.00  0.00    +0.000 C 
ATOM     15  C   UNL     1      49.107   7.309  14.146  0.00  0.00    +0.000 C 
ENDBRANCH   8  10
ENDBRANCH   1   4
BRANCH   1  16
ATOM     16  C   UNL     1      43.658   5.014  10.866  0.00  0.00    +0.000 C 
BRANCH  16  21
ATOM     17  C   UNL     1      46.428   2.199   7.625  0.00  0.00    +0.000 A 
ATOM     18  C   UNL     1      45.695   1.799   8.737  0.00  0.00    +0.000 A 
ATOM     19  C   UNL     1      44.868   2.726   9.378  0.00  0.00    +0.000 A 
ATOM     20  C   UNL     1      44.789   4.031   8.903  0.00  0.00    +0.000 A 
ATOM     21  N   UNL     1      43.925   4.973   9.423  0.00  0.00    +0.000 N 
ATOM     22  N   UNL     1      45.513   4.437   7.841  0.00  0.00    +0.000 NA
ATOM     23  C   UNL     1      46.321   3.524   7.232  0.00  0.00    +0.000 A 
ATOM     24  H   UNL     1      44.131   5.873   8.992  0.00  0.00    +0.000 HD
BRANCH  17  26
ATOM     25  N   UNL     1      48.369   1.850   6.215  0.00  0.00    +0.000 N 
ATOM     26  C   UNL     1      47.313   1.289   6.874  0.00  0.00    +0.000 C 
ATOM     27  O   UNL     1      47.131   0.080   6.865  0.00  0.00    +0.000 OA
ATOM     28  H   UNL     1      49.029   1.207   5.787  0.00  0.00    +0.000 HD
ATOM     29  H   UNL     1      48.703   2.786   6.414  0.00  0.00    +0.000 HD
ENDBRANCH  17  26
ENDBRANCH  16  21
ENDBRANCH   1  16
TORSDOF 5
ENDMDL
MODEL 5
REMARK VINA RESULT:    -8.286      2.522      3.651
REMARK INTER + INTRA:         -11.514
REMARK INTER:                 -10.819
REMARK INTRA:                  -0.695
REMARK UNBOUND:                -0.805
REMARK  Name = 
REMARK  5 active torsions:
REMARK  status: ('A' for Active; 'I' for Inactive)
REMARK    1  A    between atoms: C_2  and  C_4
REMARK    2  A    between atoms: N_8  and  C_9
REMARK    3  A    between atoms: C_9  and  C_10
REMARK    4  A    between atoms: C_10  and  C_13
REMARK    5  A    between atoms: C_17  and  N_18
REMARK                            x       y       z     vdW  Elec       q    Type
REMARK                         _______ _______ _______ _____ _____    ______ ____
ROOT
ATOM      1  C   UNL     1      43.313   4.806  12.579  0.00  0.00    +0.000 C 
ATOM      2  F   UNL     1      42.254   5.655  12.751  0.00  0.00    +0.000 F 
ATOM      3  F   UNL     1      43.112   3.794  13.475  0.00  0.00    +0.000 F 
ENDROOT
BRANCH   1   4
ATOM      4  C   UNL     1      44.645   5.495  12.798  0.00  0.00    +0.000 A 
ATOM      5  C   UNL     1      45.793   4.744  13.070  0.00  0.00    +0.000 A 
ATOM      6  C   UNL     1      47.022   5.380  13.197  0.00  0.00    +0.000 A 
ATOM      7  C   UNL     1      47.112   6.767  13.039  0.00  0.00    +0.000 A 
ATOM      8  C   UNL     1      45.989   7.560  12.761  0.00  0.00    +0.000 A 
ATOM      9  C   UNL     1      44.758   6.891  12.664  0.00  0.00    +0.000 A 
BRANCH   8  10
ATOM     10  N   UNL     1      46.093   8.917  12.548  0.00  0.00    +0.000 N 
ATOM     11  C   UNL     1      44.944   9.778  12.215  0.00  0.00    +0.000 C 
ATOM     12  C   UNL     1      45.290  10.630  10.984  0.00  0.00    +0.000 C 
ATOM     13  O   UNL     1      46.485  11.401  11.198  0.00  0.00    +0.000 OA
ATOM     14  C   UNL     1      47.597  10.534  11.478  0.00  0.00    +0.000 C 
ATOM     15  C   UNL     1      47.349   9.662  12.722  0.00  0.00    +0.000 C 
ENDBRANCH   8  10
ENDBRANCH   1   4
BRANCH   1  16
ATOM     16  C   UNL     1      43.242   4.228  11.138  0.00  0.00    +0.000 C 
BRANCH  16  21
ATOM     17  C   UNL     1      46.497   2.907   7.428  0.00  0.00    +0.000 A 
ATOM     18  C   UNL     1      46.163   4.173   7.901  0.00  0.00    +0.000 A 
ATOM     19  C   UNL     1      45.374   4.286   9.049  0.00  0.00    +0.000 A 
ATOM     20  C   UNL     1      44.931   3.139   9.702  0.00  0.00    +0.000 A 
ATOM     21  N   UNL     1      44.231   3.171  10.890  0.00  0.00    +0.000 N 
ATOM     22  N   UNL     1      45.228   1.909   9.240  0.00  0.00    +0.000 NA
ATOM     23  C   UNL     1      45.991   1.816   8.116  0.00  0.00    +0.000 A 
ATOM     24  H   UNL     1      43.922   2.225  11.108  0.00  0.00    +0.000 HD
BRANCH  17  26
ATOM     25  N   UNL     1      48.565   2.126   6.434  0.00  0.00    +0.000 N 
ATOM     26  C   UNL     1      47.338   2.689   6.236  0.00  0.00    +0.000 C 
ATOM     27  O   UNL     1      46.944   2.969   5.113  0.00  0.00    +0.000 OA
ATOM     28  H   UNL     1      49.093   1.886   5.601  0.00  0.00    +0.000 HD
ATOM     29  H   UNL     1      48.813   1.643   7.290  0.00  0.00    +0.000 HD
ENDBRANCH  17  26
ENDBRANCH  16  21
ENDBRANCH   1  16
TORSDOF 5
ENDMDL
MODEL 6
REMARK VINA RESULT:    -8.098      3.324      4.922
REMARK INTER + INTRA:         -11.271
REMARK INTER:                 -10.752
REMARK INTRA:                  -0.519
REMARK UNBOUND:                -0.805
REMARK  Name = 
REMARK  5 active torsions:
REMARK  status: ('A' for Active; 'I' for Inactive)
REMARK    1  A    between atoms: C_2  and  C_4
REMARK    2  A    between atoms: N_8  and  C_9
REMARK    3  A    between atoms: C_9  and  C_10
REMARK    4  A    between atoms: C_10  and  C_13
REMARK    5  A    between atoms: C_17  and  N_18
REMARK                            x       y       z     vdW  Elec       q    Type
REMARK                         _______ _______ _______ _____ _____    ______ ____
ROOT
ATOM      1  C   UNL     1      45.113   5.577  12.179  0.00  0.00    +0.000 C 
ATOM      2  F   UNL     1      44.742   5.139  13.420  0.00  0.00    +0.000 F 
ATOM      3  F   UNL     1      46.197   4.817  11.839  0.00  0.00    +0.000 F 
ENDROOT
BRANCH   1   4
ATOM      4  C   UNL     1      45.437   7.057  12.163  0.00  0.00    +0.000 A 
ATOM      5  C   UNL     1      46.684   7.514  12.603  0.00  0.00    +0.000 A 
ATOM      6  C   UNL     1      46.996   8.865  12.516  0.00  0.00    +0.000 A 
ATOM      7  C   UNL     1      46.070   9.764  11.977  0.00  0.00    +0.000 A 
ATOM      8  C   UNL     1      44.810   9.352  11.520  0.00  0.00    +0.000 A 
ATOM      9  C   UNL     1      44.514   7.985  11.644  0.00  0.00    +0.000 A 
BRANCH   8  10
ATOM     10  N   UNL     1      43.926  10.232  10.935  0.00  0.00    +0.000 N 
ATOM     11  C   UNL     1      42.613  10.570  11.513  0.00  0.00    +0.000 C 
ATOM     12  C   UNL     1      41.530  10.417  10.433  0.00  0.00    +0.000 C 
ATOM     13  O   UNL     1      41.824  11.223   9.278  0.00  0.00    +0.000 OA
ATOM     14  C   UNL     1      43.089  10.844   8.711  0.00  0.00    +0.000 C 
ATOM     15  C   UNL     1      44.243  10.997   9.719  0.00  0.00    +0.000 C 
ENDBRANCH   8  10
ENDBRANCH   1   4
BRANCH   1  16
ATOM     16  C   UNL     1      43.953   5.274  11.190  0.00  0.00    +0.000 C 
BRANCH  16  21
ATOM     17  C   UNL     1      46.515   2.484   7.761  0.00  0.00    +0.000 A 
ATOM     18  C   UNL     1      45.618   2.072   8.742  0.00  0.00    +0.000 A 
ATOM     19  C   UNL     1      44.900   3.035   9.457  0.00  0.00    +0.000 A 
ATOM     20  C   UNL     1      45.090   4.386   9.185  0.00  0.00    +0.000 A 
ATOM     21  N   UNL     1      44.351   5.387   9.781  0.00  0.00    +0.000 N 
ATOM     22  N   UNL     1      45.973   4.798   8.255  0.00  0.00    +0.000 NA
ATOM     23  C   UNL     1      46.671   3.848   7.572  0.00  0.00    +0.000 A 
ATOM     24  H   UNL     1      44.746   6.286   9.510  0.00  0.00    +0.000 HD
BRANCH  17  26
ATOM     25  N   UNL     1      48.473   2.005   6.415  0.00  0.00    +0.000 N 
ATOM     26  C   UNL     1      47.303   1.542   6.944  0.00  0.00    +0.000 C 
ATOM     27  O   UNL     1      46.943   0.386   6.772  0.00  0.00    +0.000 OA
ATOM     28  H   UNL     1      49.056   1.322   5.941  0.00  0.00    +0.000 HD
ATOM     29  H   UNL     1      48.928   2.847   6.748  0.00  0.00    +0.000 HD
ENDBRANCH  17  26
ENDBRANCH  16  21
ENDBRANCH   1  16
TORSDOF 5
ENDMDL
MODEL 7
REMARK VINA RESULT:    -7.529      2.007      7.691
REMARK INTER + INTRA:         -10.535
REMARK INTER:                  -9.706
REMARK INTRA:                  -0.828
REMARK UNBOUND:                -0.805
REMARK  Name = 
REMARK  5 active torsions:
REMARK  status: ('A' for Active; 'I' for Inactive)
REMARK    1  A    between atoms: C_2  and  C_4
REMARK    2  A    between atoms: N_8  and  C_9
REMARK    3  A    between atoms: C_9  and  C_10
REMARK    4  A    between atoms: C_10  and  C_13
REMARK    5  A    between atoms: C_17  and  N_18
REMARK                            x       y       z     vdW  Elec       q    Type
REMARK                         _______ _______ _______ _____ _____    ______ ____
ROOT
ATOM      1  C   UNL     1      45.727   6.467  11.713  0.00  0.00    +0.000 C 
ATOM      2  F   UNL     1      44.938   7.500  11.287  0.00  0.00    +0.000 F 
ATOM      3  F   UNL     1      46.945   6.682  11.133  0.00  0.00    +0.000 F 
ENDROOT
BRANCH   1   4
ATOM      4  C   UNL     1      45.157   5.114  11.341  0.00  0.00    +0.000 A 
ATOM      5  C   UNL     1      44.162   4.524  12.126  0.00  0.00    +0.000 A 
ATOM      6  C   UNL     1      43.596   3.317  11.735  0.00  0.00    +0.000 A 
ATOM      7  C   UNL     1      44.012   2.700  10.551  0.00  0.00    +0.000 A 
ATOM      8  C   UNL     1      45.003   3.255   9.729  0.00  0.00    +0.000 A 
ATOM      9  C   UNL     1      45.574   4.463  10.164  0.00  0.00    +0.000 A 
BRANCH   8  10
ATOM     10  N   UNL     1      45.366   2.674   8.535  0.00  0.00    +0.000 N 
ATOM     11  C   UNL     1      45.570   1.225   8.363  0.00  0.00    +0.000 C 
ATOM     12  C   UNL     1      46.923   0.981   7.677  0.00  0.00    +0.000 C 
ATOM     13  O   UNL     1      47.007   1.679   6.422  0.00  0.00    +0.000 OA
ATOM     14  C   UNL     1      46.847   3.094   6.623  0.00  0.00    +0.000 C 
ATOM     15  C   UNL     1      45.497   3.434   7.281  0.00  0.00    +0.000 C 
ENDBRANCH   8  10
ENDBRANCH   1   4
BRANCH   1  16
ATOM     16  C   UNL     1      45.877   6.577  13.256  0.00  0.00    +0.000 C 
BRANCH  16  21
ATOM     17  C   UNL     1      48.495   4.096  16.875  0.00  0.00    +0.000 A 
ATOM     18  C   UNL     1      47.439   3.650  16.086  0.00  0.00    +0.000 A 
ATOM     19  C   UNL     1      46.989   4.450  15.033  0.00  0.00    +0.000 A 
ATOM     20  C   UNL     1      47.595   5.679  14.787  0.00  0.00    +0.000 A 
ATOM     21  N   UNL     1      47.270   6.478  13.710  0.00  0.00    +0.000 N 
ATOM     22  N   UNL     1      48.602   6.132  15.559  0.00  0.00    +0.000 NA
ATOM     23  C   UNL     1      49.024   5.344  16.586  0.00  0.00    +0.000 A 
ATOM     24  H   UNL     1      47.760   7.366  13.808  0.00  0.00    +0.000 HD
BRANCH  17  26
ATOM     25  N   UNL     1      48.272   3.184  19.110  0.00  0.00    +0.000 N 
ATOM     26  C   UNL     1      49.049   3.314  17.996  0.00  0.00    +0.000 C 
ATOM     27  O   UNL     1      50.145   2.776  17.923  0.00  0.00    +0.000 OA
ATOM     28  H   UNL     1      48.618   2.562  19.834  0.00  0.00    +0.000 HD
ATOM     29  H   UNL     1      47.277   3.379  19.108  0.00  0.00    +0.000 HD
ENDBRANCH  17  26
ENDBRANCH  16  21
ENDBRANCH   1  16
TORSDOF 5
ENDMDL
MODEL 8
REMARK VINA RESULT:    -7.025      3.410      7.466
REMARK INTER + INTRA:          -9.884
REMARK INTER:                  -8.841
REMARK INTRA:                  -1.043
REMARK UNBOUND:                -0.805
REMARK  Name = 
REMARK  5 active torsions:
REMARK  status: ('A' for Active; 'I' for Inactive)
REMARK    1  A    between atoms: C_2  and  C_4
REMARK    2  A    between atoms: N_8  and  C_9
REMARK    3  A    between atoms: C_9  and  C_10
REMARK    4  A    between atoms: C_10  and  C_13
REMARK    5  A    between atoms: C_17  and  N_18
REMARK                            x       y       z     vdW  Elec       q    Type
REMARK                         _______ _______ _______ _____ _____    ______ ____
ROOT
ATOM      1  C   UNL     1      48.819   8.021  12.411  0.00  0.00    +0.000 C 
ATOM      2  F   UNL     1      49.549   8.877  11.633  0.00  0.00    +0.000 F 
ATOM      3  F   UNL     1      49.303   6.775  12.126  0.00  0.00    +0.000 F 
ENDROOT
BRANCH   1   4
ATOM      4  C   UNL     1      47.332   8.122  12.141  0.00  0.00    +0.000 A 
ATOM      5  C   UNL     1      46.683   9.359  12.204  0.00  0.00    +0.000 A 
ATOM      6  C   UNL     1      45.334   9.451  11.884  0.00  0.00    +0.000 A 
ATOM      7  C   UNL     1      44.631   8.310  11.486  0.00  0.00    +0.000 A 
ATOM      8  C   UNL     1      45.239   7.049  11.404  0.00  0.00    +0.000 A 
ATOM      9  C   UNL     1      46.597   6.984  11.759  0.00  0.00    +0.000 A 
BRANCH   8  10
ATOM     10  N   UNL     1      44.556   5.940  10.955  0.00  0.00    +0.000 N 
ATOM     11  C   UNL     1      43.109   5.742  11.148  0.00  0.00    +0.000 C 
ATOM     12  C   UNL     1      42.863   4.344  11.737  0.00  0.00    +0.000 C 
ATOM     13  O   UNL     1      43.431   3.317  10.905  0.00  0.00    +0.000 OA
ATOM     14  C   UNL     1      44.849   3.511  10.768  0.00  0.00    +0.000 C 
ATOM     15  C   UNL     1      45.188   4.881  10.153  0.00  0.00    +0.000 C 
ENDBRANCH   8  10
ENDBRANCH   1   4
BRANCH   1  16
ATOM     16  C   UNL     1      49.115   8.350  13.901  0.00  0.00    +0.000 C 
BRANCH  16  21
ATOM     17  C   UNL     1      48.115   4.378  16.955  0.00  0.00    +0.000 A 
ATOM     18  C   UNL     1      47.406   4.844  15.853  0.00  0.00    +0.000 A 
ATOM     19  C   UNL     1      47.964   5.849  15.058  0.00  0.00    +0.000 A 
ATOM     20  C   UNL     1      49.215   6.371  15.376  0.00  0.00    +0.000 A 
ATOM     21  N   UNL     1      49.870   7.293  14.587  0.00  0.00    +0.000 N 
ATOM     22  N   UNL     1      49.900   5.944  16.455  0.00  0.00    +0.000 NA
ATOM     23  C   UNL     1      49.339   4.970  17.224  0.00  0.00    +0.000 A 
ATOM     24  H   UNL     1      50.705   7.605  15.080  0.00  0.00    +0.000 HD
BRANCH  17  26
ATOM     25  N   UNL     1      48.278   3.116  19.019  0.00  0.00    +0.000 N 
ATOM     26  C   UNL     1      47.616   3.310  17.841  0.00  0.00    +0.000 C 
ATOM     27  O   UNL     1      46.631   2.644  17.552  0.00  0.00    +0.000 OA
ATOM     28  H   UNL     1      47.866   2.450  19.666  0.00  0.00    +0.000 HD
ATOM     29  H   UNL     1      48.912   3.804  19.409  0.00  0.00    +0.000 HD
ENDBRANCH  17  26
ENDBRANCH  16  21
ENDBRANCH   1  16
TORSDOF 5
ENDMDL
MODEL 9
REMARK VINA RESULT:    -6.881      4.870      7.210
REMARK INTER + INTRA:          -9.698
REMARK INTER:                  -9.129
REMARK INTRA:                  -0.569
REMARK UNBOUND:                -0.805
REMARK  Name = 
REMARK  5 active torsions:
REMARK  status: ('A' for Active; 'I' for Inactive)
REMARK    1  A    between atoms: C_2  and  C_4
REMARK    2  A    between atoms: N_8  and  C_9
REMARK    3  A    between atoms: C_9  and  C_10
REMARK    4  A    between atoms: C_10  and  C_13
REMARK    5  A    between atoms: C_17  and  N_18
REMARK                            x       y       z     vdW  Elec       q    Type
REMARK                         _______ _______ _______ _____ _____    ______ ____
ROOT
ATOM      1  C   UNL     1      48.254   2.880  16.827  0.00  0.00    +0.000 C 
ATOM      2  F   UNL     1      47.465   2.666  17.923  0.00  0.00    +0.000 F 
ATOM      3  F   UNL     1      48.331   1.670  16.196  0.00  0.00    +0.000 F 
ENDROOT
BRANCH   1   4
ATOM      4  C   UNL     1      49.625   3.409  17.199  0.00  0.00    +0.000 A 
ATOM      5  C   UNL     1      49.825   4.778  17.402  0.00  0.00    +0.000 A 
ATOM      6  C   UNL     1      51.068   5.242  17.813  0.00  0.00    +0.000 A 
ATOM      7  C   UNL     1      52.113   4.341  18.035  0.00  0.00    +0.000 A 
ATOM      8  C   UNL     1      51.960   2.959  17.848  0.00  0.00    +0.000 A 
ATOM      9  C   UNL     1      50.699   2.523  17.408  0.00  0.00    +0.000 A 
BRANCH   8  10
ATOM     10  N   UNL     1      52.975   2.071  18.125  0.00  0.00    +0.000 N 
ATOM     11  C   UNL     1      54.161   2.415  18.928  0.00  0.00    +0.000 C 
ATOM     12  C   UNL     1      55.428   1.990  18.169  0.00  0.00    +0.000 C 
ATOM     13  O   UNL     1      55.398   0.589  17.843  0.00  0.00    +0.000 OA
ATOM     14  C   UNL     1      54.254   0.288  17.026  0.00  0.00    +0.000 C 
ATOM     15  C   UNL     1      52.932   0.656  17.725  0.00  0.00    +0.000 C 
ENDBRANCH   8  10
ENDBRANCH   1   4
BRANCH   1  16
ATOM     16  C   UNL     1      47.527   3.890  15.897  0.00  0.00    +0.000 C 
BRANCH  16  21
ATOM     17  C   UNL     1      44.521   4.948  11.903  0.00  0.00    +0.000 A 
ATOM     18  C   UNL     1      45.162   5.817  12.780  0.00  0.00    +0.000 A 
ATOM     19  C   UNL     1      46.081   5.303  13.700  0.00  0.00    +0.000 A 
ATOM     20  C   UNL     1      46.342   3.936  13.730  0.00  0.00    +0.000 A 
ATOM     21  N   UNL     1      47.303   3.369  14.542  0.00  0.00    +0.000 N 
ATOM     22  N   UNL     1      45.709   3.082  12.902  0.00  0.00    +0.000 NA
ATOM     23  C   UNL     1      44.811   3.597  12.017  0.00  0.00    +0.000 A 
ATOM     24  H   UNL     1      47.228   2.356  14.471  0.00  0.00    +0.000 HD
BRANCH  17  26
ATOM     25  N   UNL     1      42.873   6.555  11.144  0.00  0.00    +0.000 N 
ATOM     26  C   UNL     1      43.551   5.398  10.888  0.00  0.00    +0.000 C 
ATOM     27  O   UNL     1      43.381   4.783   9.845  0.00  0.00    +0.000 OA
ATOM     28  H   UNL     1      42.284   6.910  10.396  0.00  0.00    +0.000 HD
ATOM     29  H   UNL     1      43.172   7.219  11.848  0.00  0.00    +0.000 HD
ENDBRANCH  17  26
ENDBRANCH  16  21
ENDBRANCH   1  16
TORSDOF 5
ENDMDL
