MODEL 1
REMARK VINA RESULT:    -8.151      0.000      0.000
REMARK INTER + INTRA:         -11.705
REMARK INTER:                 -11.010
REMARK INTRA:                  -0.695
REMARK UNBOUND:                -0.695
REMARK  Name = 
REMARK  7 active torsions:
REMARK  status: ('A' for Active; 'I' for Inactive)
REMARK    1  A    between atoms: N_1  and  C_2
REMARK    2  A    between atoms: C_2  and  C_3
REMARK    3  A    between atoms: C_3  and  C_4
REMARK    4  A    between atoms: C_7  and  C_8
REMARK    5  A    between atoms: C_8  and  N_9
REMARK    6  A    between atoms: C_14  and  C_15
REMARK    7  A    between atoms: C_15  and  O_17
REMARK                            x       y       z     vdW  Elec       q    Type
REMARK                         _______ _______ _______ _____ _____    ______ ____
ROOT
ATOM      1  C   UNL     1      43.737   4.755  10.343  0.00  0.00    +0.000 C 
ENDROOT
BRANCH   1   2
ATOM      2  N   UNL     1      44.277   4.879  11.686  0.00  0.00    +0.000 N 
ATOM      3  C   UNL     1      43.837   4.166  12.771  0.00  0.00    +0.000 A 
ATOM      4  N   UNL     1      44.648   4.286  13.796  0.00  0.00    +0.000 NA
ATOM      5  C   UNL     1      45.661   5.101  13.361  0.00  0.00    +0.000 A 
ATOM      6  C   UNL     1      46.830   5.497  14.028  0.00  0.00    +0.000 A 
ATOM      7  C   UNL     1      47.743   6.325  13.357  0.00  0.00    +0.000 A 
ATOM      8  C   UNL     1      47.481   6.764  12.051  0.00  0.00    +0.000 A 
ATOM      9  C   UNL     1      46.312   6.383  11.377  0.00  0.00    +0.000 A 
ATOM     10  C   UNL     1      45.434   5.527  12.055  0.00  0.00    +0.000 A 
BRANCH   7  11
ATOM     11  C   UNL     1      49.021   6.636  14.050  0.00  0.00    +0.000 C 
ATOM     12  O   UNL     1      49.171   6.500  15.251  0.00  0.00    +0.000 OA
BRANCH  11  13
ATOM     13  O   UNL     1      49.996   7.098  13.237  0.00  0.00    +0.000 OA
ATOM     14  H   UNL     1      50.469   7.883  13.562  0.00  0.00    +0.000 HD
ENDBRANCH  11  13
ENDBRANCH   7  11
ENDBRANCH   1   2
BRANCH   1  18
ATOM     15  C   UNL     1      46.198   2.287   7.783  0.00  0.00    +0.000 A 
ATOM     16  C   UNL     1      46.205   3.682   7.645  0.00  0.00    +0.000 A 
ATOM     17  C   UNL     1      45.414   4.484   8.474  0.00  0.00    +0.000 A 
ATOM     18  C   UNL     1      44.590   3.906   9.448  0.00  0.00    +0.000 A 
ATOM     19  C   UNL     1      44.573   2.514   9.560  0.00  0.00    +0.000 A 
ATOM     20  F   UNL     1      43.760   1.926  10.450  0.00  0.00    +0.000 F 
ATOM     21  C   UNL     1      45.365   1.708   8.745  0.00  0.00    +0.000 A 
BRANCH  15  22
ATOM     22  C   UNL     1      47.046   1.420   6.884  0.00  0.00    +0.000 C 
BRANCH  22  23
ATOM     23  C   UNL     1      48.316   2.148   6.437  0.00  0.00    +0.000 C 
BRANCH  23  24
ATOM     24  N   UNL     1      48.270   2.469   5.012  0.00  0.00    +0.000 NA
ATOM     25  H   UNL     1      47.534   3.155   4.847  0.00  0.00    +0.000 HD
ATOM     26  H   UNL     1      48.007   1.640   4.479  0.00  0.00    +0.000 HD
ENDBRANCH  23  24
ENDBRANCH  22  23
ENDBRANCH  15  22
ENDBRANCH   1  18
TORSDOF 7
ENDMDL
MODEL 2
REMARK VINA RESULT:    -7.734      1.482      2.145
REMARK INTER + INTRA:         -11.142
REMARK INTER:                 -10.514
REMARK INTRA:                  -0.628
REMARK UNBOUND:                -0.695
REMARK  Name = 
REMARK  7 active torsions:
REMARK  status: ('A' for Active; 'I' for Inactive)
REMARK    1  A    between atoms: N_1  and  C_2
REMARK    2  A    between atoms: C_2  and  C_3
REMARK    3  A    between atoms: C_3  and  C_4
REMARK    4  A    between atoms: C_7  and  C_8
REMARK    5  A    between atoms: C_8  and  N_9
REMARK    6  A    between atoms: C_14  and  C_15
REMARK    7  A    between atoms: C_15  and  O_17
REMARK                            x       y       z     vdW  Elec       q    Type
REMARK                         _______ _______ _______ _____ _____    ______ ____
ROOT
ATOM      1  C   UNL     1      44.034   4.962  10.485  0.00  0.00    +0.000 C 
ENDROOT
BRANCH   1   2
ATOM      2  N   UNL     1      44.908   5.620  11.442  0.00  0.00    +0.000 N 
ATOM      3  C   UNL     1      44.933   6.971  11.672  0.00  0.00    +0.000 A 
ATOM      4  N   UNL     1      45.625   7.271  12.745  0.00  0.00    +0.000 NA
ATOM      5  C   UNL     1      46.061   6.069  13.241  0.00  0.00    +0.000 A 
ATOM      6  C   UNL     1      46.781   5.802  14.415  0.00  0.00    +0.000 A 
ATOM      7  C   UNL     1      47.091   4.470  14.728  0.00  0.00    +0.000 A 
ATOM      8  C   UNL     1      46.706   3.427  13.874  0.00  0.00    +0.000 A 
ATOM      9  C   UNL     1      45.994   3.682  12.692  0.00  0.00    +0.000 A 
ATOM     10  C   UNL     1      45.665   5.016  12.420  0.00  0.00    +0.000 A 
BRANCH   7  11
ATOM     11  C   UNL     1      47.757   4.211  16.032  0.00  0.00    +0.000 C 
ATOM     12  O   UNL     1      48.792   4.761  16.365  0.00  0.00    +0.000 OA
BRANCH  11  13
ATOM     13  O   UNL     1      47.128   3.303  16.808  0.00  0.00    +0.000 OA
ATOM     14  H   UNL     1      46.713   3.661  17.612  0.00  0.00    +0.000 HD
ENDBRANCH  11  13
ENDBRANCH   7  11
ENDBRANCH   1   2
BRANCH   1  18
ATOM     15  C   UNL     1      46.163   2.290   7.833  0.00  0.00    +0.000 A 
ATOM     16  C   UNL     1      46.317   3.678   7.717  0.00  0.00    +0.000 A 
ATOM     17  C   UNL     1      45.634   4.545   8.575  0.00  0.00    +0.000 A 
ATOM     18  C   UNL     1      44.773   4.042   9.558  0.00  0.00    +0.000 A 
ATOM     19  C   UNL     1      44.608   2.658   9.649  0.00  0.00    +0.000 A 
ATOM     20  F   UNL     1      43.755   2.145  10.548  0.00  0.00    +0.000 F 
ATOM     21  C   UNL     1      45.292   1.787   8.805  0.00  0.00    +0.000 A 
BRANCH  15  22
ATOM     22  C   UNL     1      46.894   1.353   6.903  0.00  0.00    +0.000 C 
BRANCH  22  23
ATOM     23  C   UNL     1      48.277   1.896   6.531  0.00  0.00    +0.000 C 
BRANCH  23  24
ATOM     24  N   UNL     1      48.361   2.201   5.105  0.00  0.00    +0.000 NA
ATOM     25  H   UNL     1      49.341   2.243   4.828  0.00  0.00    +0.000 HD
ATOM     26  H   UNL     1      47.978   3.129   4.927  0.00  0.00    +0.000 HD
ENDBRANCH  23  24
ENDBRANCH  22  23
ENDBRANCH  15  22
ENDBRANCH   1  18
TORSDOF 7
ENDMDL
MODEL 3
REMARK VINA RESULT:    -7.398      1.680      1.820
REMARK INTER + INTRA:         -10.688
REMARK INTER:                 -10.041
REMARK INTRA:                  -0.647
REMARK UNBOUND:                -0.695
REMARK  Name = 
REMARK  7 active torsions:
REMARK  status: ('A' for Active; 'I' for Inactive)
REMARK    1  A    between atoms: N_1  and  C_2
REMARK    2  A    between atoms: C_2  and  C_3
REMARK    3  A    between atoms: C_3  and  C_4
REMARK    4  A    between atoms: C_7  and  C_8
REMARK    5  A    between atoms: C_8  and  N_9
REMARK    6  A    between atoms: C_14  and  C_15
REMARK    7  A    between atoms: C_15  and  O_17
REMARK                            x       y       z     vdW  Elec       q    Type
REMARK                         _______ _______ _______ _____ _____    ______ ____
ROOT
ATOM      1  C   UNL     1      44.300   4.873  11.529  0.00  0.00    +0.000 C 
ENDROOT
BRANCH   1   2
ATOM      2  N   UNL     1      45.336   5.137  12.514  0.00  0.00    +0.000 N 
ATOM      3  C   UNL     1      46.124   4.175  13.091  0.00  0.00    +0.000 A 
ATOM      4  N   UNL     1      47.130   4.699  13.750  0.00  0.00    +0.000 NA
ATOM      5  C   UNL     1      46.999   6.055  13.591  0.00  0.00    +0.000 A 
ATOM      6  C   UNL     1      47.846   7.086  14.025  0.00  0.00    +0.000 A 
ATOM      7  C   UNL     1      47.510   8.412  13.713  0.00  0.00    +0.000 A 
ATOM      8  C   UNL     1      46.341   8.702  12.997  0.00  0.00    +0.000 A 
ATOM      9  C   UNL     1      45.481   7.682  12.564  0.00  0.00    +0.000 A 
ATOM     10  C   UNL     1      45.857   6.364  12.857  0.00  0.00    +0.000 A 
BRANCH   7  11
ATOM     11  C   UNL     1      48.482   9.471  14.092  0.00  0.00    +0.000 C 
ATOM     12  O   UNL     1      48.622   9.859  15.239  0.00  0.00    +0.000 OA
BRANCH  11  13
ATOM     13  O   UNL     1      49.186   9.977  13.057  0.00  0.00    +0.000 OA
ATOM     14  H   UNL     1      48.711  10.630  12.513  0.00  0.00    +0.000 HD
ENDBRANCH  11  13
ENDBRANCH   7  11
ENDBRANCH   1   2
BRANCH   1  18
ATOM     15  C   UNL     1      45.878   3.332   7.809  0.00  0.00    +0.000 A 
ATOM     16  C   UNL     1      46.124   4.658   8.191  0.00  0.00    +0.000 A 
ATOM     17  C   UNL     1      45.620   5.159   9.394  0.00  0.00    +0.000 A 
ATOM     18  C   UNL     1      44.847   4.347  10.235  0.00  0.00    +0.000 A 
ATOM     19  C   UNL     1      44.587   3.036   9.833  0.00  0.00    +0.000 A 
ATOM     20  F   UNL     1      43.812   2.247  10.591  0.00  0.00    +0.000 F 
ATOM     21  C   UNL     1      45.094   2.526   8.640  0.00  0.00    +0.000 A 
BRANCH  15  22
ATOM     22  C   UNL     1      46.415   2.792   6.506  0.00  0.00    +0.000 C 
BRANCH  22  23
ATOM     23  C   UNL     1      47.575   1.819   6.738  0.00  0.00    +0.000 C 
BRANCH  23  24
ATOM     24  N   UNL     1      48.526   1.855   5.629  0.00  0.00    +0.000 NA
ATOM     25  H   UNL     1      48.680   2.823   5.351  0.00  0.00    +0.000 HD
ATOM     26  H   UNL     1      48.128   1.387   4.816  0.00  0.00    +0.000 HD
ENDBRANCH  23  24
ENDBRANCH  22  23
ENDBRANCH  15  22
ENDBRANCH   1  18
TORSDOF 7
ENDMDL
MODEL 4
REMARK VINA RESULT:    -6.801      2.409      2.806
REMARK INTER + INTRA:          -9.881
REMARK INTER:                  -9.225
REMARK INTRA:                  -0.656
REMARK UNBOUND:                -0.695
REMARK  Name = 
REMARK  7 active torsions:
REMARK  status: ('A' for Active; 'I' for Inactive)
REMARK    1  A    between atoms: N_1  and  C_2
REMARK    2  A    between atoms: C_2  and  C_3
REMARK    3  A    between atoms: C_3  and  C_4
REMARK    4  A    between atoms: C_7  and  C_8
REMARK    5  A    between atoms: C_8  and  N_9
REMARK    6  A    between atoms: C_14  and  C_15
REMARK    7  A    between atoms: C_15  and  O_17
REMARK                            x       y       z     vdW  Elec       q    Type
REMARK                         _______ _______ _______ _____ _____    ______ ____
ROOT
ATOM      1  C   UNL     1      43.572   5.124  10.864  0.00  0.00    +0.000 C 
ENDROOT
BRANCH   1   2
ATOM      2  N   UNL     1      44.412   5.887  11.773  0.00  0.00    +0.000 N 
ATOM      3  C   UNL     1      45.209   5.336  12.743  0.00  0.00    +0.000 A 
ATOM      4  N   UNL     1      46.039   6.216  13.250  0.00  0.00    +0.000 NA
ATOM      5  C   UNL     1      45.781   7.384  12.579  0.00  0.00    +0.000 A 
ATOM      6  C   UNL     1      46.431   8.624  12.674  0.00  0.00    +0.000 A 
ATOM      7  C   UNL     1      45.998   9.677  11.854  0.00  0.00    +0.000 A 
ATOM      8  C   UNL     1      44.923   9.499  10.971  0.00  0.00    +0.000 A 
ATOM      9  C   UNL     1      44.259   8.267  10.874  0.00  0.00    +0.000 A 
ATOM     10  C   UNL     1      44.733   7.221  11.676  0.00  0.00    +0.000 A 
BRANCH   7  11
ATOM     11  C   UNL     1      46.776  10.943  11.899  0.00  0.00    +0.000 C 
ATOM     12  O   UNL     1      47.165  11.515  10.896  0.00  0.00    +0.000 OA
BRANCH  11  13
ATOM     13  O   UNL     1      47.030  11.397  13.146  0.00  0.00    +0.000 OA
ATOM     14  H   UNL     1      47.966  11.378  13.410  0.00  0.00    +0.000 HD
ENDBRANCH  11  13
ENDBRANCH   7  11
ENDBRANCH   1   2
BRANCH   1  18
ATOM     15  C   UNL     1      45.843   2.512   8.272  0.00  0.00    +0.000 A 
ATOM     16  C   UNL     1      45.962   3.904   8.160  0.00  0.00    +0.000 A 
ATOM     17  C   UNL     1      45.234   4.752   8.998  0.00  0.00    +0.000 A 
ATOM     18  C   UNL     1      44.360   4.225   9.958  0.00  0.00    +0.000 A 
ATOM     19  C   UNL     1      44.230   2.837  10.045  0.00  0.00    +0.000 A 
ATOM     20  F   UNL     1      43.368   2.301  10.920  0.00  0.00    +0.000 F 
ATOM     21  C   UNL     1      44.960   1.985   9.219  0.00  0.00    +0.000 A 
BRANCH  15  22
ATOM     22  C   UNL     1      46.624   1.596   7.362  0.00  0.00    +0.000 C 
BRANCH  22  23
ATOM     23  C   UNL     1      47.098   2.326   6.101  0.00  0.00    +0.000 C 
BRANCH  23  24
ATOM     24  N   UNL     1      48.417   1.858   5.682  0.00  0.00    +0.000 NA
ATOM     25  H   UNL     1      49.130   2.308   6.256  0.00  0.00    +0.000 HD
ATOM     26  H   UNL     1      48.600   2.151   4.723  0.00  0.00    +0.000 HD
ENDBRANCH  23  24
ENDBRANCH  22  23
ENDBRANCH  15  22
ENDBRANCH   1  18
TORSDOF 7
ENDMDL
MODEL 5
REMARK VINA RESULT:    -6.357      1.647      2.229
REMARK INTER + INTRA:          -9.282
REMARK INTER:                  -8.603
REMARK INTRA:                  -0.679
REMARK UNBOUND:                -0.695
REMARK  Name = 
REMARK  7 active torsions:
REMARK  status: ('A' for Active; 'I' for Inactive)
REMARK    1  A    between atoms: N_1  and  C_2
REMARK    2  A    between atoms: C_2  and  C_3
REMARK    3  A    between atoms: C_3  and  C_4
REMARK    4  A    between atoms: C_7  and  C_8
REMARK    5  A    between atoms: C_8  and  N_9
REMARK    6  A    between atoms: C_14  and  C_15
REMARK    7  A    between atoms: C_15  and  O_17
REMARK                            x       y       z     vdW  Elec       q    Type
REMARK                         _______ _______ _______ _____ _____    ______ ____
ROOT
ATOM      1  C   UNL     1      44.607   5.438  12.326  0.00  0.00    +0.000 C 
ENDROOT
BRANCH   1   2
ATOM      2  N   UNL     1      45.806   5.650  13.121  0.00  0.00    +0.000 N 
ATOM      3  C   UNL     1      46.337   4.731  13.989  0.00  0.00    +0.000 A 
ATOM      4  N   UNL     1      47.540   5.074  14.386  0.00  0.00    +0.000 NA
ATOM      5  C   UNL     1      47.809   6.256  13.746  0.00  0.00    +0.000 A 
ATOM      6  C   UNL     1      48.984   7.022  13.753  0.00  0.00    +0.000 A 
ATOM      7  C   UNL     1      49.029   8.197  12.987  0.00  0.00    +0.000 A 
ATOM      8  C   UNL     1      47.913   8.607  12.243  0.00  0.00    +0.000 A 
ATOM      9  C   UNL     1      46.729   7.855  12.235  0.00  0.00    +0.000 A 
ATOM     10  C   UNL     1      46.722   6.668  12.979  0.00  0.00    +0.000 A 
BRANCH   7  11
ATOM     11  C   UNL     1      50.323   8.926  12.929  0.00  0.00    +0.000 C 
ATOM     12  O   UNL     1      51.402   8.364  12.991  0.00  0.00    +0.000 OA
BRANCH  11  13
ATOM     13  O   UNL     1      50.202  10.267  12.818  0.00  0.00    +0.000 OA
ATOM     14  H   UNL     1      49.993  10.734  13.646  0.00  0.00    +0.000 HD
ENDBRANCH  11  13
ENDBRANCH   7  11
ENDBRANCH   1   2
BRANCH   1  18
ATOM     15  C   UNL     1      45.403   3.346   8.626  0.00  0.00    +0.000 A 
ATOM     16  C   UNL     1      45.711   4.707   8.753  0.00  0.00    +0.000 A 
ATOM     17  C   UNL     1      45.460   5.386   9.948  0.00  0.00    +0.000 A 
ATOM     18  C   UNL     1      44.882   4.721  11.037  0.00  0.00    +0.000 A 
ATOM     19  C   UNL     1      44.557   3.371  10.891  0.00  0.00    +0.000 A 
ATOM     20  F   UNL     1      43.960   2.715  11.897  0.00  0.00    +0.000 F 
ATOM     21  C   UNL     1      44.812   2.684   9.707  0.00  0.00    +0.000 A 
BRANCH  15  22
ATOM     22  C   UNL     1      45.667   2.614   7.332  0.00  0.00    +0.000 C 
BRANCH  22  23
ATOM     23  C   UNL     1      47.168   2.474   7.063  0.00  0.00    +0.000 C 
BRANCH  23  24
ATOM     24  N   UNL     1      47.553   3.170   5.837  0.00  0.00    +0.000 NA
ATOM     25  H   UNL     1      48.071   4.014   6.080  0.00  0.00    +0.000 HD
ATOM     26  H   UNL     1      46.720   3.484   5.341  0.00  0.00    +0.000 HD
ENDBRANCH  23  24
ENDBRANCH  22  23
ENDBRANCH  15  22
ENDBRANCH   1  18
TORSDOF 7
ENDMDL
MODEL 6
REMARK VINA RESULT:    -6.134      3.512      6.952
REMARK INTER + INTRA:          -8.981
REMARK INTER:                  -8.284
REMARK INTRA:                  -0.697
REMARK UNBOUND:                -0.695
REMARK  Name = 
REMARK  7 active torsions:
REMARK  status: ('A' for Active; 'I' for Inactive)
REMARK    1  A    between atoms: N_1  and  C_2
REMARK    2  A    between atoms: C_2  and  C_3
REMARK    3  A    between atoms: C_3  and  C_4
REMARK    4  A    between atoms: C_7  and  C_8
REMARK    5  A    between atoms: C_8  and  N_9
REMARK    6  A    between atoms: C_14  and  C_15
REMARK    7  A    between atoms: C_15  and  O_17
REMARK                            x       y       z     vdW  Elec       q    Type
REMARK                         _______ _______ _______ _____ _____    ______ ____
ROOT
ATOM      1  C   UNL     1      44.414   4.979  11.417  0.00  0.00    +0.000 C 
ENDROOT
BRANCH   1   2
ATOM      2  N   UNL     1      45.030   4.864  10.105  0.00  0.00    +0.000 N 
ATOM      3  C   UNL     1      45.661   5.890   9.450  0.00  0.00    +0.000 A 
ATOM      4  N   UNL     1      46.335   5.461   8.408  0.00  0.00    +0.000 NA
ATOM      5  C   UNL     1      46.145   4.103   8.388  0.00  0.00    +0.000 A 
ATOM      6  C   UNL     1      46.700   3.142   7.530  0.00  0.00    +0.000 A 
ATOM      7  C   UNL     1      46.371   1.792   7.727  0.00  0.00    +0.000 A 
ATOM      8  C   UNL     1      45.490   1.414   8.750  0.00  0.00    +0.000 A 
ATOM      9  C   UNL     1      44.921   2.366   9.608  0.00  0.00    +0.000 A 
ATOM     10  C   UNL     1      45.293   3.703   9.415  0.00  0.00    +0.000 A 
BRANCH   7  11
ATOM     11  C   UNL     1      47.060   0.789   6.873  0.00  0.00    +0.000 C 
ATOM     12  O   UNL     1      46.789  -0.398   6.900  0.00  0.00    +0.000 OA
BRANCH  11  13
ATOM     13  O   UNL     1      48.022   1.303   6.076  0.00  0.00    +0.000 OA
ATOM     14  H   UNL     1      48.003   2.271   5.975  0.00  0.00    +0.000 HD
ENDBRANCH  11  13
ENDBRANCH   7  11
ENDBRANCH   1   2
BRANCH   1  18
ATOM     15  C   UNL     1      47.303   5.294  14.619  0.00  0.00    +0.000 A 
ATOM     16  C   UNL     1      46.810   6.445  13.991  0.00  0.00    +0.000 A 
ATOM     17  C   UNL     1      45.873   6.349  12.959  0.00  0.00    +0.000 A 
ATOM     18  C   UNL     1      45.420   5.096  12.524  0.00  0.00    +0.000 A 
ATOM     19  C   UNL     1      45.936   3.955  13.140  0.00  0.00    +0.000 A 
ATOM     20  F   UNL     1      45.559   2.739  12.716  0.00  0.00    +0.000 F 
ATOM     21  C   UNL     1      46.863   4.042  14.176  0.00  0.00    +0.000 A 
BRANCH  15  22
ATOM     22  C   UNL     1      48.321   5.396  15.729  0.00  0.00    +0.000 C 
BRANCH  22  23
ATOM     23  C   UNL     1      48.105   4.314  16.791  0.00  0.00    +0.000 C 
BRANCH  23  24
ATOM     24  N   UNL     1      49.212   3.360  16.808  0.00  0.00    +0.000 NA
ATOM     25  H   UNL     1      50.092   3.865  16.697  0.00  0.00    +0.000 HD
ATOM     26  H   UNL     1      49.143   2.736  16.005  0.00  0.00    +0.000 HD
ENDBRANCH  23  24
ENDBRANCH  22  23
ENDBRANCH  15  22
ENDBRANCH   1  18
TORSDOF 7
ENDMDL
MODEL 7
REMARK VINA RESULT:    -6.076      2.503      3.592
REMARK INTER + INTRA:          -8.903
REMARK INTER:                  -8.329
REMARK INTRA:                  -0.575
REMARK UNBOUND:                -0.695
REMARK  Name = 
REMARK  7 active torsions:
REMARK  status: ('A' for Active; 'I' for Inactive)
REMARK    1  A    between atoms: N_1  and  C_2
REMARK    2  A    between atoms: C_2  and  C_3
REMARK    3  A    between atoms: C_3  and  C_4
REMARK    4  A    between atoms: C_7  and  C_8
REMARK    5  A    between atoms: C_8  and  N_9
REMARK    6  A    between atoms: C_14  and  C_15
REMARK    7  A    between atoms: C_15  and  O_17
REMARK                            x       y       z     vdW  Elec       q    Type
REMARK                         _______ _______ _______ _____ _____    ______ ____
ROOT
ATOM      1  C   UNL     1      45.252   5.834  13.038  0.00  0.00    +0.000 C 
ENDROOT
BRANCH   1   2
ATOM      2  N   UNL     1      46.580   6.023  13.600  0.00  0.00    +0.000 N 
ATOM      3  C   UNL     1      47.385   7.103  13.346  0.00  0.00    +0.000 A 
ATOM      4  N   UNL     1      48.413   7.147  14.161  0.00  0.00    +0.000 NA
ATOM      5  C   UNL     1      48.268   6.060  14.985  0.00  0.00    +0.000 A 
ATOM      6  C   UNL     1      49.046   5.671  16.085  0.00  0.00    +0.000 A 
ATOM      7  C   UNL     1      48.678   4.519  16.797  0.00  0.00    +0.000 A 
ATOM      8  C   UNL     1      47.565   3.762  16.405  0.00  0.00    +0.000 A 
ATOM      9  C   UNL     1      46.784   4.137  15.302  0.00  0.00    +0.000 A 
ATOM     10  C   UNL     1      47.150   5.309  14.629  0.00  0.00    +0.000 A 
BRANCH   7  11
ATOM     11  C   UNL     1      49.457   4.195  18.022  0.00  0.00    +0.000 C 
ATOM     12  O   UNL     1      49.939   5.050  18.743  0.00  0.00    +0.000 OA
BRANCH  11  13
ATOM     13  O   UNL     1      49.598   2.872  18.257  0.00  0.00    +0.000 OA
ATOM     14  H   UNL     1      50.280   2.427  17.724  0.00  0.00    +0.000 HD
ENDBRANCH  11  13
ENDBRANCH   7  11
ENDBRANCH   1   2
BRANCH   1  18
ATOM     15  C   UNL     1      45.326   3.812   9.216  0.00  0.00    +0.000 A 
ATOM     16  C   UNL     1      45.673   5.167   9.310  0.00  0.00    +0.000 A 
ATOM     17  C   UNL     1      45.655   5.823  10.544  0.00  0.00    +0.000 A 
ATOM     18  C   UNL     1      45.276   5.141  11.708  0.00  0.00    +0.000 A 
ATOM     19  C   UNL     1      44.909   3.799  11.599  0.00  0.00    +0.000 A 
ATOM     20  F   UNL     1      44.497   3.129  12.685  0.00  0.00    +0.000 F 
ATOM     21  C   UNL     1      44.934   3.134  10.375  0.00  0.00    +0.000 A 
BRANCH  15  22
ATOM     22  C   UNL     1      45.339   3.104   7.883  0.00  0.00    +0.000 C 
BRANCH  22  23
ATOM     23  C   UNL     1      46.744   3.076   7.275  0.00  0.00    +0.000 C 
BRANCH  23  24
ATOM     24  N   UNL     1      46.861   4.018   6.165  0.00  0.00    +0.000 NA
ATOM     25  H   UNL     1      46.301   3.684   5.381  0.00  0.00    +0.000 HD
ATOM     26  H   UNL     1      47.824   4.045   5.833  0.00  0.00    +0.000 HD
ENDBRANCH  23  24
ENDBRANCH  22  23
ENDBRANCH  15  22
ENDBRANCH   1  18
TORSDOF 7
ENDMDL
MODEL 8
REMARK VINA RESULT:    -5.810      4.366      6.500
REMARK INTER + INTRA:          -8.543
REMARK INTER:                  -7.896
REMARK INTRA:                  -0.647
REMARK UNBOUND:                -0.695
REMARK  Name = 
REMARK  7 active torsions:
REMARK  status: ('A' for Active; 'I' for Inactive)
REMARK    1  A    between atoms: N_1  and  C_2
REMARK    2  A    between atoms: C_2  and  C_3
REMARK    3  A    between atoms: C_3  and  C_4
REMARK    4  A    between atoms: C_7  and  C_8
REMARK    5  A    between atoms: C_8  and  N_9
REMARK    6  A    between atoms: C_14  and  C_15
REMARK    7  A    between atoms: C_15  and  O_17
REMARK                            x       y       z     vdW  Elec       q    Type
REMARK                         _______ _______ _______ _____ _____    ______ ____
ROOT
ATOM      1  C   UNL     1      46.779   8.340  13.594  0.00  0.00    +0.000 C 
ENDROOT
BRANCH   1   2
ATOM      2  N   UNL     1      45.672   7.860  12.783  0.00  0.00    +0.000 N 
ATOM      3  C   UNL     1      44.987   8.622  11.872  0.00  0.00    +0.000 A 
ATOM      4  N   UNL     1      44.210   7.890  11.109  0.00  0.00    +0.000 NA
ATOM      5  C   UNL     1      44.402   6.599  11.531  0.00  0.00    +0.000 A 
ATOM      6  C   UNL     1      43.874   5.408  11.011  0.00  0.00    +0.000 A 
ATOM      7  C   UNL     1      44.243   4.191  11.604  0.00  0.00    +0.000 A 
ATOM      8  C   UNL     1      45.108   4.168  12.708  0.00  0.00    +0.000 A 
ATOM      9  C   UNL     1      45.635   5.353  13.243  0.00  0.00    +0.000 A 
ATOM     10  C   UNL     1      45.280   6.552  12.611  0.00  0.00    +0.000 A 
BRANCH   7  11
ATOM     11  C   UNL     1      43.755   2.942  10.963  0.00  0.00    +0.000 C 
ATOM     12  O   UNL     1      44.035   2.635   9.818  0.00  0.00    +0.000 OA
BRANCH  11  13
ATOM     13  O   UNL     1      42.962   2.185  11.751  0.00  0.00    +0.000 OA
ATOM     14  H   UNL     1      42.488   1.468  11.295  0.00  0.00    +0.000 HD
ENDBRANCH  11  13
ENDBRANCH   7  11
ENDBRANCH   1   2
BRANCH   1  18
ATOM     15  C   UNL     1      50.484   8.646  11.384  0.00  0.00    +0.000 A 
ATOM     16  C   UNL     1      49.621   9.746  11.481  0.00  0.00    +0.000 A 
ATOM     17  C   UNL     1      48.425   9.653  12.198  0.00  0.00    +0.000 A 
ATOM     18  C   UNL     1      48.060   8.453  12.822  0.00  0.00    +0.000 A 
ATOM     19  C   UNL     1      48.916   7.356  12.698  0.00  0.00    +0.000 A 
ATOM     20  F   UNL     1      48.575   6.179  13.242  0.00  0.00    +0.000 F 
ATOM     21  C   UNL     1      50.114   7.443  11.994  0.00  0.00    +0.000 A 
BRANCH  15  22
ATOM     22  C   UNL     1      51.772   8.744  10.604  0.00  0.00    +0.000 C 
BRANCH  22  23
ATOM     23  C   UNL     1      52.247   7.367  10.129  0.00  0.00    +0.000 C 
BRANCH  23  24
ATOM     24  N   UNL     1      53.429   6.930  10.867  0.00  0.00    +0.000 NA
ATOM     25  H   UNL     1      54.256   7.374  10.469  0.00  0.00    +0.000 HD
ATOM     26  H   UNL     1      53.562   5.927  10.746  0.00  0.00    +0.000 HD
ENDBRANCH  23  24
ENDBRANCH  22  23
ENDBRANCH  15  22
ENDBRANCH   1  18
TORSDOF 7
ENDMDL
MODEL 9
REMARK VINA RESULT:    -5.782      4.786      8.608
REMARK INTER + INTRA:          -8.506
REMARK INTER:                  -7.814
REMARK INTRA:                  -0.692
REMARK UNBOUND:                -0.695
REMARK  Name = 
REMARK  7 active torsions:
REMARK  status: ('A' for Active; 'I' for Inactive)
REMARK    1  A    between atoms: N_1  and  C_2
REMARK    2  A    between atoms: C_2  and  C_3
REMARK    3  A    between atoms: C_3  and  C_4
REMARK    4  A    between atoms: C_7  and  C_8
REMARK    5  A    between atoms: C_8  and  N_9
REMARK    6  A    between atoms: C_14  and  C_15
REMARK    7  A    between atoms: C_15  and  O_17
REMARK                            x       y       z     vdW  Elec       q    Type
REMARK                         _______ _______ _______ _____ _____    ______ ____
ROOT
ATOM      1  C   UNL     1      48.726   7.087  14.245  0.00  0.00    +0.000 C 
ENDROOT
BRANCH   1   2
ATOM      2  N   UNL     1      47.411   7.303  13.663  0.00  0.00    +0.000 N 
ATOM      3  C   UNL     1      46.904   8.530  13.321  0.00  0.00    +0.000 A 
ATOM      4  N   UNL     1      45.814   8.423  12.598  0.00  0.00    +0.000 NA
ATOM      5  C   UNL     1      45.607   7.075  12.455  0.00  0.00    +0.000 A 
ATOM      6  C   UNL     1      44.625   6.402  11.712  0.00  0.00    +0.000 A 
ATOM      7  C   UNL     1      44.634   4.999  11.697  0.00  0.00    +0.000 A 
ATOM      8  C   UNL     1      45.594   4.283  12.426  0.00  0.00    +0.000 A 
ATOM      9  C   UNL     1      46.575   4.944  13.180  0.00  0.00    +0.000 A 
ATOM     10  C   UNL     1      46.568   6.345  13.150  0.00  0.00    +0.000 A 
BRANCH   7  11
ATOM     11  C   UNL     1      43.650   4.318  10.814  0.00  0.00    +0.000 C 
ATOM     12  O   UNL     1      43.032   3.326  11.157  0.00  0.00    +0.000 OA
BRANCH  11  13
ATOM     13  O   UNL     1      43.512   4.884   9.596  0.00  0.00    +0.000 OA
ATOM     14  H   UNL     1      42.608   4.874   9.235  0.00  0.00    +0.000 HD
ENDBRANCH  11  13
ENDBRANCH   7  11
ENDBRANCH   1   2
BRANCH   1  18
ATOM     15  C   UNL     1      48.595   6.419  18.516  0.00  0.00    +0.000 A 
ATOM     16  C   UNL     1      48.561   5.338  17.626  0.00  0.00    +0.000 A 
ATOM     17  C   UNL     1      48.608   5.548  16.245  0.00  0.00    +0.000 A 
ATOM     18  C   UNL     1      48.676   6.847  15.725  0.00  0.00    +0.000 A 
ATOM     19  C   UNL     1      48.684   7.919  16.620  0.00  0.00    +0.000 A 
ATOM     20  F   UNL     1      48.700   9.177  16.155  0.00  0.00    +0.000 F 
ATOM     21  C   UNL     1      48.647   7.718  17.998  0.00  0.00    +0.000 A 
BRANCH  15  22
ATOM     22  C   UNL     1      48.537   6.193  20.007  0.00  0.00    +0.000 C 
BRANCH  22  23
ATOM     23  C   UNL     1      49.260   4.905  20.408  0.00  0.00    +0.000 C 
BRANCH  23  24
ATOM     24  N   UNL     1      48.312   3.866  20.805  0.00  0.00    +0.000 NA
ATOM     25  H   UNL     1      47.391   4.284  20.932  0.00  0.00    +0.000 HD
ATOM     26  H   UNL     1      48.576   3.485  21.713  0.00  0.00    +0.000 HD
ENDBRANCH  23  24
ENDBRANCH  22  23
ENDBRANCH  15  22
ENDBRANCH   1  18
TORSDOF 7
ENDMDL
