MODEL 1
REMARK VINA RESULT:    -7.141      0.000      0.000
REMARK INTER + INTRA:          -8.306
REMARK INTER:                  -8.394
REMARK INTRA:                   0.088
REMARK UNBOUND:                 0.088
REMARK  Name = 
REMARK  3 active torsions:
REMARK  status: ('A' for Active; 'I' for Inactive)
REMARK    1  A    between atoms: C_2  and  C_4
REMARK    2  A    between atoms: C_7  and  C_8
REMARK    3  A    between atoms: C_8  and  C_9
REMARK                            x       y       z     vdW  Elec       q    Type
REMARK                         _______ _______ _______ _____ _____    ______ ____
ROOT
ATOM      1  C   UNL     1      46.457   2.931   7.611  0.00  0.00    +0.000 A 
ATOM      2  C   UNL     1      45.945   2.068   8.563  0.00  0.00    +0.000 A 
ATOM      3  N   UNL     1      45.288   2.517   9.667  0.00  0.00    +0.000 NA
ATOM      4  C   UNL     1      45.144   3.864   9.794  0.00  0.00    +0.000 A 
ATOM      5  C   UNL     1      45.676   4.710   8.812  0.00  0.00    +0.000 A 
ATOM      6  N   UNL     1      46.340   4.282   7.709  0.00  0.00    +0.000 NA
ENDROOT
BRANCH   1   8
ATOM      7  N   UNL     1      47.113   3.180   5.304  0.00  0.00    +0.000 N 
ATOM      8  C   UNL     1      47.174   2.394   6.423  0.00  0.00    +0.000 C 
ATOM      9  O   UNL     1      47.778   1.330   6.440  0.00  0.00    +0.000 OA
ATOM     10  H   UNL     1      47.576   2.884   4.456  0.00  0.00    +0.000 HD
ATOM     11  H   UNL     1      46.608   4.058   5.334  0.00  0.00    +0.000 HD
ENDBRANCH   1   8
BRANCH   4  12
ATOM     12  C   UNL     1      44.414   4.418  11.014  0.00  0.00    +0.000 C 
ATOM     13  C   UNL     1      43.057   3.823  11.374  0.00  0.00    +0.000 C 
ATOM     14  C   UNL     1      43.121   5.186  10.761  0.00  0.00    +0.000 C 
BRANCH  12  15
ATOM     15  C   UNL     1      45.280   4.926  12.166  0.00  0.00    +0.000 C 
ATOM     16  C   UNL     1      46.184   6.098  11.760  0.00  0.00    +0.000 C 
ATOM     17  C   UNL     1      46.845   6.694  13.001  0.00  0.00    +0.000 C 
ATOM     18  C   UNL     1      47.652   5.643  13.763  0.00  0.00    +0.000 C 
ATOM     19  C   UNL     1      46.844   4.380  14.063  0.00  0.00    +0.000 C 
ATOM     20  C   UNL     1      46.129   3.830  12.826  0.00  0.00    +0.000 C 
ENDBRANCH  12  15
ENDBRANCH   4  12
TORSDOF 3
ENDMDL
MODEL 2
REMARK VINA RESULT:    -6.836      3.519      6.041
REMARK INTER + INTRA:          -7.948
REMARK INTER:                  -7.788
REMARK INTRA:                  -0.160
REMARK UNBOUND:                 0.088
REMARK  Name = 
REMARK  3 active torsions:
REMARK  status: ('A' for Active; 'I' for Inactive)
REMARK    1  A    between atoms: C_2  and  C_4
REMARK    2  A    between atoms: C_7  and  C_8
REMARK    3  A    between atoms: C_8  and  C_9
REMARK                            x       y       z     vdW  Elec       q    Type
REMARK                         _______ _______ _______ _____ _____    ______ ____
ROOT
ATOM      1  C   UNL     1      47.412   6.242  13.709  0.00  0.00    +0.000 A 
ATOM      2  C   UNL     1      46.926   7.102  12.741  0.00  0.00    +0.000 A 
ATOM      3  N   UNL     1      45.872   6.773  11.946  0.00  0.00    +0.000 NA
ATOM      4  C   UNL     1      45.300   5.555  12.151  0.00  0.00    +0.000 A 
ATOM      5  C   UNL     1      45.818   4.709  13.140  0.00  0.00    +0.000 A 
ATOM      6  N   UNL     1      46.873   5.015  13.937  0.00  0.00    +0.000 NA
ENDROOT
BRANCH   1   8
ATOM      7  N   UNL     1      48.347   6.617  15.900  0.00  0.00    +0.000 N 
ATOM      8  C   UNL     1      48.573   6.642  14.551  0.00  0.00    +0.000 C 
ATOM      9  O   UNL     1      49.652   6.968  14.077  0.00  0.00    +0.000 OA
ATOM     10  H   UNL     1      49.086   6.875  16.539  0.00  0.00    +0.000 HD
ATOM     11  H   UNL     1      47.439   6.334  16.253  0.00  0.00    +0.000 HD
ENDBRANCH   1   8
BRANCH   4  12
ATOM     12  C   UNL     1      44.115   5.140  11.286  0.00  0.00    +0.000 C 
ATOM     13  C   UNL     1      42.892   6.052  11.251  0.00  0.00    +0.000 C 
ATOM     14  C   UNL     1      42.826   4.763  12.009  0.00  0.00    +0.000 C 
BRANCH  12  15
ATOM     15  C   UNL     1      44.427   4.347  10.018  0.00  0.00    +0.000 C 
ATOM     16  C   UNL     1      44.595   2.843  10.281  0.00  0.00    +0.000 C 
ATOM     17  C   UNL     1      44.679   2.094   8.954  0.00  0.00    +0.000 C 
ATOM     18  C   UNL     1      45.831   2.611   8.093  0.00  0.00    +0.000 C 
ATOM     19  C   UNL     1      45.805   4.130   7.921  0.00  0.00    +0.000 C 
ATOM     20  C   UNL     1      45.650   4.871   9.252  0.00  0.00    +0.000 C 
ENDBRANCH  12  15
ENDBRANCH   4  12
TORSDOF 3
ENDMDL
MODEL 3
REMARK VINA RESULT:    -6.797      3.556      5.966
REMARK INTER + INTRA:          -7.902
REMARK INTER:                  -7.848
REMARK INTRA:                  -0.054
REMARK UNBOUND:                 0.088
REMARK  Name = 
REMARK  3 active torsions:
REMARK  status: ('A' for Active; 'I' for Inactive)
REMARK    1  A    between atoms: C_2  and  C_4
REMARK    2  A    between atoms: C_7  and  C_8
REMARK    3  A    between atoms: C_8  and  C_9
REMARK                            x       y       z     vdW  Elec       q    Type
REMARK                         _______ _______ _______ _____ _____    ______ ____
ROOT
ATOM      1  C   UNL     1      47.271   5.939  13.922  0.00  0.00    +0.000 A 
ATOM      2  C   UNL     1      46.503   4.799  14.075  0.00  0.00    +0.000 A 
ATOM      3  N   UNL     1      45.468   4.507  13.242  0.00  0.00    +0.000 NA
ATOM      4  C   UNL     1      45.221   5.387  12.233  0.00  0.00    +0.000 A 
ATOM      5  C   UNL     1      46.018   6.532  12.107  0.00  0.00    +0.000 A 
ATOM      6  N   UNL     1      47.048   6.844  12.932  0.00  0.00    +0.000 NA
ENDROOT
BRANCH   1   8
ATOM      7  N   UNL     1      48.143   5.896  16.169  0.00  0.00    +0.000 N 
ATOM      8  C   UNL     1      48.389   6.220  14.863  0.00  0.00    +0.000 C 
ATOM      9  O   UNL     1      49.453   6.703  14.500  0.00  0.00    +0.000 OA
ATOM     10  H   UNL     1      48.854   6.056  16.870  0.00  0.00    +0.000 HD
ATOM     11  H   UNL     1      47.250   5.491  16.428  0.00  0.00    +0.000 HD
ENDBRANCH   1   8
BRANCH   4  12
ATOM     12  C   UNL     1      44.072   5.104  11.270  0.00  0.00    +0.000 C 
ATOM     13  C   UNL     1      42.954   6.136  11.157  0.00  0.00    +0.000 C 
ATOM     14  C   UNL     1      42.698   4.853  11.883  0.00  0.00    +0.000 C 
BRANCH  12  15
ATOM     15  C   UNL     1      44.403   4.296  10.016  0.00  0.00    +0.000 C 
ATOM     16  C   UNL     1      44.634   2.807  10.310  0.00  0.00    +0.000 C 
ATOM     17  C   UNL     1      44.735   2.032   8.998  0.00  0.00    +0.000 C 
ATOM     18  C   UNL     1      45.856   2.576   8.113  0.00  0.00    +0.000 C 
ATOM     19  C   UNL     1      45.767   4.089   7.909  0.00  0.00    +0.000 C 
ATOM     20  C   UNL     1      45.596   4.852   9.225  0.00  0.00    +0.000 C 
ENDBRANCH  12  15
ENDBRANCH   4  12
TORSDOF 3
ENDMDL
MODEL 4
REMARK VINA RESULT:    -6.493      3.518      6.217
REMARK INTER + INTRA:          -7.544
REMARK INTER:                  -7.964
REMARK INTRA:                   0.421
REMARK UNBOUND:                 0.088
REMARK  Name = 
REMARK  3 active torsions:
REMARK  status: ('A' for Active; 'I' for Inactive)
REMARK    1  A    between atoms: C_2  and  C_4
REMARK    2  A    between atoms: C_7  and  C_8
REMARK    3  A    between atoms: C_8  and  C_9
REMARK                            x       y       z     vdW  Elec       q    Type
REMARK                         _______ _______ _______ _____ _____    ______ ____
ROOT
ATOM      1  C   UNL     1      47.138   4.928  14.457  0.00  0.00    +0.000 A 
ATOM      2  C   UNL     1      46.570   5.876  13.626  0.00  0.00    +0.000 A 
ATOM      3  N   UNL     1      45.818   5.533  12.546  0.00  0.00    +0.000 NA
ATOM      4  C   UNL     1      45.635   4.203  12.318  0.00  0.00    +0.000 A 
ATOM      5  C   UNL     1      46.226   3.269  13.179  0.00  0.00    +0.000 A 
ATOM      6  N   UNL     1      46.986   3.592  14.256  0.00  0.00    +0.000 NA
ENDROOT
BRANCH   1   8
ATOM      7  N   UNL     1      47.420   5.066  16.848  0.00  0.00    +0.000 N 
ATOM      8  C   UNL     1      47.960   5.351  15.624  0.00  0.00    +0.000 C 
ATOM      9  O   UNL     1      49.041   5.912  15.503  0.00  0.00    +0.000 OA
ATOM     10  H   UNL     1      47.917   5.321  17.689  0.00  0.00    +0.000 HD
ATOM     11  H   UNL     1      46.524   4.594  16.905  0.00  0.00    +0.000 HD
ENDBRANCH   1   8
BRANCH   4  12
ATOM     12  C   UNL     1      44.799   3.767  11.120  0.00  0.00    +0.000 C 
ATOM     13  C   UNL     1      43.397   4.348  10.967  0.00  0.00    +0.000 C 
ATOM     14  C   UNL     1      43.558   2.928  11.408  0.00  0.00    +0.000 C 
BRANCH  12  15
ATOM     15  C   UNL     1      45.554   3.425   9.836  0.00  0.00    +0.000 C 
ATOM     16  C   UNL     1      45.468   4.537   8.780  0.00  0.00    +0.000 C 
ATOM     17  C   UNL     1      46.421   4.228   7.628  0.00  0.00    +0.000 C 
ATOM     18  C   UNL     1      46.112   2.872   6.995  0.00  0.00    +0.000 C 
ATOM     19  C   UNL     1      46.032   1.743   8.024  0.00  0.00    +0.000 C 
ATOM     20  C   UNL     1      45.129   2.090   9.210  0.00  0.00    +0.000 C 
ENDBRANCH  12  15
ENDBRANCH   4  12
TORSDOF 3
ENDMDL
MODEL 5
REMARK VINA RESULT:    -5.842      4.412      6.697
REMARK INTER + INTRA:          -6.779
REMARK INTER:                  -7.049
REMARK INTRA:                   0.270
REMARK UNBOUND:                 0.088
REMARK  Name = 
REMARK  3 active torsions:
REMARK  status: ('A' for Active; 'I' for Inactive)
REMARK    1  A    between atoms: C_2  and  C_4
REMARK    2  A    between atoms: C_7  and  C_8
REMARK    3  A    between atoms: C_8  and  C_9
REMARK                            x       y       z     vdW  Elec       q    Type
REMARK                         _______ _______ _______ _____ _____    ______ ____
ROOT
ATOM      1  C   UNL     1      47.858   3.757  15.729  0.00  0.00    +0.000 A 
ATOM      2  C   UNL     1      47.946   5.133  15.843  0.00  0.00    +0.000 A 
ATOM      3  N   UNL     1      47.545   5.968  14.848  0.00  0.00    +0.000 NA
ATOM      4  C   UNL     1      47.035   5.391  13.725  0.00  0.00    +0.000 A 
ATOM      5  C   UNL     1      46.961   3.994  13.642  0.00  0.00    +0.000 A 
ATOM      6  N   UNL     1      47.363   3.145  14.620  0.00  0.00    +0.000 NA
ENDROOT
BRANCH   1   8
ATOM      7  N   UNL     1      47.436   2.755  17.881  0.00  0.00    +0.000 N 
ATOM      8  C   UNL     1      48.317   2.883  16.842  0.00  0.00    +0.000 C 
ATOM      9  O   UNL     1      49.402   2.316  16.834  0.00  0.00    +0.000 OA
ATOM     10  H   UNL     1      47.675   2.177  18.675  0.00  0.00    +0.000 HD
ATOM     11  H   UNL     1      46.544   3.236  17.846  0.00  0.00    +0.000 HD
ENDBRANCH   1   8
BRANCH   4  12
ATOM     12  C   UNL     1      46.569   6.285  12.581  0.00  0.00    +0.000 C 
ATOM     13  C   UNL     1      47.626   6.909  11.675  0.00  0.00    +0.000 C 
ATOM     14  C   UNL     1      46.913   7.767  12.672  0.00  0.00    +0.000 C 
BRANCH  12  15
ATOM     15  C   UNL     1      45.220   5.949  11.947  0.00  0.00    +0.000 C 
ATOM     16  C   UNL     1      44.129   5.655  12.987  0.00  0.00    +0.000 C 
ATOM     17  C   UNL     1      42.772   5.552  12.296  0.00  0.00    +0.000 C 
ATOM     18  C   UNL     1      42.776   4.472  11.214  0.00  0.00    +0.000 C 
ATOM     19  C   UNL     1      43.938   4.623  10.232  0.00  0.00    +0.000 C 
ATOM     20  C   UNL     1      45.286   4.796  10.936  0.00  0.00    +0.000 C 
ENDBRANCH  12  15
ENDBRANCH   4  12
TORSDOF 3
ENDMDL
MODEL 6
REMARK VINA RESULT:    -5.543      3.168      5.091
REMARK INTER + INTRA:          -6.428
REMARK INTER:                  -6.720
REMARK INTRA:                   0.292
REMARK UNBOUND:                 0.088
REMARK  Name = 
REMARK  3 active torsions:
REMARK  status: ('A' for Active; 'I' for Inactive)
REMARK    1  A    between atoms: C_2  and  C_4
REMARK    2  A    between atoms: C_7  and  C_8
REMARK    3  A    between atoms: C_8  and  C_9
REMARK                            x       y       z     vdW  Elec       q    Type
REMARK                         _______ _______ _______ _____ _____    ______ ____
ROOT
ATOM      1  C   UNL     1      44.856   4.008  11.345  0.00  0.00    +0.000 A 
ATOM      2  C   UNL     1      45.279   4.197  12.648  0.00  0.00    +0.000 A 
ATOM      3  N   UNL     1      46.060   5.251  13.009  0.00  0.00    +0.000 NA
ATOM      4  C   UNL     1      46.403   6.130  12.028  0.00  0.00    +0.000 A 
ATOM      5  C   UNL     1      45.957   5.908  10.718  0.00  0.00    +0.000 A 
ATOM      6  N   UNL     1      45.186   4.860  10.337  0.00  0.00    +0.000 NA
ENDROOT
BRANCH   1   8
ATOM      7  N   UNL     1      44.412   2.138   9.890  0.00  0.00    +0.000 N 
ATOM      8  C   UNL     1      44.009   2.835  10.995  0.00  0.00    +0.000 C 
ATOM      9  O   UNL     1      43.024   2.513  11.646  0.00  0.00    +0.000 OA
ATOM     10  H   UNL     1      43.889   1.327   9.588  0.00  0.00    +0.000 HD
ATOM     11  H   UNL     1      45.238   2.433   9.381  0.00  0.00    +0.000 HD
ENDBRANCH   1   8
BRANCH   4  12
ATOM     12  C   UNL     1      47.275   7.330  12.382  0.00  0.00    +0.000 C 
ATOM     13  C   UNL     1      48.774   7.107  12.554  0.00  0.00    +0.000 C 
ATOM     14  C   UNL     1      47.922   7.335  13.763  0.00  0.00    +0.000 C 
BRANCH  12  15
ATOM     15  C   UNL     1      46.831   8.690  11.845  0.00  0.00    +0.000 C 
ATOM     16  C   UNL     1      47.813   9.818  12.193  0.00  0.00    +0.000 C 
ATOM     17  C   UNL     1      47.426  11.089  11.441  0.00  0.00    +0.000 C 
ATOM     18  C   UNL     1      45.995  11.516  11.767  0.00  0.00    +0.000 C 
ATOM     19  C   UNL     1      44.984  10.383  11.586  0.00  0.00    +0.000 C 
ATOM     20  C   UNL     1      45.416   9.091  12.286  0.00  0.00    +0.000 C 
ENDBRANCH  12  15
ENDBRANCH   4  12
TORSDOF 3
ENDMDL
MODEL 7
REMARK VINA RESULT:    -5.496      5.039      7.467
REMARK INTER + INTRA:          -6.372
REMARK INTER:                  -6.899
REMARK INTRA:                   0.527
REMARK UNBOUND:                 0.088
REMARK  Name = 
REMARK  3 active torsions:
REMARK  status: ('A' for Active; 'I' for Inactive)
REMARK    1  A    between atoms: C_2  and  C_4
REMARK    2  A    between atoms: C_7  and  C_8
REMARK    3  A    between atoms: C_8  and  C_9
REMARK                            x       y       z     vdW  Elec       q    Type
REMARK                         _______ _______ _______ _____ _____    ______ ____
ROOT
ATOM      1  C   UNL     1      48.580   4.218  16.977  0.00  0.00    +0.000 A 
ATOM      2  C   UNL     1      47.651   3.435  16.318  0.00  0.00    +0.000 A 
ATOM      3  N   UNL     1      46.990   3.874  15.212  0.00  0.00    +0.000 NA
ATOM      4  C   UNL     1      47.292   5.125  14.769  0.00  0.00    +0.000 A 
ATOM      5  C   UNL     1      48.238   5.891  15.461  0.00  0.00    +0.000 A 
ATOM      6  N   UNL     1      48.901   5.475  16.569  0.00  0.00    +0.000 NA
ENDROOT
BRANCH   1   8
ATOM      7  N   UNL     1      48.449   3.177  19.148  0.00  0.00    +0.000 N 
ATOM      8  C   UNL     1      49.273   3.698  18.188  0.00  0.00    +0.000 C 
ATOM      9  O   UNL     1      50.489   3.729  18.319  0.00  0.00    +0.000 OA
ATOM     10  H   UNL     1      48.843   2.803  20.001  0.00  0.00    +0.000 HD
ATOM     11  H   UNL     1      47.446   3.163  18.998  0.00  0.00    +0.000 HD
ENDBRANCH   1   8
BRANCH   4  12
ATOM     12  C   UNL     1      46.579   5.662  13.532  0.00  0.00    +0.000 C 
ATOM     13  C   UNL     1      47.430   6.179  12.376  0.00  0.00    +0.000 C 
ATOM     14  C   UNL     1      46.708   7.155  13.250  0.00  0.00    +0.000 C 
BRANCH  12  15
ATOM     15  C   UNL     1      45.235   5.027  13.177  0.00  0.00    +0.000 C 
ATOM     16  C   UNL     1      45.381   3.772  12.306  0.00  0.00    +0.000 C 
ATOM     17  C   UNL     1      44.030   3.071  12.182  0.00  0.00    +0.000 C 
ATOM     18  C   UNL     1      42.970   4.002  11.595  0.00  0.00    +0.000 C 
ATOM     19  C   UNL     1      42.884   5.340  12.331  0.00  0.00    +0.000 C 
ATOM     20  C   UNL     1      44.253   6.001  12.511  0.00  0.00    +0.000 C 
ENDBRANCH  12  15
ENDBRANCH   4  12
TORSDOF 3
ENDMDL
MODEL 8
REMARK VINA RESULT:    -5.330      3.220      4.735
REMARK INTER + INTRA:          -6.177
REMARK INTER:                  -5.977
REMARK INTRA:                  -0.200
REMARK UNBOUND:                 0.088
REMARK  Name = 
REMARK  3 active torsions:
REMARK  status: ('A' for Active; 'I' for Inactive)
REMARK    1  A    between atoms: C_2  and  C_4
REMARK    2  A    between atoms: C_7  and  C_8
REMARK    3  A    between atoms: C_8  and  C_9
REMARK                            x       y       z     vdW  Elec       q    Type
REMARK                         _______ _______ _______ _____ _____    ______ ____
ROOT
ATOM      1  C   UNL     1      44.509   4.368  11.609  0.00  0.00    +0.000 A 
ATOM      2  C   UNL     1      44.272   5.013  12.809  0.00  0.00    +0.000 A 
ATOM      3  N   UNL     1      44.756   6.258  13.068  0.00  0.00    +0.000 NA
ATOM      4  C   UNL     1      45.484   6.854  12.085  0.00  0.00    +0.000 A 
ATOM      5  C   UNL     1      45.706   6.171  10.882  0.00  0.00    +0.000 A 
ATOM      6  N   UNL     1      45.238   4.928  10.607  0.00  0.00    +0.000 NA
ENDROOT
BRANCH   1   8
ATOM      7  N   UNL     1      43.695   2.282  12.504  0.00  0.00    +0.000 N 
ATOM      8  C   UNL     1      43.964   3.003  11.373  0.00  0.00    +0.000 C 
ATOM      9  O   UNL     1      43.767   2.554  10.252  0.00  0.00    +0.000 OA
ATOM     10  H   UNL     1      43.322   1.346  12.428  0.00  0.00    +0.000 HD
ATOM     11  H   UNL     1      43.865   2.693  13.416  0.00  0.00    +0.000 HD
ENDBRANCH   1   8
BRANCH   4  12
ATOM     12  C   UNL     1      46.049   8.250  12.326  0.00  0.00    +0.000 C 
ATOM     13  C   UNL     1      45.089   9.352  12.762  0.00  0.00    +0.000 C 
ATOM     14  C   UNL     1      45.617   9.350  11.363  0.00  0.00    +0.000 C 
BRANCH  12  15
ATOM     15  C   UNL     1      47.486   8.336  12.839  0.00  0.00    +0.000 C 
ATOM     16  C   UNL     1      48.506   8.576  11.716  0.00  0.00    +0.000 C 
ATOM     17  C   UNL     1      49.876   8.873  12.320  0.00  0.00    +0.000 C 
ATOM     18  C   UNL     1      50.346   7.736  13.227  0.00  0.00    +0.000 C 
ATOM     19  C   UNL     1      49.302   7.346  14.275  0.00  0.00    +0.000 C 
ATOM     20  C   UNL     1      47.915   7.118  13.668  0.00  0.00    +0.000 C 
ENDBRANCH  12  15
ENDBRANCH   4  12
TORSDOF 3
ENDMDL
MODEL 9
REMARK VINA RESULT:    -5.234      4.606      6.303
REMARK INTER + INTRA:          -6.064
REMARK INTER:                  -5.935
REMARK INTRA:                  -0.129
REMARK UNBOUND:                 0.088
REMARK  Name = 
REMARK  3 active torsions:
REMARK  status: ('A' for Active; 'I' for Inactive)
REMARK    1  A    between atoms: C_2  and  C_4
REMARK    2  A    between atoms: C_7  and  C_8
REMARK    3  A    between atoms: C_8  and  C_9
REMARK                            x       y       z     vdW  Elec       q    Type
REMARK                         _______ _______ _______ _____ _____    ______ ____
ROOT
ATOM      1  C   UNL     1      45.054   5.574  13.069  0.00  0.00    +0.000 A 
ATOM      2  C   UNL     1      46.276   4.997  13.365  0.00  0.00    +0.000 A 
ATOM      3  N   UNL     1      47.438   5.703  13.323  0.00  0.00    +0.000 NA
ATOM      4  C   UNL     1      47.349   7.019  12.985  0.00  0.00    +0.000 A 
ATOM      5  C   UNL     1      46.095   7.571  12.692  0.00  0.00    +0.000 A 
ATOM      6  N   UNL     1      44.927   6.882  12.720  0.00  0.00    +0.000 NA
ENDROOT
BRANCH   1   8
ATOM      7  N   UNL     1      42.646   5.471  13.031  0.00  0.00    +0.000 N 
ATOM      8  C   UNL     1      43.810   4.759  13.121  0.00  0.00    +0.000 C 
ATOM      9  O   UNL     1      43.821   3.540  13.235  0.00  0.00    +0.000 OA
ATOM     10  H   UNL     1      41.757   4.990  13.058  0.00  0.00    +0.000 HD
ATOM     11  H   UNL     1      42.679   6.480  12.931  0.00  0.00    +0.000 HD
ENDBRANCH   1   8
BRANCH   4  12
ATOM     12  C   UNL     1      48.623   7.855  12.926  0.00  0.00    +0.000 C 
ATOM     13  C   UNL     1      48.873   8.703  11.683  0.00  0.00    +0.000 C 
ATOM     14  C   UNL     1      49.669   7.454  11.891  0.00  0.00    +0.000 C 
BRANCH  12  15
ATOM     15  C   UNL     1      49.163   8.388  14.252  0.00  0.00    +0.000 C 
ATOM     16  C   UNL     1      50.082   7.386  14.967  0.00  0.00    +0.000 C 
ATOM     17  C   UNL     1      50.756   8.064  16.157  0.00  0.00    +0.000 C 
ATOM     18  C   UNL     1      49.726   8.628  17.136  0.00  0.00    +0.000 C 
ATOM     19  C   UNL     1      48.686   9.516  16.452  0.00  0.00    +0.000 C 
ATOM     20  C   UNL     1      48.066   8.854  15.219  0.00  0.00    +0.000 C 
ENDBRANCH  12  15
ENDBRANCH   4  12
TORSDOF 3
ENDMDL
