MODEL 1
REMARK VINA RESULT:    -8.390      0.000      0.000
REMARK INTER + INTRA:         -12.550
REMARK INTER:                 -11.578
REMARK INTRA:                  -0.972
REMARK UNBOUND:                -0.972
REMARK  Name = 
REMARK  7 active torsions:
REMARK  status: ('A' for Active; 'I' for Inactive)
REMARK    1  A    between atoms: N_1  and  C_2
REMARK    2  A    between atoms: C_2  and  N_3
REMARK    3  A    between atoms: C_2  and  C_16
REMARK    4  A    between atoms: C_4  and  C_6
REMARK    5  A    between atoms: C_19  and  C_20
REMARK    6  A    between atoms: C_20  and  N_21
REMARK    7  A    between atoms: C_22  and  C_24
REMARK                            x       y       z     vdW  Elec       q    Type
REMARK                         _______ _______ _______ _____ _____    ______ ____
ROOT
ATOM      1  C   UNL     1      46.793   4.389  15.003  0.00  0.00    +0.000 C 
ENDROOT
BRANCH   1   2
ATOM      2  C   UNL     1      45.989   4.432  13.714  0.00  0.00    +0.000 A 
ATOM      3  C   UNL     1      45.390   5.625  13.286  0.00  0.00    +0.000 A 
ATOM      4  C   UNL     1      44.683   5.679  12.077  0.00  0.00    +0.000 A 
ATOM      5  C   UNL     1      44.545   4.538  11.274  0.00  0.00    +0.000 A 
ATOM      6  C   UNL     1      45.132   3.342  11.703  0.00  0.00    +0.000 A 
ATOM      7  C   UNL     1      45.840   3.288  12.907  0.00  0.00    +0.000 A 
BRANCH   5   8
ATOM      8  C   UNL     1      43.777   4.583   9.979  0.00  0.00    +0.000 C 
BRANCH   8   9
ATOM      9  N   UNL     1      44.346   3.728   8.967  0.00  0.00    +0.000 N 
ATOM     10  C   UNL     1      45.469   4.102   8.260  0.00  0.00    +0.000 C 
ATOM     11  O   UNL     1      46.050   5.169   8.442  0.00  0.00    +0.000 OA
ATOM     12  H   UNL     1      43.824   2.941   8.591  0.00  0.00    +0.000 HD
BRANCH  10  13
ATOM     13  C   UNL     1      45.973   3.059   7.252  0.00  0.00    +0.000 C 
ATOM     14  C   UNL     1      46.369   1.747   7.900  0.00  0.00    +0.000 C 
ATOM     15  C   UNL     1      47.238   1.102   6.838  0.00  0.00    +0.000 C 
ATOM     16  C   UNL     1      47.880   2.268   6.100  0.00  0.00    +0.000 C 
ATOM     17  N   UNL     1      47.223   3.491   6.574  0.00  0.00    +0.000 NA
ATOM     18  H   UNL     1      46.977   4.088   5.783  0.00  0.00    +0.000 HD
ENDBRANCH  10  13
ENDBRANCH   8   9
ENDBRANCH   5   8
ENDBRANCH   1   2
BRANCH   1  19
ATOM     19  N   UNL     1      47.601   5.568  15.130  0.00  0.00    +0.000 N 
ATOM     20  C   UNL     1      48.597   5.696  16.065  0.00  0.00    +0.000 C 
ATOM     21  O   UNL     1      48.933   4.770  16.801  0.00  0.00    +0.000 OA
ATOM     22  H   UNL     1      47.134   6.425  14.851  0.00  0.00    +0.000 HD
BRANCH  20  23
ATOM     23  C   UNL     1      49.339   6.961  16.052  0.00  0.00    +0.000 A 
ATOM     24  C   UNL     1      49.688   7.564  17.252  0.00  0.00    +0.000 A 
ATOM     25  S   UNL     1      50.583   9.003  17.057  0.00  0.00    +0.000 S 
ATOM     26  C   UNL     1      50.495   8.893  15.361  0.00  0.00    +0.000 A 
ATOM     27  N   UNL     1      51.038   9.849  14.565  0.00  0.00    +0.000 NA
ATOM     28  C   UNL     1      50.871   9.650  13.297  0.00  0.00    +0.000 A 
ATOM     29  N   UNL     1      50.221   8.570  12.758  0.00  0.00    +0.000 N 
ATOM     30  C   UNL     1      49.682   7.566  13.523  0.00  0.00    +0.000 A 
ATOM     31  O   UNL     1      49.140   6.585  13.017  0.00  0.00    +0.000 OA
ATOM     32  C   UNL     1      49.819   7.756  14.952  0.00  0.00    +0.000 A 
ATOM     33  H   UNL     1      50.137   8.466  11.758  0.00  0.00    +0.000 HD
ENDBRANCH  20  23
ENDBRANCH   1  19
BRANCH   1  34
ATOM     34  N   UNL     1      47.702   3.262  15.004  0.00  0.00    +0.000 NA
ATOM     35  H   UNL     1      47.373   2.633  14.266  0.00  0.00    +0.000 HD
ATOM     36  H   UNL     1      47.558   2.747  15.867  0.00  0.00    +0.000 HD
ENDBRANCH   1  34
TORSDOF 7
ENDMDL
MODEL 2
REMARK VINA RESULT:    -8.242      2.086      3.773
REMARK INTER + INTRA:         -12.345
REMARK INTER:                 -11.323
REMARK INTRA:                  -1.021
REMARK UNBOUND:                -0.972
REMARK  Name = 
REMARK  7 active torsions:
REMARK  status: ('A' for Active; 'I' for Inactive)
REMARK    1  A    between atoms: N_1  and  C_2
REMARK    2  A    between atoms: C_2  and  N_3
REMARK    3  A    between atoms: C_2  and  C_16
REMARK    4  A    between atoms: C_4  and  C_6
REMARK    5  A    between atoms: C_19  and  C_20
REMARK    6  A    between atoms: C_20  and  N_21
REMARK    7  A    between atoms: C_22  and  C_24
REMARK                            x       y       z     vdW  Elec       q    Type
REMARK                         _______ _______ _______ _____ _____    ______ ____
ROOT
ATOM      1  C   UNL     1      47.380   8.040  13.634  0.00  0.00    +0.000 C 
ENDROOT
BRANCH   1   2
ATOM      2  C   UNL     1      46.409   7.242  12.781  0.00  0.00    +0.000 A 
ATOM      3  C   UNL     1      45.264   7.849  12.245  0.00  0.00    +0.000 A 
ATOM      4  C   UNL     1      44.388   7.127  11.423  0.00  0.00    +0.000 A 
ATOM      5  C   UNL     1      44.626   5.777  11.130  0.00  0.00    +0.000 A 
ATOM      6  C   UNL     1      45.762   5.164  11.671  0.00  0.00    +0.000 A 
ATOM      7  C   UNL     1      46.638   5.884  12.488  0.00  0.00    +0.000 A 
BRANCH   5   8
ATOM      8  C   UNL     1      43.684   4.989  10.258  0.00  0.00    +0.000 C 
BRANCH   8   9
ATOM      9  N   UNL     1      44.339   4.419   9.107  0.00  0.00    +0.000 N 
ATOM     10  C   UNL     1      44.658   3.079   9.054  0.00  0.00    +0.000 C 
ATOM     11  O   UNL     1      44.412   2.295   9.967  0.00  0.00    +0.000 OA
ATOM     12  H   UNL     1      44.777   5.010   8.407  0.00  0.00    +0.000 HD
BRANCH  10  13
ATOM     13  C   UNL     1      45.309   2.623   7.740  0.00  0.00    +0.000 C 
ATOM     14  C   UNL     1      46.423   1.615   7.945  0.00  0.00    +0.000 C 
ATOM     15  C   UNL     1      47.184   1.690   6.636  0.00  0.00    +0.000 C 
ATOM     16  C   UNL     1      46.993   3.123   6.157  0.00  0.00    +0.000 C 
ATOM     17  N   UNL     1      45.990   3.739   7.033  0.00  0.00    +0.000 NA
ATOM     18  H   UNL     1      45.300   4.245   6.477  0.00  0.00    +0.000 HD
ENDBRANCH  10  13
ENDBRANCH   8   9
ENDBRANCH   5   8
ENDBRANCH   1   2
BRANCH   1  19
ATOM     19  N   UNL     1      47.733   7.305  14.815  0.00  0.00    +0.000 N 
ATOM     20  C   UNL     1      48.985   6.786  15.028  0.00  0.00    +0.000 C 
ATOM     21  O   UNL     1      49.924   6.995  14.263  0.00  0.00    +0.000 OA
ATOM     22  H   UNL     1      46.959   6.801  15.238  0.00  0.00    +0.000 HD
BRANCH  20  23
ATOM     23  C   UNL     1      49.183   6.072  16.294  0.00  0.00    +0.000 A 
ATOM     24  C   UNL     1      50.173   6.491  17.171  0.00  0.00    +0.000 A 
ATOM     25  S   UNL     1      50.240   5.581  18.611  0.00  0.00    +0.000 S 
ATOM     26  C   UNL     1      48.977   4.565  18.092  0.00  0.00    +0.000 A 
ATOM     27  N   UNL     1      48.552   3.525  18.854  0.00  0.00    +0.000 NA
ATOM     28  C   UNL     1      47.605   2.822  18.323  0.00  0.00    +0.000 A 
ATOM     29  N   UNL     1      47.037   3.079  17.102  0.00  0.00    +0.000 N 
ATOM     30  C   UNL     1      47.414   4.136  16.311  0.00  0.00    +0.000 A 
ATOM     31  O   UNL     1      46.861   4.372  15.238  0.00  0.00    +0.000 OA
ATOM     32  C   UNL     1      48.492   4.939  16.851  0.00  0.00    +0.000 A 
ATOM     33  H   UNL     1      46.289   2.500  16.749  0.00  0.00    +0.000 HD
ENDBRANCH  20  23
ENDBRANCH   1  19
BRANCH   1  34
ATOM     34  N   UNL     1      46.774   9.276  14.083  0.00  0.00    +0.000 NA
ATOM     35  H   UNL     1      46.558   9.809  13.235  0.00  0.00    +0.000 HD
ATOM     36  H   UNL     1      47.489   9.819  14.555  0.00  0.00    +0.000 HD
ENDBRANCH   1  34
TORSDOF 7
ENDMDL
MODEL 3
REMARK VINA RESULT:    -8.048      1.611      2.398
REMARK INTER + INTRA:         -12.077
REMARK INTER:                 -11.105
REMARK INTRA:                  -0.972
REMARK UNBOUND:                -0.972
REMARK  Name = 
REMARK  7 active torsions:
REMARK  status: ('A' for Active; 'I' for Inactive)
REMARK    1  A    between atoms: N_1  and  C_2
REMARK    2  A    between atoms: C_2  and  N_3
REMARK    3  A    between atoms: C_2  and  C_16
REMARK    4  A    between atoms: C_4  and  C_6
REMARK    5  A    between atoms: C_19  and  C_20
REMARK    6  A    between atoms: C_20  and  N_21
REMARK    7  A    between atoms: C_22  and  C_24
REMARK                            x       y       z     vdW  Elec       q    Type
REMARK                         _______ _______ _______ _____ _____    ______ ____
ROOT
ATOM      1  C   UNL     1      46.823   4.285  14.916  0.00  0.00    +0.000 C 
ENDROOT
BRANCH   1   2
ATOM      2  C   UNL     1      46.014   4.451  13.640  0.00  0.00    +0.000 A 
ATOM      3  C   UNL     1      45.668   5.728  13.175  0.00  0.00    +0.000 A 
ATOM      4  C   UNL     1      44.959   5.887  11.977  0.00  0.00    +0.000 A 
ATOM      5  C   UNL     1      44.563   4.773  11.223  0.00  0.00    +0.000 A 
ATOM      6  C   UNL     1      44.895   3.496  11.689  0.00  0.00    +0.000 A 
ATOM      7  C   UNL     1      45.606   3.337  12.882  0.00  0.00    +0.000 A 
BRANCH   5   8
ATOM      8  C   UNL     1      43.789   4.934   9.941  0.00  0.00    +0.000 C 
BRANCH   8   9
ATOM      9  N   UNL     1      44.269   4.070   8.891  0.00  0.00    +0.000 N 
ATOM     10  C   UNL     1      45.459   4.321   8.243  0.00  0.00    +0.000 C 
ATOM     11  O   UNL     1      46.178   5.281   8.510  0.00  0.00    +0.000 OA
ATOM     12  H   UNL     1      43.656   3.389   8.451  0.00  0.00    +0.000 HD
BRANCH  10  13
ATOM     13  C   UNL     1      45.848   3.280   7.183  0.00  0.00    +0.000 C 
ATOM     14  C   UNL     1      46.513   2.051   7.772  0.00  0.00    +0.000 C 
ATOM     15  C   UNL     1      47.202   1.438   6.568  0.00  0.00    +0.000 C 
ATOM     16  C   UNL     1      47.542   2.621   5.671  0.00  0.00    +0.000 C 
ATOM     17  N   UNL     1      46.871   3.796   6.237  0.00  0.00    +0.000 NA
ATOM     18  H   UNL     1      46.399   4.322   5.499  0.00  0.00    +0.000 HD
ENDBRANCH  10  13
ENDBRANCH   8   9
ENDBRANCH   5   8
ENDBRANCH   1   2
BRANCH   1  19
ATOM     19  N   UNL     1      47.625   5.450  15.157  0.00  0.00    +0.000 N 
ATOM     20  C   UNL     1      48.403   5.605  16.276  0.00  0.00    +0.000 C 
ATOM     21  O   UNL     1      48.544   4.713  17.109  0.00  0.00    +0.000 OA
ATOM     22  H   UNL     1      47.257   6.301  14.744  0.00  0.00    +0.000 HD
BRANCH  20  23
ATOM     23  C   UNL     1      49.173   6.851  16.362  0.00  0.00    +0.000 A 
ATOM     24  C   UNL     1      50.109   7.149  15.382  0.00  0.00    +0.000 A 
ATOM     25  S   UNL     1      50.882   8.652  15.611  0.00  0.00    +0.000 S 
ATOM     26  C   UNL     1      50.023   8.935  17.053  0.00  0.00    +0.000 A 
ATOM     27  N   UNL     1      50.240  10.053  17.792  0.00  0.00    +0.000 NA
ATOM     28  C   UNL     1      49.538  10.123  18.877  0.00  0.00    +0.000 A 
ATOM     29  N   UNL     1      48.629   9.179  19.278  0.00  0.00    +0.000 N 
ATOM     30  C   UNL     1      48.356   8.049  18.548  0.00  0.00    +0.000 A 
ATOM     31  O   UNL     1      47.506   7.235  18.905  0.00  0.00    +0.000 OA
ATOM     32  C   UNL     1      49.137   7.910  17.336  0.00  0.00    +0.000 A 
ATOM     33  H   UNL     1      48.102   9.300  20.130  0.00  0.00    +0.000 HD
ENDBRANCH  20  23
ENDBRANCH   1  19
BRANCH   1  34
ATOM     34  N   UNL     1      47.738   3.169  14.801  0.00  0.00    +0.000 NA
ATOM     35  H   UNL     1      47.596   2.782  13.864  0.00  0.00    +0.000 HD
ATOM     36  H   UNL     1      47.422   2.441  15.434  0.00  0.00    +0.000 HD
ENDBRANCH   1  34
TORSDOF 7
ENDMDL
MODEL 4
REMARK VINA RESULT:    -7.942      5.456      9.016
REMARK INTER + INTRA:         -11.931
REMARK INTER:                 -11.060
REMARK INTRA:                  -0.872
REMARK UNBOUND:                -0.972
REMARK  Name = 
REMARK  7 active torsions:
REMARK  status: ('A' for Active; 'I' for Inactive)
REMARK    1  A    between atoms: N_1  and  C_2
REMARK    2  A    between atoms: C_2  and  N_3
REMARK    3  A    between atoms: C_2  and  C_16
REMARK    4  A    between atoms: C_4  and  C_6
REMARK    5  A    between atoms: C_19  and  C_20
REMARK    6  A    between atoms: C_20  and  N_21
REMARK    7  A    between atoms: C_22  and  C_24
REMARK                            x       y       z     vdW  Elec       q    Type
REMARK                         _______ _______ _______ _____ _____    ______ ____
ROOT
ATOM      1  C   UNL     1      47.325   3.711  17.008  0.00  0.00    +0.000 C 
ENDROOT
BRANCH   1   2
ATOM      2  C   UNL     1      48.806   3.417  17.184  0.00  0.00    +0.000 A 
ATOM      3  C   UNL     1      49.687   4.421  17.611  0.00  0.00    +0.000 A 
ATOM      4  C   UNL     1      51.045   4.144  17.814  0.00  0.00    +0.000 A 
ATOM      5  C   UNL     1      51.559   2.860  17.582  0.00  0.00    +0.000 A 
ATOM      6  C   UNL     1      50.685   1.858  17.146  0.00  0.00    +0.000 A 
ATOM      7  C   UNL     1      49.330   2.133  16.945  0.00  0.00    +0.000 A 
BRANCH   5   8
ATOM      8  C   UNL     1      53.019   2.555  17.786  0.00  0.00    +0.000 C 
BRANCH   8   9
ATOM      9  N   UNL     1      53.237   1.276  18.415  0.00  0.00    +0.000 N 
ATOM     10  C   UNL     1      54.026   0.312  17.826  0.00  0.00    +0.000 C 
ATOM     11  O   UNL     1      54.588   0.474  16.746  0.00  0.00    +0.000 OA
ATOM     12  H   UNL     1      52.651   0.964  19.185  0.00  0.00    +0.000 HD
BRANCH  10  13
ATOM     13  C   UNL     1      54.193  -0.975  18.648  0.00  0.00    +0.000 C 
ATOM     14  C   UNL     1      54.753  -2.129  17.840  0.00  0.00    +0.000 C 
ATOM     15  C   UNL     1      54.383  -3.334  18.683  0.00  0.00    +0.000 C 
ATOM     16  C   UNL     1      53.097  -2.933  19.392  0.00  0.00    +0.000 C 
ATOM     17  N   UNL     1      52.892  -1.503  19.135  0.00  0.00    +0.000 NA
ATOM     18  H   UNL     1      52.647  -1.021  20.002  0.00  0.00    +0.000 HD
ENDBRANCH  10  13
ENDBRANCH   8   9
ENDBRANCH   5   8
ENDBRANCH   1   2
BRANCH   1  19
ATOM     19  N   UNL     1      47.124   4.664  15.953  0.00  0.00    +0.000 N 
ATOM     20  C   UNL     1      47.161   4.328  14.624  0.00  0.00    +0.000 C 
ATOM     21  O   UNL     1      47.275   3.166  14.241  0.00  0.00    +0.000 OA
ATOM     22  H   UNL     1      47.411   5.609  16.187  0.00  0.00    +0.000 HD
BRANCH  20  23
ATOM     23  C   UNL     1      46.922   5.420  13.673  0.00  0.00    +0.000 A 
ATOM     24  C   UNL     1      47.957   6.283  13.345  0.00  0.00    +0.000 A 
ATOM     25  S   UNL     1      47.521   7.466  12.196  0.00  0.00    +0.000 S 
ATOM     26  C   UNL     1      45.920   6.892  12.132  0.00  0.00    +0.000 A 
ATOM     27  N   UNL     1      44.987   7.495  11.352  0.00  0.00    +0.000 NA
ATOM     28  C   UNL     1      43.807   6.970  11.424  0.00  0.00    +0.000 A 
ATOM     29  N   UNL     1      43.484   5.885  12.197  0.00  0.00    +0.000 N 
ATOM     30  C   UNL     1      44.400   5.226  12.978  0.00  0.00    +0.000 A 
ATOM     31  O   UNL     1      44.098   4.229  13.631  0.00  0.00    +0.000 OA
ATOM     32  C   UNL     1      45.733   5.793  12.953  0.00  0.00    +0.000 A 
ATOM     33  H   UNL     1      42.546   5.514  12.197  0.00  0.00    +0.000 HD
ENDBRANCH  20  23
ENDBRANCH   1  19
BRANCH   1  34
ATOM     34  N   UNL     1      46.772   4.301  18.209  0.00  0.00    +0.000 NA
ATOM     35  H   UNL     1      47.063   5.283  18.201  0.00  0.00    +0.000 HD
ATOM     36  H   UNL     1      47.253   3.895  19.005  0.00  0.00    +0.000 HD
ENDBRANCH   1  34
TORSDOF 7
ENDMDL
MODEL 5
REMARK VINA RESULT:    -7.655      2.490      2.783
REMARK INTER + INTRA:         -11.535
REMARK INTER:                 -10.446
REMARK INTRA:                  -1.089
REMARK UNBOUND:                -0.972
REMARK  Name = 
REMARK  7 active torsions:
REMARK  status: ('A' for Active; 'I' for Inactive)
REMARK    1  A    between atoms: N_1  and  C_2
REMARK    2  A    between atoms: C_2  and  N_3
REMARK    3  A    between atoms: C_2  and  C_16
REMARK    4  A    between atoms: C_4  and  C_6
REMARK    5  A    between atoms: C_19  and  C_20
REMARK    6  A    between atoms: C_20  and  N_21
REMARK    7  A    between atoms: C_22  and  C_24
REMARK                            x       y       z     vdW  Elec       q    Type
REMARK                         _______ _______ _______ _____ _____    ______ ____
ROOT
ATOM      1  C   UNL     1      47.142   4.139  15.605  0.00  0.00    +0.000 C 
ENDROOT
BRANCH   1   2
ATOM      2  C   UNL     1      46.704   4.660  14.247  0.00  0.00    +0.000 A 
ATOM      3  C   UNL     1      47.337   5.771  13.670  0.00  0.00    +0.000 A 
ATOM      4  C   UNL     1      46.965   6.228  12.399  0.00  0.00    +0.000 A 
ATOM      5  C   UNL     1      45.941   5.597  11.680  0.00  0.00    +0.000 A 
ATOM      6  C   UNL     1      45.299   4.495  12.255  0.00  0.00    +0.000 A 
ATOM      7  C   UNL     1      45.672   4.036  13.522  0.00  0.00    +0.000 A 
BRANCH   5   8
ATOM      8  C   UNL     1      45.525   6.089  10.318  0.00  0.00    +0.000 C 
BRANCH   8   9
ATOM      9  N   UNL     1      45.910   5.188   9.261  0.00  0.00    +0.000 N 
ATOM     10  C   UNL     1      45.021   4.275   8.737  0.00  0.00    +0.000 C 
ATOM     11  O   UNL     1      43.861   4.169   9.127  0.00  0.00    +0.000 OA
ATOM     12  H   UNL     1      46.888   5.044   9.025  0.00  0.00    +0.000 HD
BRANCH  10  13
ATOM     13  C   UNL     1      45.575   3.423   7.586  0.00  0.00    +0.000 C 
ATOM     14  C   UNL     1      46.175   2.110   8.052  0.00  0.00    +0.000 C 
ATOM     15  C   UNL     1      47.037   1.703   6.872  0.00  0.00    +0.000 C 
ATOM     16  C   UNL     1      47.475   3.017   6.240  0.00  0.00    +0.000 C 
ATOM     17  N   UNL     1      46.709   4.085   6.891  0.00  0.00    +0.000 NA
ATOM     18  H   UNL     1      46.335   4.728   6.191  0.00  0.00    +0.000 HD
ENDBRANCH  10  13
ENDBRANCH   8   9
ENDBRANCH   5   8
ENDBRANCH   1   2
BRANCH   1  19
ATOM     19  N   UNL     1      47.999   5.090  16.255  0.00  0.00    +0.000 N 
ATOM     20  C   UNL     1      47.837   5.472  17.563  0.00  0.00    +0.000 C 
ATOM     21  O   UNL     1      47.003   4.955  18.302  0.00  0.00    +0.000 OA
ATOM     22  H   UNL     1      48.401   5.782  15.631  0.00  0.00    +0.000 HD
BRANCH  20  23
ATOM     23  C   UNL     1      48.808   6.443  18.079  0.00  0.00    +0.000 A 
ATOM     24  C   UNL     1      48.359   7.615  18.670  0.00  0.00    +0.000 A 
ATOM     25  S   UNL     1      49.615   8.611  19.253  0.00  0.00    +0.000 S 
ATOM     26  C   UNL     1      50.805   7.530  18.693  0.00  0.00    +0.000 A 
ATOM     27  N   UNL     1      52.127   7.802  18.838  0.00  0.00    +0.000 NA
ATOM     28  C   UNL     1      52.917   6.906  18.342  0.00  0.00    +0.000 A 
ATOM     29  N   UNL     1      52.499   5.755  17.725  0.00  0.00    +0.000 N 
ATOM     30  C   UNL     1      51.174   5.425  17.583  0.00  0.00    +0.000 A 
ATOM     31  O   UNL     1      50.822   4.367  17.064  0.00  0.00    +0.000 OA
ATOM     32  C   UNL     1      50.247   6.411  18.100  0.00  0.00    +0.000 A 
ATOM     33  H   UNL     1      53.168   5.088  17.372  0.00  0.00    +0.000 HD
ENDBRANCH  20  23
ENDBRANCH   1  19
BRANCH   1  34
ATOM     34  N   UNL     1      47.909   2.919  15.465  0.00  0.00    +0.000 NA
ATOM     35  H   UNL     1      48.166   2.860  14.476  0.00  0.00    +0.000 HD
ATOM     36  H   UNL     1      47.280   2.138  15.617  0.00  0.00    +0.000 HD
ENDBRANCH   1  34
TORSDOF 7
ENDMDL
MODEL 6
REMARK VINA RESULT:    -7.655      2.495      4.040
REMARK INTER + INTRA:         -11.535
REMARK INTER:                 -10.325
REMARK INTRA:                  -1.210
REMARK UNBOUND:                -0.972
REMARK  Name = 
REMARK  7 active torsions:
REMARK  status: ('A' for Active; 'I' for Inactive)
REMARK    1  A    between atoms: N_1  and  C_2
REMARK    2  A    between atoms: C_2  and  N_3
REMARK    3  A    between atoms: C_2  and  C_16
REMARK    4  A    between atoms: C_4  and  C_6
REMARK    5  A    between atoms: C_19  and  C_20
REMARK    6  A    between atoms: C_20  and  N_21
REMARK    7  A    between atoms: C_22  and  C_24
REMARK                            x       y       z     vdW  Elec       q    Type
REMARK                         _______ _______ _______ _____ _____    ______ ____
ROOT
ATOM      1  C   UNL     1      48.169   8.441  14.126  0.00  0.00    +0.000 C 
ENDROOT
BRANCH   1   2
ATOM      2  C   UNL     1      47.132   7.708  13.291  0.00  0.00    +0.000 A 
ATOM      3  C   UNL     1      47.307   6.356  12.962  0.00  0.00    +0.000 A 
ATOM      4  C   UNL     1      46.334   5.665  12.228  0.00  0.00    +0.000 A 
ATOM      5  C   UNL     1      45.169   6.312  11.792  0.00  0.00    +0.000 A 
ATOM      6  C   UNL     1      44.995   7.664  12.108  0.00  0.00    +0.000 A 
ATOM      7  C   UNL     1      45.965   8.353  12.843  0.00  0.00    +0.000 A 
BRANCH   5   8
ATOM      8  C   UNL     1      44.123   5.581  10.992  0.00  0.00    +0.000 C 
BRANCH   8   9
ATOM      9  N   UNL     1      44.672   4.918   9.836  0.00  0.00    +0.000 N 
ATOM     10  C   UNL     1      44.434   3.582   9.595  0.00  0.00    +0.000 C 
ATOM     11  O   UNL     1      43.750   2.879  10.336  0.00  0.00    +0.000 OA
ATOM     12  H   UNL     1      45.417   5.343   9.291  0.00  0.00    +0.000 HD
BRANCH  10  13
ATOM     13  C   UNL     1      45.051   3.040   8.298  0.00  0.00    +0.000 C 
ATOM     14  C   UNL     1      45.956   1.845   8.522  0.00  0.00    +0.000 C 
ATOM     15  C   UNL     1      46.776   1.806   7.247  0.00  0.00    +0.000 C 
ATOM     16  C   UNL     1      46.866   3.258   6.798  0.00  0.00    +0.000 C 
ATOM     17  N   UNL     1      45.951   4.028   7.648  0.00  0.00    +0.000 NA
ATOM     18  H   UNL     1      45.387   4.660   7.077  0.00  0.00    +0.000 HD
ENDBRANCH  10  13
ENDBRANCH   8   9
ENDBRANCH   5   8
ENDBRANCH   1   2
BRANCH   1  19
ATOM     19  N   UNL     1      48.117   8.001  15.491  0.00  0.00    +0.000 N 
ATOM     20  C   UNL     1      48.960   8.477  16.464  0.00  0.00    +0.000 C 
ATOM     21  O   UNL     1      49.759   9.387  16.256  0.00  0.00    +0.000 OA
ATOM     22  H   UNL     1      47.788   7.048  15.609  0.00  0.00    +0.000 HD
BRANCH  20  23
ATOM     23  C   UNL     1      48.765   7.932  17.812  0.00  0.00    +0.000 A 
ATOM     24  C   UNL     1      48.532   8.794  18.874  0.00  0.00    +0.000 A 
ATOM     25  S   UNL     1      48.285   7.995  20.361  0.00  0.00    +0.000 S 
ATOM     26  C   UNL     1      48.527   6.471  19.643  0.00  0.00    +0.000 A 
ATOM     27  N   UNL     1      48.489   5.332  20.382  0.00  0.00    +0.000 NA
ATOM     28  C   UNL     1      48.717   4.250  19.711  0.00  0.00    +0.000 A 
ATOM     29  N   UNL     1      48.966   4.207  18.363  0.00  0.00    +0.000 N 
ATOM     30  C   UNL     1      48.984   5.329  17.572  0.00  0.00    +0.000 A 
ATOM     31  O   UNL     1      49.167   5.264  16.358  0.00  0.00    +0.000 OA
ATOM     32  C   UNL     1      48.760   6.572  18.282  0.00  0.00    +0.000 A 
ATOM     33  H   UNL     1      49.122   3.327  17.896  0.00  0.00    +0.000 HD
ENDBRANCH  20  23
ENDBRANCH   1  19
BRANCH   1  34
ATOM     34  N   UNL     1      47.903   9.864  14.141  0.00  0.00    +0.000 NA
ATOM     35  H   UNL     1      48.217  10.219  13.232  0.00  0.00    +0.000 HD
ATOM     36  H   UNL     1      48.530  10.290  14.816  0.00  0.00    +0.000 HD
ENDBRANCH   1  34
TORSDOF 7
ENDMDL
MODEL 7
REMARK VINA RESULT:    -7.615      2.611      3.904
REMARK INTER + INTRA:         -11.480
REMARK INTER:                 -10.652
REMARK INTRA:                  -0.828
REMARK UNBOUND:                -0.972
REMARK  Name = 
REMARK  7 active torsions:
REMARK  status: ('A' for Active; 'I' for Inactive)
REMARK    1  A    between atoms: N_1  and  C_2
REMARK    2  A    between atoms: C_2  and  N_3
REMARK    3  A    between atoms: C_2  and  C_16
REMARK    4  A    between atoms: C_4  and  C_6
REMARK    5  A    between atoms: C_19  and  C_20
REMARK    6  A    between atoms: C_20  and  N_21
REMARK    7  A    between atoms: C_22  and  C_24
REMARK                            x       y       z     vdW  Elec       q    Type
REMARK                         _______ _______ _______ _____ _____    ______ ____
ROOT
ATOM      1  C   UNL     1      47.582   7.278  13.757  0.00  0.00    +0.000 C 
ENDROOT
BRANCH   1   2
ATOM      2  C   UNL     1      46.557   6.636  12.837  0.00  0.00    +0.000 A 
ATOM      3  C   UNL     1      46.676   6.750  11.445  0.00  0.00    +0.000 A 
ATOM      4  C   UNL     1      45.757   6.124  10.593  0.00  0.00    +0.000 A 
ATOM      5  C   UNL     1      44.686   5.382  11.111  0.00  0.00    +0.000 A 
ATOM      6  C   UNL     1      44.557   5.274  12.501  0.00  0.00    +0.000 A 
ATOM      7  C   UNL     1      45.476   5.895  13.351  0.00  0.00    +0.000 A 
BRANCH   5   8
ATOM      8  C   UNL     1      43.686   4.716  10.204  0.00  0.00    +0.000 C 
BRANCH   8   9
ATOM      9  N   UNL     1      44.283   4.215   8.991  0.00  0.00    +0.000 N 
ATOM     10  C   UNL     1      45.001   3.038   8.979  0.00  0.00    +0.000 C 
ATOM     11  O   UNL     1      45.177   2.350   9.981  0.00  0.00    +0.000 OA
ATOM     12  H   UNL     1      44.384   4.808   8.172  0.00  0.00    +0.000 HD
BRANCH  10  13
ATOM     13  C   UNL     1      45.531   2.621   7.599  0.00  0.00    +0.000 C 
ATOM     14  C   UNL     1      46.666   1.618   7.675  0.00  0.00    +0.000 C 
ATOM     15  C   UNL     1      47.302   1.733   6.303  0.00  0.00    +0.000 C 
ATOM     16  C   UNL     1      47.058   3.176   5.881  0.00  0.00    +0.000 C 
ATOM     17  N   UNL     1      46.136   3.761   6.861  0.00  0.00    +0.000 NA
ATOM     18  H   UNL     1      45.394   4.274   6.384  0.00  0.00    +0.000 HD
ENDBRANCH  10  13
ENDBRANCH   8   9
ENDBRANCH   5   8
ENDBRANCH   1   2
BRANCH   1  19
ATOM     19  N   UNL     1      47.614   6.602  15.023  0.00  0.00    +0.000 N 
ATOM     20  C   UNL     1      48.779   6.307  15.685  0.00  0.00    +0.000 C 
ATOM     21  O   UNL     1      49.878   6.685  15.286  0.00  0.00    +0.000 OA
ATOM     22  H   UNL     1      46.837   5.967  15.175  0.00  0.00    +0.000 HD
BRANCH  20  23
ATOM     23  C   UNL     1      48.635   5.624  16.975  0.00  0.00    +0.000 A 
ATOM     24  C   UNL     1      48.819   4.251  17.050  0.00  0.00    +0.000 A 
ATOM     25  S   UNL     1      48.658   3.626  18.629  0.00  0.00    +0.000 S 
ATOM     26  C   UNL     1      48.293   5.164  19.260  0.00  0.00    +0.000 A 
ATOM     27  N   UNL     1      48.005   5.335  20.575  0.00  0.00    +0.000 NA
ATOM     28  C   UNL     1      47.719   6.552  20.908  0.00  0.00    +0.000 A 
ATOM     29  N   UNL     1      47.711   7.614  20.042  0.00  0.00    +0.000 N 
ATOM     30  C   UNL     1      48.024   7.494  18.711  0.00  0.00    +0.000 A 
ATOM     31  O   UNL     1      48.053   8.468  17.961  0.00  0.00    +0.000 OA
ATOM     32  C   UNL     1      48.326   6.144  18.282  0.00  0.00    +0.000 A 
ATOM     33  H   UNL     1      47.494   8.544  20.369  0.00  0.00    +0.000 HD
ENDBRANCH  20  23
ENDBRANCH   1  19
BRANCH   1  34
ATOM     34  N   UNL     1      47.233   8.656  14.033  0.00  0.00    +0.000 NA
ATOM     35  H   UNL     1      46.409   8.621  14.641  0.00  0.00    +0.000 HD
ATOM     36  H   UNL     1      46.901   9.071  13.169  0.00  0.00    +0.000 HD
ENDBRANCH   1  34
TORSDOF 7
ENDMDL
MODEL 8
REMARK VINA RESULT:    -7.550      2.050      3.297
REMARK INTER + INTRA:         -11.390
REMARK INTER:                 -10.863
REMARK INTRA:                  -0.527
REMARK UNBOUND:                -0.972
REMARK  Name = 
REMARK  7 active torsions:
REMARK  status: ('A' for Active; 'I' for Inactive)
REMARK    1  A    between atoms: N_1  and  C_2
REMARK    2  A    between atoms: C_2  and  N_3
REMARK    3  A    between atoms: C_2  and  C_16
REMARK    4  A    between atoms: C_4  and  C_6
REMARK    5  A    between atoms: C_19  and  C_20
REMARK    6  A    between atoms: C_20  and  N_21
REMARK    7  A    between atoms: C_22  and  C_24
REMARK                            x       y       z     vdW  Elec       q    Type
REMARK                         _______ _______ _______ _____ _____    ______ ____
ROOT
ATOM      1  C   UNL     1      46.034   8.655  12.736  0.00  0.00    +0.000 C 
ENDROOT
BRANCH   1   2
ATOM      2  C   UNL     1      45.578   7.266  12.319  0.00  0.00    +0.000 A 
ATOM      3  C   UNL     1      46.411   6.154  12.507  0.00  0.00    +0.000 A 
ATOM      4  C   UNL     1      45.978   4.867  12.163  0.00  0.00    +0.000 A 
ATOM      5  C   UNL     1      44.707   4.662  11.608  0.00  0.00    +0.000 A 
ATOM      6  C   UNL     1      43.875   5.769  11.409  0.00  0.00    +0.000 A 
ATOM      7  C   UNL     1      44.306   7.053  11.756  0.00  0.00    +0.000 A 
BRANCH   5   8
ATOM      8  C   UNL     1      44.236   3.284  11.224  0.00  0.00    +0.000 C 
BRANCH   8   9
ATOM      9  N   UNL     1      44.935   2.758  10.077  0.00  0.00    +0.000 N 
ATOM     10  C   UNL     1      44.813   3.340   8.834  0.00  0.00    +0.000 C 
ATOM     11  O   UNL     1      44.113   4.327   8.622  0.00  0.00    +0.000 OA
ATOM     12  H   UNL     1      45.355   1.833  10.098  0.00  0.00    +0.000 HD
BRANCH  10  13
ATOM     13  C   UNL     1      45.659   2.687   7.731  0.00  0.00    +0.000 C 
ATOM     14  C   UNL     1      46.324   1.398   8.174  0.00  0.00    +0.000 C 
ATOM     15  C   UNL     1      47.422   1.221   7.143  0.00  0.00    +0.000 C 
ATOM     16  C   UNL     1      47.801   2.637   6.731  0.00  0.00    +0.000 C 
ATOM     17  N   UNL     1      46.808   3.538   7.326  0.00  0.00    +0.000 NA
ATOM     18  H   UNL     1      46.486   4.216   6.633  0.00  0.00    +0.000 HD
ENDBRANCH  10  13
ENDBRANCH   8   9
ENDBRANCH   5   8
ENDBRANCH   1   2
BRANCH   1  19
ATOM     19  N   UNL     1      46.669   8.609  14.023  0.00  0.00    +0.000 N 
ATOM     20  C   UNL     1      48.031   8.584  14.185  0.00  0.00    +0.000 C 
ATOM     21  O   UNL     1      48.809   8.695  13.241  0.00  0.00    +0.000 OA
ATOM     22  H   UNL     1      46.122   8.145  14.740  0.00  0.00    +0.000 HD
BRANCH  20  23
ATOM     23  C   UNL     1      48.517   8.552  15.569  0.00  0.00    +0.000 A 
ATOM     24  C   UNL     1      48.776   9.742  16.233  0.00  0.00    +0.000 A 
ATOM     25  S   UNL     1      49.292   9.527  17.845  0.00  0.00    +0.000 S 
ATOM     26  C   UNL     1      49.231   7.832  17.694  0.00  0.00    +0.000 A 
ATOM     27  N   UNL     1      49.594   7.022  18.721  0.00  0.00    +0.000 NA
ATOM     28  C   UNL     1      49.524   5.757  18.457  0.00  0.00    +0.000 A 
ATOM     29  N   UNL     1      49.110   5.234  17.260  0.00  0.00    +0.000 N 
ATOM     30  C   UNL     1      48.707   6.014  16.204  0.00  0.00    +0.000 A 
ATOM     31  O   UNL     1      48.298   5.523  15.154  0.00  0.00    +0.000 OA
ATOM     32  C   UNL     1      48.791   7.441  16.442  0.00  0.00    +0.000 A 
ATOM     33  H   UNL     1      49.064   4.236  17.122  0.00  0.00    +0.000 HD
ENDBRANCH  20  23
ENDBRANCH   1  19
BRANCH   1  34
ATOM     34  N   UNL     1      44.904   9.550  12.864  0.00  0.00    +0.000 NA
ATOM     35  H   UNL     1      44.985   9.976  13.792  0.00  0.00    +0.000 HD
ATOM     36  H   UNL     1      44.063   8.984  12.911  0.00  0.00    +0.000 HD
ENDBRANCH   1  34
TORSDOF 7
ENDMDL
MODEL 9
REMARK VINA RESULT:    -7.478      2.345      3.430
REMARK INTER + INTRA:         -11.292
REMARK INTER:                 -10.062
REMARK INTRA:                  -1.229
REMARK UNBOUND:                -0.972
REMARK  Name = 
REMARK  7 active torsions:
REMARK  status: ('A' for Active; 'I' for Inactive)
REMARK    1  A    between atoms: N_1  and  C_2
REMARK    2  A    between atoms: C_2  and  N_3
REMARK    3  A    between atoms: C_2  and  C_16
REMARK    4  A    between atoms: C_4  and  C_6
REMARK    5  A    between atoms: C_19  and  C_20
REMARK    6  A    between atoms: C_20  and  N_21
REMARK    7  A    between atoms: C_22  and  C_24
REMARK                            x       y       z     vdW  Elec       q    Type
REMARK                         _______ _______ _______ _____ _____    ______ ____
ROOT
ATOM      1  C   UNL     1      47.899   7.887  13.769  0.00  0.00    +0.000 C 
ENDROOT
BRANCH   1   2
ATOM      2  C   UNL     1      46.965   6.805  13.254  0.00  0.00    +0.000 A 
ATOM      3  C   UNL     1      45.937   7.118  12.353  0.00  0.00    +0.000 A 
ATOM      4  C   UNL     1      45.100   6.117  11.844  0.00  0.00    +0.000 A 
ATOM      5  C   UNL     1      45.259   4.780  12.234  0.00  0.00    +0.000 A 
ATOM      6  C   UNL     1      46.276   4.463  13.142  0.00  0.00    +0.000 A 
ATOM      7  C   UNL     1      47.114   5.462  13.648  0.00  0.00    +0.000 A 
BRANCH   5   8
ATOM      8  C   UNL     1      44.356   3.698  11.702  0.00  0.00    +0.000 C 
BRANCH   8   9
ATOM      9  N   UNL     1      44.845   3.121  10.475  0.00  0.00    +0.000 N 
ATOM     10  C   UNL     1      44.487   3.635   9.248  0.00  0.00    +0.000 C 
ATOM     11  O   UNL     1      43.741   4.603   9.119  0.00  0.00    +0.000 OA
ATOM     12  H   UNL     1      45.279   2.202  10.464  0.00  0.00    +0.000 HD
BRANCH  10  13
ATOM     13  C   UNL     1      45.131   2.935   8.042  0.00  0.00    +0.000 C 
ATOM     14  C   UNL     1      45.986   1.745   8.431  0.00  0.00    +0.000 C 
ATOM     15  C   UNL     1      46.849   1.540   7.201  0.00  0.00    +0.000 C 
ATOM     16  C   UNL     1      47.004   2.931   6.600  0.00  0.00    +0.000 C 
ATOM     17  N   UNL     1      46.086   3.817   7.324  0.00  0.00    +0.000 NA
ATOM     18  H   UNL     1      45.565   4.399   6.665  0.00  0.00    +0.000 HD
ENDBRANCH  10  13
ENDBRANCH   8   9
ENDBRANCH   5   8
ENDBRANCH   1   2
BRANCH   1  19
ATOM     19  N   UNL     1      49.019   7.301  14.450  0.00  0.00    +0.000 N 
ATOM     20  C   UNL     1      50.027   8.044  15.010  0.00  0.00    +0.000 C 
ATOM     21  O   UNL     1      49.996   9.271  15.052  0.00  0.00    +0.000 OA
ATOM     22  H   UNL     1      49.274   6.378  14.113  0.00  0.00    +0.000 HD
BRANCH  20  23
ATOM     23  C   UNL     1      51.091   7.290  15.681  0.00  0.00    +0.000 A 
ATOM     24  C   UNL     1      52.419   7.611  15.439  0.00  0.00    +0.000 A 
ATOM     25  S   UNL     1      53.524   6.667  16.331  0.00  0.00    +0.000 S 
ATOM     26  C   UNL     1      52.266   5.765  17.039  0.00  0.00    +0.000 A 
ATOM     27  N   UNL     1      52.528   4.746  17.896  0.00  0.00    +0.000 NA
ATOM     28  C   UNL     1      51.477   4.131  18.335  0.00  0.00    +0.000 A 
ATOM     29  N   UNL     1      50.188   4.457  18.001  0.00  0.00    +0.000 N 
ATOM     30  C   UNL     1      49.876   5.498  17.162  0.00  0.00    +0.000 A 
ATOM     31  O   UNL     1      48.711   5.800  16.910  0.00  0.00    +0.000 OA
ATOM     32  C   UNL     1      51.020   6.203  16.622  0.00  0.00    +0.000 A 
ATOM     33  H   UNL     1      49.410   3.946  18.390  0.00  0.00    +0.000 HD
ENDBRANCH  20  23
ENDBRANCH   1  19
BRANCH   1  34
ATOM     34  N   UNL     1      47.226   8.731  14.733  0.00  0.00    +0.000 NA
ATOM     35  H   UNL     1      47.014   8.131  15.535  0.00  0.00    +0.000 HD
ATOM     36  H   UNL     1      46.320   8.979  14.348  0.00  0.00    +0.000 HD
ENDBRANCH   1  34
TORSDOF 7
ENDMDL
