MODEL 1
REMARK VINA RESULT:    -7.579      0.000      0.000
REMARK INTER + INTRA:         -12.278
REMARK INTER:                 -11.124
REMARK INTRA:                  -1.155
REMARK UNBOUND:                -1.155
REMARK  Name = 
REMARK  8 active torsions:
REMARK  status: ('A' for Active; 'I' for Inactive)
REMARK    1  A    between atoms: C_2  and  C_3
REMARK    2  A    between atoms: C_7  and  C_8
REMARK    3  A    between atoms: C_8  and  O_9
REMARK    4  A    between atoms: O_9  and  C_10
REMARK    5  A    between atoms: C_10  and  C_11
REMARK    6  A    between atoms: C_14  and  C_15
REMARK    7  A    between atoms: C_15  and  N_16
REMARK    8  A    between atoms: C_17  and  C_19
REMARK                            x       y       z     vdW  Elec       q    Type
REMARK                         _______ _______ _______ _____ _____    ______ ____
ROOT
ATOM      1  C   UNL     1      44.799   4.148  12.583  0.00  0.00    +0.000 A 
ATOM      2  C   UNL     1      46.087   3.770  12.956  0.00  0.00    +0.000 A 
ATOM      3  C   UNL     1      47.003   4.757  13.309  0.00  0.00    +0.000 A 
ATOM      4  C   UNL     1      46.616   6.098  13.293  0.00  0.00    +0.000 A 
ATOM      5  C   UNL     1      45.318   6.382  12.882  0.00  0.00    +0.000 A 
ATOM      6  N   UNL     1      44.404   5.444  12.536  0.00  0.00    +0.000 NA
ENDROOT
BRANCH   1   7
ATOM      7  C   UNL     1      43.750   3.092  12.313  0.00  0.00    +0.000 C 
BRANCH   7   8
ATOM      8  O   UNL     1      43.339   3.062  10.941  0.00  0.00    +0.000 OA
BRANCH   8   9
ATOM      9  C   UNL     1      44.110   2.135  10.169  0.00  0.00    +0.000 C 
BRANCH   9  14
ATOM     10  C   UNL     1      46.656   2.835   7.585  0.00  0.00    +0.000 A 
ATOM     11  C   UNL     1      46.709   4.222   7.516  0.00  0.00    +0.000 A 
ATOM     12  C   UNL     1      45.876   4.955   8.354  0.00  0.00    +0.000 A 
ATOM     13  C   UNL     1      45.025   4.285   9.229  0.00  0.00    +0.000 A 
ATOM     14  C   UNL     1      45.027   2.892   9.238  0.00  0.00    +0.000 A 
ATOM     15  N   UNL     1      45.831   2.161   8.421  0.00  0.00    +0.000 NA
BRANCH  10  17
ATOM     16  N   UNL     1      48.214   1.404   6.076  0.00  0.00    +0.000 NA
ATOM     17  C   UNL     1      47.498   2.027   6.746  0.00  0.00    +0.000 C 
ENDBRANCH  10  17
ENDBRANCH   9  14
ENDBRANCH   8   9
ENDBRANCH   7   8
ENDBRANCH   1   7
BRANCH   4  18
ATOM     18  C   UNL     1      47.564   7.198  13.669  0.00  0.00    +0.000 C 
BRANCH  18  19
ATOM     19  N   UNL     1      47.903   7.139  15.067  0.00  0.00    +0.000 N 
ATOM     20  C   UNL     1      49.202   6.992  15.483  0.00  0.00    +0.000 C 
ATOM     21  O   UNL     1      50.142   6.967  14.694  0.00  0.00    +0.000 OA
ATOM     22  H   UNL     1      47.151   6.933  15.717  0.00  0.00    +0.000 HD
BRANCH  20  23
ATOM     23  C   UNL     1      49.413   6.923  16.934  0.00  0.00    +0.000 A 
ATOM     24  C   UNL     1      50.079   7.952  17.587  0.00  0.00    +0.000 A 
ATOM     25  S   UNL     1      50.212   7.715  19.273  0.00  0.00    +0.000 S 
ATOM     26  C   UNL     1      49.418   6.212  19.180  0.00  0.00    +0.000 A 
ATOM     27  N   UNL     1      49.218   5.455  20.293  0.00  0.00    +0.000 NA
ATOM     28  C   UNL     1      48.618   4.334  20.073  0.00  0.00    +0.000 A 
ATOM     29  N   UNL     1      48.192   3.902  18.843  0.00  0.00    +0.000 N 
ATOM     30  C   UNL     1      48.352   4.643  17.698  0.00  0.00    +0.000 A 
ATOM     31  O   UNL     1      47.917   4.250  16.620  0.00  0.00    +0.000 OA
ATOM     32  C   UNL     1      49.035   5.907  17.887  0.00  0.00    +0.000 A 
ATOM     33  H   UNL     1      47.712   3.021  18.741  0.00  0.00    +0.000 HD
ENDBRANCH  20  23
ENDBRANCH  18  19
ENDBRANCH   4  18
TORSDOF 8
ENDMDL
MODEL 2
REMARK VINA RESULT:    -7.443      2.900      8.760
REMARK INTER + INTRA:         -12.079
REMARK INTER:                 -10.745
REMARK INTRA:                  -1.334
REMARK UNBOUND:                -1.155
REMARK  Name = 
REMARK  8 active torsions:
REMARK  status: ('A' for Active; 'I' for Inactive)
REMARK    1  A    between atoms: C_2  and  C_3
REMARK    2  A    between atoms: C_7  and  C_8
REMARK    3  A    between atoms: C_8  and  O_9
REMARK    4  A    between atoms: O_9  and  C_10
REMARK    5  A    between atoms: C_10  and  C_11
REMARK    6  A    between atoms: C_14  and  C_15
REMARK    7  A    between atoms: C_15  and  N_16
REMARK    8  A    between atoms: C_17  and  C_19
REMARK                            x       y       z     vdW  Elec       q    Type
REMARK                         _______ _______ _______ _____ _____    ______ ____
ROOT
ATOM      1  C   UNL     1      49.126   7.734  15.943  0.00  0.00    +0.000 A 
ATOM      2  C   UNL     1      48.464   8.893  15.546  0.00  0.00    +0.000 A 
ATOM      3  C   UNL     1      47.883   8.938  14.281  0.00  0.00    +0.000 A 
ATOM      4  C   UNL     1      47.965   7.825  13.442  0.00  0.00    +0.000 A 
ATOM      5  C   UNL     1      48.669   6.722  13.913  0.00  0.00    +0.000 A 
ATOM      6  N   UNL     1      49.241   6.648  15.138  0.00  0.00    +0.000 NA
ENDROOT
BRANCH   1   7
ATOM      7  C   UNL     1      49.659   7.613  17.353  0.00  0.00    +0.000 C 
BRANCH   7   8
ATOM      8  O   UNL     1      48.624   7.360  18.312  0.00  0.00    +0.000 OA
BRANCH   8   9
ATOM      9  C   UNL     1      48.899   6.201  19.106  0.00  0.00    +0.000 C 
BRANCH   9  14
ATOM     10  C   UNL     1      49.380   2.945  17.425  0.00  0.00    +0.000 A 
ATOM     11  C   UNL     1      48.150   2.669  16.843  0.00  0.00    +0.000 A 
ATOM     12  C   UNL     1      47.122   3.591  17.009  0.00  0.00    +0.000 A 
ATOM     13  C   UNL     1      47.355   4.751  17.742  0.00  0.00    +0.000 A 
ATOM     14  C   UNL     1      48.616   4.956  18.298  0.00  0.00    +0.000 A 
ATOM     15  N   UNL     1      49.629   4.062  18.150  0.00  0.00    +0.000 NA
BRANCH  10  17
ATOM     16  N   UNL     1      51.342   1.265  17.140  0.00  0.00    +0.000 NA
ATOM     17  C   UNL     1      50.481   2.030  17.283  0.00  0.00    +0.000 C 
ENDBRANCH  10  17
ENDBRANCH   9  14
ENDBRANCH   8   9
ENDBRANCH   7   8
ENDBRANCH   1   7
BRANCH   4  18
ATOM     18  C   UNL     1      47.353   7.821  12.072  0.00  0.00    +0.000 C 
BRANCH  18  19
ATOM     19  N   UNL     1      46.698   6.568  11.798  0.00  0.00    +0.000 N 
ATOM     20  C   UNL     1      45.335   6.487  11.672  0.00  0.00    +0.000 C 
ATOM     21  O   UNL     1      44.613   7.478  11.725  0.00  0.00    +0.000 OA
ATOM     22  H   UNL     1      47.229   5.721  11.971  0.00  0.00    +0.000 HD
BRANCH  20  23
ATOM     23  C   UNL     1      44.788   5.149  11.414  0.00  0.00    +0.000 A 
ATOM     24  C   UNL     1      44.038   4.505  12.390  0.00  0.00    +0.000 A 
ATOM     25  S   UNL     1      43.464   2.972  11.908  0.00  0.00    +0.000 S 
ATOM     26  C   UNL     1      44.231   3.100  10.393  0.00  0.00    +0.000 A 
ATOM     27  N   UNL     1      44.154   2.092   9.481  0.00  0.00    +0.000 NA
ATOM     28  C   UNL     1      44.795   2.319   8.384  0.00  0.00    +0.000 A 
ATOM     29  N   UNL     1      45.500   3.463   8.110  0.00  0.00    +0.000 N 
ATOM     30  C   UNL     1      45.583   4.513   8.991  0.00  0.00    +0.000 A 
ATOM     31  O   UNL     1      46.183   5.544   8.696  0.00  0.00    +0.000 OA
ATOM     32  C   UNL     1      44.893   4.305  10.248  0.00  0.00    +0.000 A 
ATOM     33  H   UNL     1      45.964   3.585   7.224  0.00  0.00    +0.000 HD
ENDBRANCH  20  23
ENDBRANCH  18  19
ENDBRANCH   4  18
TORSDOF 8
ENDMDL
MODEL 3
REMARK VINA RESULT:    -7.325      3.002      9.024
REMARK INTER + INTRA:         -11.905
REMARK INTER:                 -10.632
REMARK INTRA:                  -1.273
REMARK UNBOUND:                -1.155
REMARK  Name = 
REMARK  8 active torsions:
REMARK  status: ('A' for Active; 'I' for Inactive)
REMARK    1  A    between atoms: C_2  and  C_3
REMARK    2  A    between atoms: C_7  and  C_8
REMARK    3  A    between atoms: C_8  and  O_9
REMARK    4  A    between atoms: O_9  and  C_10
REMARK    5  A    between atoms: C_10  and  C_11
REMARK    6  A    between atoms: C_14  and  C_15
REMARK    7  A    between atoms: C_15  and  N_16
REMARK    8  A    between atoms: C_17  and  C_19
REMARK                            x       y       z     vdW  Elec       q    Type
REMARK                         _______ _______ _______ _____ _____    ______ ____
ROOT
ATOM      1  C   UNL     1      50.364   7.457  14.777  0.00  0.00    +0.000 A 
ATOM      2  C   UNL     1      50.581   8.346  13.728  0.00  0.00    +0.000 A 
ATOM      3  C   UNL     1      49.593   8.500  12.759  0.00  0.00    +0.000 A 
ATOM      4  C   UNL     1      48.405   7.773  12.860  0.00  0.00    +0.000 A 
ATOM      5  C   UNL     1      48.288   6.890  13.928  0.00  0.00    +0.000 A 
ATOM      6  N   UNL     1      49.229   6.722  14.887  0.00  0.00    +0.000 NA
ENDROOT
BRANCH   1   7
ATOM      7  C   UNL     1      51.364   7.362  15.907  0.00  0.00    +0.000 C 
BRANCH   7   8
ATOM      8  O   UNL     1      50.737   7.199  17.186  0.00  0.00    +0.000 OA
BRANCH   8   9
ATOM      9  C   UNL     1      51.463   6.299  18.030  0.00  0.00    +0.000 C 
BRANCH   9  14
ATOM     10  C   UNL     1      49.204   3.432  17.456  0.00  0.00    +0.000 A 
ATOM     11  C   UNL     1      50.051   2.336  17.359  0.00  0.00    +0.000 A 
ATOM     12  C   UNL     1      51.420   2.548  17.489  0.00  0.00    +0.000 A 
ATOM     13  C   UNL     1      51.893   3.837  17.713  0.00  0.00    +0.000 A 
ATOM     14  C   UNL     1      50.981   4.886  17.795  0.00  0.00    +0.000 A 
ATOM     15  N   UNL     1      49.642   4.697  17.665  0.00  0.00    +0.000 NA
BRANCH  10  17
ATOM     16  N   UNL     1      46.625   3.185  17.252  0.00  0.00    +0.000 NA
ATOM     17  C   UNL     1      47.780   3.272  17.334  0.00  0.00    +0.000 C 
ENDBRANCH  10  17
ENDBRANCH   9  14
ENDBRANCH   8   9
ENDBRANCH   7   8
ENDBRANCH   1   7
BRANCH   4  18
ATOM     18  C   UNL     1      47.309   7.905  11.845  0.00  0.00    +0.000 C 
BRANCH  18  19
ATOM     19  N   UNL     1      46.654   6.642  11.618  0.00  0.00    +0.000 N 
ATOM     20  C   UNL     1      45.287   6.544  11.571  0.00  0.00    +0.000 C 
ATOM     21  O   UNL     1      44.557   7.527  11.656  0.00  0.00    +0.000 OA
ATOM     22  H   UNL     1      47.204   5.803  11.768  0.00  0.00    +0.000 HD
BRANCH  20  23
ATOM     23  C   UNL     1      44.742   5.198  11.355  0.00  0.00    +0.000 A 
ATOM     24  C   UNL     1      43.967   4.598  12.339  0.00  0.00    +0.000 A 
ATOM     25  S   UNL     1      43.399   3.047  11.907  0.00  0.00    +0.000 S 
ATOM     26  C   UNL     1      44.202   3.110  10.407  0.00  0.00    +0.000 A 
ATOM     27  N   UNL     1      44.145   2.065   9.536  0.00  0.00    +0.000 NA
ATOM     28  C   UNL     1      44.812   2.245   8.446  0.00  0.00    +0.000 A 
ATOM     29  N   UNL     1      45.527   3.375   8.142  0.00  0.00    +0.000 N 
ATOM     30  C   UNL     1      45.593   4.461   8.980  0.00  0.00    +0.000 A 
ATOM     31  O   UNL     1      46.202   5.477   8.658  0.00  0.00    +0.000 OA
ATOM     32  C   UNL     1      44.872   4.306  10.228  0.00  0.00    +0.000 A 
ATOM     33  H   UNL     1      46.013   3.459   7.263  0.00  0.00    +0.000 HD
ENDBRANCH  20  23
ENDBRANCH  18  19
ENDBRANCH   4  18
TORSDOF 8
ENDMDL
MODEL 4
REMARK VINA RESULT:    -7.141      2.578      2.811
REMARK INTER + INTRA:         -11.636
REMARK INTER:                 -10.828
REMARK INTRA:                  -0.808
REMARK UNBOUND:                -1.155
REMARK  Name = 
REMARK  8 active torsions:
REMARK  status: ('A' for Active; 'I' for Inactive)
REMARK    1  A    between atoms: C_2  and  C_3
REMARK    2  A    between atoms: C_7  and  C_8
REMARK    3  A    between atoms: C_8  and  O_9
REMARK    4  A    between atoms: O_9  and  C_10
REMARK    5  A    between atoms: C_10  and  C_11
REMARK    6  A    between atoms: C_14  and  C_15
REMARK    7  A    between atoms: C_15  and  N_16
REMARK    8  A    between atoms: C_17  and  C_19
REMARK                            x       y       z     vdW  Elec       q    Type
REMARK                         _______ _______ _______ _____ _____    ______ ____
ROOT
ATOM      1  C   UNL     1      46.054   5.535  13.320  0.00  0.00    +0.000 A 
ATOM      2  C   UNL     1      46.678   4.849  14.359  0.00  0.00    +0.000 A 
ATOM      3  C   UNL     1      47.763   5.440  15.002  0.00  0.00    +0.000 A 
ATOM      4  C   UNL     1      48.197   6.706  14.604  0.00  0.00    +0.000 A 
ATOM      5  C   UNL     1      47.529   7.304  13.540  0.00  0.00    +0.000 A 
ATOM      6  N   UNL     1      46.470   6.755  12.898  0.00  0.00    +0.000 NA
ENDROOT
BRANCH   1   7
ATOM      7  C   UNL     1      44.801   4.972  12.688  0.00  0.00    +0.000 C 
BRANCH   7   8
ATOM      8  O   UNL     1      44.983   3.638  12.198  0.00  0.00    +0.000 OA
BRANCH   8   9
ATOM      9  C   UNL     1      44.110   3.344  11.101  0.00  0.00    +0.000 C 
BRANCH   9  14
ATOM     10  C   UNL     1      46.047   1.992   8.260  0.00  0.00    +0.000 A 
ATOM     11  C   UNL     1      46.364   3.106   7.494  0.00  0.00    +0.000 A 
ATOM     12  C   UNL     1      45.925   4.351   7.930  0.00  0.00    +0.000 A 
ATOM     13  C   UNL     1      45.191   4.443   9.109  0.00  0.00    +0.000 A 
ATOM     14  C   UNL     1      44.911   3.280   9.822  0.00  0.00    +0.000 A 
ATOM     15  N   UNL     1      45.328   2.055   9.406  0.00  0.00    +0.000 NA
BRANCH  10  17
ATOM     16  N   UNL     1      46.831  -0.365   7.493  0.00  0.00    +0.000 NA
ATOM     17  C   UNL     1      46.479   0.680   7.861  0.00  0.00    +0.000 C 
ENDBRANCH  10  17
ENDBRANCH   9  14
ENDBRANCH   8   9
ENDBRANCH   7   8
ENDBRANCH   1   7
BRANCH   4  18
ATOM     18  C   UNL     1      49.357   7.387  15.266  0.00  0.00    +0.000 C 
BRANCH  18  19
ATOM     19  N   UNL     1      50.318   6.428  15.749  0.00  0.00    +0.000 N 
ATOM     20  C   UNL     1      50.401   6.108  17.080  0.00  0.00    +0.000 C 
ATOM     21  O   UNL     1      49.628   6.569  17.913  0.00  0.00    +0.000 OA
ATOM     22  H   UNL     1      51.098   6.208  15.138  0.00  0.00    +0.000 HD
BRANCH  20  23
ATOM     23  C   UNL     1      51.436   5.132  17.446  0.00  0.00    +0.000 A 
ATOM     24  C   UNL     1      52.706   5.569  17.799  0.00  0.00    +0.000 A 
ATOM     25  S   UNL     1      53.770   4.301  18.218  0.00  0.00    +0.000 S 
ATOM     26  C   UNL     1      52.580   3.125  17.903  0.00  0.00    +0.000 A 
ATOM     27  N   UNL     1      52.851   1.798  18.046  0.00  0.00    +0.000 NA
ATOM     28  C   UNL     1      51.862   1.020  17.760  0.00  0.00    +0.000 A 
ATOM     29  N   UNL     1      50.624   1.445  17.349  0.00  0.00    +0.000 N 
ATOM     30  C   UNL     1      50.301   2.773  17.214  0.00  0.00    +0.000 A 
ATOM     31  O   UNL     1      49.170   3.122  16.890  0.00  0.00    +0.000 OA
ATOM     32  C   UNL     1      51.382   3.691  17.510  0.00  0.00    +0.000 A 
ATOM     33  H   UNL     1      49.887   0.784  17.158  0.00  0.00    +0.000 HD
ENDBRANCH  20  23
ENDBRANCH  18  19
ENDBRANCH   4  18
TORSDOF 8
ENDMDL
MODEL 5
REMARK VINA RESULT:    -6.623      2.961      9.176
REMARK INTER + INTRA:         -10.875
REMARK INTER:                  -9.641
REMARK INTRA:                  -1.234
REMARK UNBOUND:                -1.155
REMARK  Name = 
REMARK  8 active torsions:
REMARK  status: ('A' for Active; 'I' for Inactive)
REMARK    1  A    between atoms: C_2  and  C_3
REMARK    2  A    between atoms: C_7  and  C_8
REMARK    3  A    between atoms: C_8  and  O_9
REMARK    4  A    between atoms: O_9  and  C_10
REMARK    5  A    between atoms: C_10  and  C_11
REMARK    6  A    between atoms: C_14  and  C_15
REMARK    7  A    between atoms: C_15  and  N_16
REMARK    8  A    between atoms: C_17  and  C_19
REMARK                            x       y       z     vdW  Elec       q    Type
REMARK                         _______ _______ _______ _____ _____    ______ ____
ROOT
ATOM      1  C   UNL     1      50.096   7.885  15.131  0.00  0.00    +0.000 A 
ATOM      2  C   UNL     1      49.153   8.810  15.570  0.00  0.00    +0.000 A 
ATOM      3  C   UNL     1      47.934   8.899  14.903  0.00  0.00    +0.000 A 
ATOM      4  C   UNL     1      47.676   8.058  13.819  0.00  0.00    +0.000 A 
ATOM      5  C   UNL     1      48.687   7.183  13.436  0.00  0.00    +0.000 A 
ATOM      6  N   UNL     1      49.880   7.072  14.067  0.00  0.00    +0.000 NA
ENDROOT
BRANCH   1   7
ATOM      7  C   UNL     1      51.377   7.682  15.911  0.00  0.00    +0.000 C 
BRANCH   7   8
ATOM      8  O   UNL     1      51.221   7.963  17.308  0.00  0.00    +0.000 OA
BRANCH   8   9
ATOM      9  C   UNL     1      51.102   6.768  18.087  0.00  0.00    +0.000 C 
BRANCH   9  14
ATOM     10  C   UNL     1      47.759   5.203  18.250  0.00  0.00    +0.000 A 
ATOM     11  C   UNL     1      47.013   6.059  19.050  0.00  0.00    +0.000 A 
ATOM     12  C   UNL     1      47.634   7.196  19.555  0.00  0.00    +0.000 A 
ATOM     13  C   UNL     1      48.968   7.442  19.244  0.00  0.00    +0.000 A 
ATOM     14  C   UNL     1      49.651   6.535  18.436  0.00  0.00    +0.000 A 
ATOM     15  N   UNL     1      49.060   5.416  17.940  0.00  0.00    +0.000 NA
BRANCH  10  17
ATOM     16  N   UNL     1      46.729   3.048  17.225  0.00  0.00    +0.000 NA
ATOM     17  C   UNL     1      47.167   4.015  17.697  0.00  0.00    +0.000 C 
ENDBRANCH  10  17
ENDBRANCH   9  14
ENDBRANCH   8   9
ENDBRANCH   7   8
ENDBRANCH   1   7
BRANCH   4  18
ATOM     18  C   UNL     1      46.378   8.111  13.070  0.00  0.00    +0.000 C 
BRANCH  18  19
ATOM     19  N   UNL     1      45.947   6.793  12.679  0.00  0.00    +0.000 N 
ATOM     20  C   UNL     1      44.888   6.610  11.827  0.00  0.00    +0.000 C 
ATOM     21  O   UNL     1      44.296   7.551  11.309  0.00  0.00    +0.000 OA
ATOM     22  H   UNL     1      46.260   6.016  13.251  0.00  0.00    +0.000 HD
BRANCH  20  23
ATOM     23  C   UNL     1      44.536   5.217  11.523  0.00  0.00    +0.000 A 
ATOM     24  C   UNL     1      43.778   4.481  12.424  0.00  0.00    +0.000 A 
ATOM     25  S   UNL     1      43.444   2.893  11.896  0.00  0.00    +0.000 S 
ATOM     26  C   UNL     1      44.334   3.124  10.463  0.00  0.00    +0.000 A 
ATOM     27  N   UNL     1      44.471   2.120   9.553  0.00  0.00    +0.000 NA
ATOM     28  C   UNL     1      45.183   2.431   8.522  0.00  0.00    +0.000 A 
ATOM     29  N   UNL     1      45.767   3.654   8.313  0.00  0.00    +0.000 N 
ATOM     30  C   UNL     1      45.636   4.700   9.193  0.00  0.00    +0.000 A 
ATOM     31  O   UNL     1      46.132   5.798   8.953  0.00  0.00    +0.000 OA
ATOM     32  C   UNL     1      44.857   4.401  10.377  0.00  0.00    +0.000 A 
ATOM     33  H   UNL     1      46.298   3.837   7.476  0.00  0.00    +0.000 HD
ENDBRANCH  20  23
ENDBRANCH  18  19
ENDBRANCH   4  18
TORSDOF 8
ENDMDL
MODEL 6
REMARK VINA RESULT:    -6.582      2.103      2.692
REMARK INTER + INTRA:         -10.815
REMARK INTER:                  -9.937
REMARK INTRA:                  -0.879
REMARK UNBOUND:                -1.155
REMARK  Name = 
REMARK  8 active torsions:
REMARK  status: ('A' for Active; 'I' for Inactive)
REMARK    1  A    between atoms: C_2  and  C_3
REMARK    2  A    between atoms: C_7  and  C_8
REMARK    3  A    between atoms: C_8  and  O_9
REMARK    4  A    between atoms: O_9  and  C_10
REMARK    5  A    between atoms: C_10  and  C_11
REMARK    6  A    between atoms: C_14  and  C_15
REMARK    7  A    between atoms: C_15  and  N_16
REMARK    8  A    between atoms: C_17  and  C_19
REMARK                            x       y       z     vdW  Elec       q    Type
REMARK                         _______ _______ _______ _____ _____    ______ ____
ROOT
ATOM      1  C   UNL     1      44.775   3.954  12.574  0.00  0.00    +0.000 A 
ATOM      2  C   UNL     1      45.967   3.480  13.114  0.00  0.00    +0.000 A 
ATOM      3  C   UNL     1      46.906   4.395  13.583  0.00  0.00    +0.000 A 
ATOM      4  C   UNL     1      46.634   5.762  13.514  0.00  0.00    +0.000 A 
ATOM      5  C   UNL     1      45.429   6.144  12.935  0.00  0.00    +0.000 A 
ATOM      6  N   UNL     1      44.495   5.278  12.474  0.00  0.00    +0.000 NA
ENDROOT
BRANCH   1   7
ATOM      7  C   UNL     1      43.687   2.983  12.171  0.00  0.00    +0.000 C 
BRANCH   7   8
ATOM      8  O   UNL     1      43.370   3.060  10.776  0.00  0.00    +0.000 OA
BRANCH   8   9
ATOM      9  C   UNL     1      44.153   2.149   9.996  0.00  0.00    +0.000 C 
BRANCH   9  14
ATOM     10  C   UNL     1      46.754   2.906   7.482  0.00  0.00    +0.000 A 
ATOM     11  C   UNL     1      46.804   4.293   7.441  0.00  0.00    +0.000 A 
ATOM     12  C   UNL     1      45.950   5.008   8.275  0.00  0.00    +0.000 A 
ATOM     13  C   UNL     1      45.083   4.320   9.117  0.00  0.00    +0.000 A 
ATOM     14  C   UNL     1      45.089   2.927   9.100  0.00  0.00    +0.000 A 
ATOM     15  N   UNL     1      45.913   2.214   8.287  0.00  0.00    +0.000 NA
BRANCH  10  17
ATOM     16  N   UNL     1      48.323   1.517   5.946  0.00  0.00    +0.000 NA
ATOM     17  C   UNL     1      47.617   2.116   6.646  0.00  0.00    +0.000 C 
ENDBRANCH  10  17
ENDBRANCH   9  14
ENDBRANCH   8   9
ENDBRANCH   7   8
ENDBRANCH   1   7
BRANCH   4  18
ATOM     18  C   UNL     1      47.611   6.788  14.009  0.00  0.00    +0.000 C 
BRANCH  18  19
ATOM     19  N   UNL     1      48.549   6.209  14.936  0.00  0.00    +0.000 N 
ATOM     20  C   UNL     1      49.364   6.992  15.712  0.00  0.00    +0.000 C 
ATOM     21  O   UNL     1      49.295   8.217  15.702  0.00  0.00    +0.000 OA
ATOM     22  H   UNL     1      48.784   5.230  14.806  0.00  0.00    +0.000 HD
BRANCH  20  23
ATOM     23  C   UNL     1      50.291   6.280  16.601  0.00  0.00    +0.000 A 
ATOM     24  C   UNL     1      49.796   5.447  17.595  0.00  0.00    +0.000 A 
ATOM     25  S   UNL     1      51.015   4.685  18.516  0.00  0.00    +0.000 S 
ATOM     26  C   UNL     1      52.244   5.474  17.641  0.00  0.00    +0.000 A 
ATOM     27  N   UNL     1      53.557   5.276  17.944  0.00  0.00    +0.000 NA
ATOM     28  C   UNL     1      54.379   5.949  17.210  0.00  0.00    +0.000 A 
ATOM     29  N   UNL     1      54.010   6.797  16.197  0.00  0.00    +0.000 N 
ATOM     30  C   UNL     1      52.700   7.007  15.843  0.00  0.00    +0.000 A 
ATOM     31  O   UNL     1      52.406   7.736  14.899  0.00  0.00    +0.000 OA
ATOM     32  C   UNL     1      51.734   6.286  16.646  0.00  0.00    +0.000 A 
ATOM     33  H   UNL     1      54.705   7.280  15.648  0.00  0.00    +0.000 HD
ENDBRANCH  20  23
ENDBRANCH  18  19
ENDBRANCH   4  18
TORSDOF 8
ENDMDL
MODEL 7
REMARK VINA RESULT:    -6.412      4.338      5.173
REMARK INTER + INTRA:         -10.566
REMARK INTER:                  -9.835
REMARK INTRA:                  -0.730
REMARK UNBOUND:                -1.155
REMARK  Name = 
REMARK  8 active torsions:
REMARK  status: ('A' for Active; 'I' for Inactive)
REMARK    1  A    between atoms: C_2  and  C_3
REMARK    2  A    between atoms: C_7  and  C_8
REMARK    3  A    between atoms: C_8  and  O_9
REMARK    4  A    between atoms: O_9  and  C_10
REMARK    5  A    between atoms: C_10  and  C_11
REMARK    6  A    between atoms: C_14  and  C_15
REMARK    7  A    between atoms: C_15  and  N_16
REMARK    8  A    between atoms: C_17  and  C_19
REMARK                            x       y       z     vdW  Elec       q    Type
REMARK                         _______ _______ _______ _____ _____    ______ ____
ROOT
ATOM      1  C   UNL     1      44.259   5.019  11.954  0.00  0.00    +0.000 A 
ATOM      2  C   UNL     1      45.401   5.164  12.738  0.00  0.00    +0.000 A 
ATOM      3  C   UNL     1      45.858   6.446  13.033  0.00  0.00    +0.000 A 
ATOM      4  C   UNL     1      45.163   7.556  12.551  0.00  0.00    +0.000 A 
ATOM      5  C   UNL     1      44.049   7.314  11.754  0.00  0.00    +0.000 A 
ATOM      6  N   UNL     1      43.579   6.080  11.453  0.00  0.00    +0.000 NA
ENDROOT
BRANCH   1   7
ATOM      7  C   UNL     1      43.672   3.645  11.721  0.00  0.00    +0.000 C 
BRANCH   7   8
ATOM      8  O   UNL     1      44.191   3.017  10.542  0.00  0.00    +0.000 OA
BRANCH   8   9
ATOM      9  C   UNL     1      44.422   3.959   9.488  0.00  0.00    +0.000 C 
BRANCH   9  14
ATOM     10  C   UNL     1      46.554   1.566   7.650  0.00  0.00    +0.000 A 
ATOM     11  C   UNL     1      47.335   2.361   6.821  0.00  0.00    +0.000 A 
ATOM     12  C   UNL     1      47.154   3.740   6.871  0.00  0.00    +0.000 A 
ATOM     13  C   UNL     1      46.209   4.274   7.741  0.00  0.00    +0.000 A 
ATOM     14  C   UNL     1      45.462   3.411   8.539  0.00  0.00    +0.000 A 
ATOM     15  N   UNL     1      45.622   2.062   8.498  0.00  0.00    +0.000 NA
BRANCH  10  17
ATOM     16  N   UNL     1      46.820  -1.019   7.592  0.00  0.00    +0.000 NA
ATOM     17  C   UNL     1      46.701   0.135   7.644  0.00  0.00    +0.000 C 
ENDBRANCH  10  17
ENDBRANCH   9  14
ENDBRANCH   8   9
ENDBRANCH   7   8
ENDBRANCH   1   7
BRANCH   4  18
ATOM     18  C   UNL     1      45.612   8.957  12.844  0.00  0.00    +0.000 C 
BRANCH  18  19
ATOM     19  N   UNL     1      46.827   9.273  12.137  0.00  0.00    +0.000 N 
ATOM     20  C   UNL     1      47.985   9.574  12.806  0.00  0.00    +0.000 C 
ATOM     21  O   UNL     1      48.064   9.530  14.030  0.00  0.00    +0.000 OA
ATOM     22  H   UNL     1      46.739   9.535  11.161  0.00  0.00    +0.000 HD
BRANCH  20  23
ATOM     23  C   UNL     1      49.149   9.900  11.971  0.00  0.00    +0.000 A 
ATOM     24  C   UNL     1      49.359  11.207  11.554  0.00  0.00    +0.000 A 
ATOM     25  S   UNL     1      50.770  11.404  10.613  0.00  0.00    +0.000 S 
ATOM     26  C   UNL     1      51.125   9.741  10.700  0.00  0.00    +0.000 A 
ATOM     27  N   UNL     1      52.218   9.225  10.072  0.00  0.00    +0.000 NA
ATOM     28  C   UNL     1      52.355   7.949  10.210  0.00  0.00    +0.000 A 
ATOM     29  N   UNL     1      51.506   7.141  10.923  0.00  0.00    +0.000 N 
ATOM     30  C   UNL     1      50.407   7.624  11.590  0.00  0.00    +0.000 A 
ATOM     31  O   UNL     1      49.693   6.882  12.259  0.00  0.00    +0.000 OA
ATOM     32  C   UNL     1      50.196   9.051  11.456  0.00  0.00    +0.000 A 
ATOM     33  H   UNL     1      51.681   6.152  11.007  0.00  0.00    +0.000 HD
ENDBRANCH  20  23
ENDBRANCH  18  19
ENDBRANCH   4  18
TORSDOF 8
ENDMDL
MODEL 8
REMARK VINA RESULT:    -6.335      3.761      8.384
REMARK INTER + INTRA:         -10.453
REMARK INTER:                  -8.651
REMARK INTRA:                  -1.802
REMARK UNBOUND:                -1.155
REMARK  Name = 
REMARK  8 active torsions:
REMARK  status: ('A' for Active; 'I' for Inactive)
REMARK    1  A    between atoms: C_2  and  C_3
REMARK    2  A    between atoms: C_7  and  C_8
REMARK    3  A    between atoms: C_8  and  O_9
REMARK    4  A    between atoms: O_9  and  C_10
REMARK    5  A    between atoms: C_10  and  C_11
REMARK    6  A    between atoms: C_14  and  C_15
REMARK    7  A    between atoms: C_15  and  N_16
REMARK    8  A    between atoms: C_17  and  C_19
REMARK                            x       y       z     vdW  Elec       q    Type
REMARK                         _______ _______ _______ _____ _____    ______ ____
ROOT
ATOM      1  C   UNL     1      50.715   7.965  17.769  0.00  0.00    +0.000 A 
ATOM      2  C   UNL     1      49.533   8.529  18.243  0.00  0.00    +0.000 A 
ATOM      3  C   UNL     1      48.621   9.050  17.330  0.00  0.00    +0.000 A 
ATOM      4  C   UNL     1      48.899   8.991  15.963  0.00  0.00    +0.000 A 
ATOM      5  C   UNL     1      50.116   8.434  15.584  0.00  0.00    +0.000 A 
ATOM      6  N   UNL     1      51.020   7.915  16.448  0.00  0.00    +0.000 NA
ENDROOT
BRANCH   1   7
ATOM      7  C   UNL     1      51.665   7.282  18.727  0.00  0.00    +0.000 C 
BRANCH   7   8
ATOM      8  O   UNL     1      51.053   6.188  19.423  0.00  0.00    +0.000 OA
BRANCH   8   9
ATOM      9  C   UNL     1      51.854   5.002  19.370  0.00  0.00    +0.000 C 
BRANCH   9  14
ATOM     10  C   UNL     1      49.230   3.224  17.471  0.00  0.00    +0.000 A 
ATOM     11  C   UNL     1      49.877   2.118  16.935  0.00  0.00    +0.000 A 
ATOM     12  C   UNL     1      51.230   1.950  17.212  0.00  0.00    +0.000 A 
ATOM     13  C   UNL     1      51.886   2.883  18.009  0.00  0.00    +0.000 A 
ATOM     14  C   UNL     1      51.169   3.968  18.508  0.00  0.00    +0.000 A 
ATOM     15  N   UNL     1      49.848   4.149  18.243  0.00  0.00    +0.000 NA
BRANCH  10  17
ATOM     16  N   UNL     1      46.694   3.579  17.023  0.00  0.00    +0.000 NA
ATOM     17  C   UNL     1      47.831   3.446  17.223  0.00  0.00    +0.000 C 
ENDBRANCH  10  17
ENDBRANCH   9  14
ENDBRANCH   8   9
ENDBRANCH   7   8
ENDBRANCH   1   7
BRANCH   4  18
ATOM     18  C   UNL     1      47.948   9.536  14.939  0.00  0.00    +0.000 C 
BRANCH  18  19
ATOM     19  N   UNL     1      47.133   8.490  14.377  0.00  0.00    +0.000 N 
ATOM     20  C   UNL     1      46.888   8.419  13.030  0.00  0.00    +0.000 C 
ATOM     21  O   UNL     1      47.397   9.199  12.231  0.00  0.00    +0.000 OA
ATOM     22  H   UNL     1      46.530   7.980  15.015  0.00  0.00    +0.000 HD
BRANCH  20  23
ATOM     23  C   UNL     1      46.024   7.318  12.586  0.00  0.00    +0.000 A 
ATOM     24  C   UNL     1      44.918   7.582  11.789  0.00  0.00    +0.000 A 
ATOM     25  S   UNL     1      44.046   6.182  11.349  0.00  0.00    +0.000 S 
ATOM     26  C   UNL     1      45.094   5.181  12.242  0.00  0.00    +0.000 A 
ATOM     27  N   UNL     1      44.893   3.836  12.307  0.00  0.00    +0.000 NA
ATOM     28  C   UNL     1      45.755   3.204  13.030  0.00  0.00    +0.000 A 
ATOM     29  N   UNL     1      46.804   3.791  13.691  0.00  0.00    +0.000 N 
ATOM     30  C   UNL     1      47.057   5.140  13.634  0.00  0.00    +0.000 A 
ATOM     31  O   UNL     1      48.033   5.628  14.197  0.00  0.00    +0.000 OA
ATOM     32  C   UNL     1      46.109   5.900  12.845  0.00  0.00    +0.000 A 
ATOM     33  H   UNL     1      47.454   3.237  14.226  0.00  0.00    +0.000 HD
ENDBRANCH  20  23
ENDBRANCH  18  19
ENDBRANCH   4  18
TORSDOF 8
ENDMDL
MODEL 9
REMARK VINA RESULT:    -5.694      3.696      8.971
REMARK INTER + INTRA:          -9.512
REMARK INTER:                  -8.543
REMARK INTRA:                  -0.969
REMARK UNBOUND:                -1.155
REMARK  Name = 
REMARK  8 active torsions:
REMARK  status: ('A' for Active; 'I' for Inactive)
REMARK    1  A    between atoms: C_2  and  C_3
REMARK    2  A    between atoms: C_7  and  C_8
REMARK    3  A    between atoms: C_8  and  O_9
REMARK    4  A    between atoms: O_9  and  C_10
REMARK    5  A    between atoms: C_10  and  C_11
REMARK    6  A    between atoms: C_14  and  C_15
REMARK    7  A    between atoms: C_15  and  N_16
REMARK    8  A    between atoms: C_17  and  C_19
REMARK                            x       y       z     vdW  Elec       q    Type
REMARK                         _______ _______ _______ _____ _____    ______ ____
ROOT
ATOM      1  C   UNL     1      51.379   7.220  16.743  0.00  0.00    +0.000 A 
ATOM      2  C   UNL     1      51.284   8.599  16.579  0.00  0.00    +0.000 A 
ATOM      3  C   UNL     1      50.290   9.113  15.750  0.00  0.00    +0.000 A 
ATOM      4  C   UNL     1      49.405   8.243  15.110  0.00  0.00    +0.000 A 
ATOM      5  C   UNL     1      49.592   6.880  15.313  0.00  0.00    +0.000 A 
ATOM      6  N   UNL     1      50.547   6.352  16.115  0.00  0.00    +0.000 NA
ENDROOT
BRANCH   1   7
ATOM      7  C   UNL     1      52.368   6.642  17.731  0.00  0.00    +0.000 C 
BRANCH   7   8
ATOM      8  O   UNL     1      51.999   6.897  19.093  0.00  0.00    +0.000 OA
BRANCH   8   9
ATOM      9  C   UNL     1      51.359   5.768  19.696  0.00  0.00    +0.000 C 
BRANCH   9  14
ATOM     10  C   UNL     1      47.907   5.051  18.589  0.00  0.00    +0.000 A 
ATOM     11  C   UNL     1      47.138   6.042  19.185  0.00  0.00    +0.000 A 
ATOM     12  C   UNL     1      47.780   6.985  19.981  0.00  0.00    +0.000 A 
ATOM     13  C   UNL     1      49.159   6.908  20.152  0.00  0.00    +0.000 A 
ATOM     14  C   UNL     1      49.862   5.883  19.524  0.00  0.00    +0.000 A 
ATOM     15  N   UNL     1      49.249   4.951  18.748  0.00  0.00    +0.000 NA
BRANCH  10  17
ATOM     16  N   UNL     1      46.772   3.240  17.110  0.00  0.00    +0.000 NA
ATOM     17  C   UNL     1      47.297   4.053  17.753  0.00  0.00    +0.000 C 
ENDBRANCH  10  17
ENDBRANCH   9  14
ENDBRANCH   8   9
ENDBRANCH   7   8
ENDBRANCH   1   7
BRANCH   4  18
ATOM     18  C   UNL     1      48.316   8.747  14.211  0.00  0.00    +0.000 C 
BRANCH  18  19
ATOM     19  N   UNL     1      47.362   7.708  13.916  0.00  0.00    +0.000 N 
ATOM     20  C   UNL     1      47.526   6.871  12.842  0.00  0.00    +0.000 C 
ATOM     21  O   UNL     1      48.515   6.922  12.118  0.00  0.00    +0.000 OA
ATOM     22  H   UNL     1      46.446   7.785  14.346  0.00  0.00    +0.000 HD
BRANCH  20  23
ATOM     23  C   UNL     1      46.473   5.867  12.637  0.00  0.00    +0.000 A 
ATOM     24  C   UNL     1      46.723   4.532  12.924  0.00  0.00    +0.000 A 
ATOM     25  S   UNL     1      45.381   3.514  12.650  0.00  0.00    +0.000 S 
ATOM     26  C   UNL     1      44.433   4.818  12.101  0.00  0.00    +0.000 A 
ATOM     27  N   UNL     1      43.153   4.626  11.679  0.00  0.00    +0.000 NA
ATOM     28  C   UNL     1      42.560   5.699  11.277  0.00  0.00    +0.000 A 
ATOM     29  N   UNL     1      43.126   6.949  11.262  0.00  0.00    +0.000 N 
ATOM     30  C   UNL     1      44.404   7.191  11.700  0.00  0.00    +0.000 A 
ATOM     31  O   UNL     1      44.865   8.329  11.719  0.00  0.00    +0.000 OA
ATOM     32  C   UNL     1      45.122   6.016  12.150  0.00  0.00    +0.000 A 
ATOM     33  H   UNL     1      42.600   7.751  10.952  0.00  0.00    +0.000 HD
ENDBRANCH  20  23
ENDBRANCH  18  19
ENDBRANCH   4  18
TORSDOF 8
ENDMDL
