MODEL 1
REMARK VINA RESULT:    -8.735      0.000      0.000
REMARK INTER + INTRA:         -11.787
REMARK INTER:                 -11.289
REMARK INTRA:                  -0.498
REMARK UNBOUND:                -0.498
REMARK  Name = 
REMARK  5 active torsions:
REMARK  status: ('A' for Active; 'I' for Inactive)
REMARK    1  A    between atoms: C_2  and  C_4
REMARK    2  A    between atoms: C_7  and  N_8
REMARK    3  A    between atoms: N_8  and  C_9
REMARK    4  A    between atoms: C_9  and  C_10
REMARK    5  A    between atoms: C_14  and  C_15
REMARK                            x       y       z     vdW  Elec       q    Type
REMARK                         _______ _______ _______ _____ _____    ______ ____
ROOT
ATOM      1  N   UNL     1      44.035   4.878   9.967  0.00  0.00    +0.000 N 
ATOM      2  H   UNL     1      44.336   5.847   9.883  0.00  0.00    +0.000 HD
ENDROOT
BRANCH   1   6
ATOM      3  C   UNL     1      46.407   2.348   7.737  0.00  0.00    +0.000 A 
ATOM      4  C   UNL     1      46.424   3.716   7.509  0.00  0.00    +0.000 A 
ATOM      5  N   UNL     1      45.651   4.593   8.212  0.00  0.00    +0.000 NA
ATOM      6  C   UNL     1      44.840   4.063   9.153  0.00  0.00    +0.000 A 
ATOM      7  C   UNL     1      44.831   2.673   9.356  0.00  0.00    +0.000 A 
ATOM      8  N   UNL     1      45.591   1.780   8.664  0.00  0.00    +0.000 NA
BRANCH   3  10
ATOM      9  N   UNL     1      48.432   2.015   6.428  0.00  0.00    +0.000 N 
ATOM     10  C   UNL     1      47.312   1.447   6.971  0.00  0.00    +0.000 C 
ATOM     11  O   UNL     1      47.078   0.249   6.841  0.00  0.00    +0.000 OA
ATOM     12  H   UNL     1      49.107   1.409   5.977  0.00  0.00    +0.000 HD
ATOM     13  H   UNL     1      48.700   2.959   6.683  0.00  0.00    +0.000 HD
ENDBRANCH   3  10
ENDBRANCH   1   6
BRANCH   1  14
ATOM     14  C   UNL     1      43.941   4.472  11.367  0.00  0.00    +0.000 C 
BRANCH  14  15
ATOM     15  C   UNL     1      45.153   4.972  12.126  0.00  0.00    +0.000 A 
ATOM     16  C   UNL     1      45.898   6.058  11.656  0.00  0.00    +0.000 A 
ATOM     17  C   UNL     1      46.999   6.484  12.382  0.00  0.00    +0.000 A 
ATOM     18  N   UNL     1      47.408   5.906  13.530  0.00  0.00    +0.000 NA
ATOM     19  C   UNL     1      46.696   4.844  13.998  0.00  0.00    +0.000 A 
ATOM     20  C   UNL     1      45.562   4.373  13.326  0.00  0.00    +0.000 A 
BRANCH  19  21
ATOM     21  C   UNL     1      47.216   4.183  15.219  0.00  0.00    +0.000 A 
ATOM     22  C   UNL     1      47.156   4.793  16.474  0.00  0.00    +0.000 A 
ATOM     23  C   UNL     1      47.716   4.155  17.578  0.00  0.00    +0.000 A 
ATOM     24  C   UNL     1      48.318   2.917  17.412  0.00  0.00    +0.000 A 
ATOM     25  C   UNL     1      48.332   2.364  16.143  0.00  0.00    +0.000 A 
ATOM     26  N   UNL     1      47.800   2.963  15.055  0.00  0.00    +0.000 NA
ENDBRANCH  19  21
ENDBRANCH  14  15
ENDBRANCH   1  14
TORSDOF 5
ENDMDL
MODEL 2
REMARK VINA RESULT:    -8.486      1.981      4.017
REMARK INTER + INTRA:         -11.465
REMARK INTER:                 -10.838
REMARK INTRA:                  -0.627
REMARK UNBOUND:                -0.498
REMARK  Name = 
REMARK  5 active torsions:
REMARK  status: ('A' for Active; 'I' for Inactive)
REMARK    1  A    between atoms: C_2  and  C_4
REMARK    2  A    between atoms: C_7  and  N_8
REMARK    3  A    between atoms: N_8  and  C_9
REMARK    4  A    between atoms: C_9  and  C_10
REMARK    5  A    between atoms: C_14  and  C_15
REMARK                            x       y       z     vdW  Elec       q    Type
REMARK                         _______ _______ _______ _____ _____    ______ ____
ROOT
ATOM      1  N   UNL     1      43.820   4.933   9.733  0.00  0.00    +0.000 N 
ATOM      2  H   UNL     1      44.179   5.872   9.570  0.00  0.00    +0.000 HD
ENDROOT
BRANCH   1   6
ATOM      3  C   UNL     1      46.194   2.068   7.957  0.00  0.00    +0.000 A 
ATOM      4  C   UNL     1      46.298   3.400   7.586  0.00  0.00    +0.000 A 
ATOM      5  N   UNL     1      45.528   4.384   8.136  0.00  0.00    +0.000 NA
ATOM      6  C   UNL     1      44.632   3.998   9.069  0.00  0.00    +0.000 A 
ATOM      7  C   UNL     1      44.536   2.640   9.418  0.00  0.00    +0.000 A 
ATOM      8  N   UNL     1      45.292   1.644   8.881  0.00  0.00    +0.000 NA
BRANCH   3  10
ATOM      9  N   UNL     1      46.806  -0.263   7.616  0.00  0.00    +0.000 N 
ATOM     10  C   UNL     1      47.099   1.048   7.358  0.00  0.00    +0.000 C 
ATOM     11  O   UNL     1      48.054   1.361   6.654  0.00  0.00    +0.000 OA
ATOM     12  H   UNL     1      47.353  -0.977   7.151  0.00  0.00    +0.000 HD
ATOM     13  H   UNL     1      45.925  -0.513   8.052  0.00  0.00    +0.000 HD
ENDBRANCH   3  10
ENDBRANCH   1   6
BRANCH   1  14
ATOM     14  C   UNL     1      43.610   4.686  11.157  0.00  0.00    +0.000 C 
BRANCH  14  15
ATOM     15  C   UNL     1      44.839   5.109  11.936  0.00  0.00    +0.000 A 
ATOM     16  C   UNL     1      45.306   4.347  13.011  0.00  0.00    +0.000 A 
ATOM     17  C   UNL     1      46.434   4.768  13.695  0.00  0.00    +0.000 A 
ATOM     18  N   UNL     1      47.120   5.889  13.390  0.00  0.00    +0.000 NA
ATOM     19  C   UNL     1      46.675   6.645  12.348  0.00  0.00    +0.000 A 
ATOM     20  C   UNL     1      45.553   6.268  11.601  0.00  0.00    +0.000 A 
BRANCH  19  21
ATOM     21  C   UNL     1      47.405   7.909  12.087  0.00  0.00    +0.000 A 
ATOM     22  C   UNL     1      48.751   7.924  11.718  0.00  0.00    +0.000 A 
ATOM     23  C   UNL     1      49.405   9.141  11.546  0.00  0.00    +0.000 A 
ATOM     24  C   UNL     1      48.702  10.321  11.736  0.00  0.00    +0.000 A 
ATOM     25  C   UNL     1      47.366  10.235  12.089  0.00  0.00    +0.000 A 
ATOM     26  N   UNL     1      46.709   9.067  12.267  0.00  0.00    +0.000 NA
ENDBRANCH  19  21
ENDBRANCH  14  15
ENDBRANCH   1  14
TORSDOF 5
ENDMDL
MODEL 3
REMARK VINA RESULT:    -8.036      2.664      7.451
REMARK INTER + INTRA:         -10.883
REMARK INTER:                 -10.521
REMARK INTRA:                  -0.362
REMARK UNBOUND:                -0.498
REMARK  Name = 
REMARK  5 active torsions:
REMARK  status: ('A' for Active; 'I' for Inactive)
REMARK    1  A    between atoms: C_2  and  C_4
REMARK    2  A    between atoms: C_7  and  N_8
REMARK    3  A    between atoms: N_8  and  C_9
REMARK    4  A    between atoms: C_9  and  C_10
REMARK    5  A    between atoms: C_14  and  C_15
REMARK                            x       y       z     vdW  Elec       q    Type
REMARK                         _______ _______ _______ _____ _____    ______ ____
ROOT
ATOM      1  N   UNL     1      47.321   6.596  12.610  0.00  0.00    +0.000 N 
ATOM      2  H   UNL     1      48.038   7.318  12.598  0.00  0.00    +0.000 HD
ENDROOT
BRANCH   1   6
ATOM      3  C   UNL     1      47.492   4.273  16.012  0.00  0.00    +0.000 A 
ATOM      4  C   UNL     1      48.264   5.420  15.901  0.00  0.00    +0.000 A 
ATOM      5  N   UNL     1      48.251   6.216  14.792  0.00  0.00    +0.000 NA
ATOM      6  C   UNL     1      47.447   5.828  13.779  0.00  0.00    +0.000 A 
ATOM      7  C   UNL     1      46.684   4.654  13.911  0.00  0.00    +0.000 A 
ATOM      8  N   UNL     1      46.684   3.846  15.006  0.00  0.00    +0.000 NA
BRANCH   3  10
ATOM      9  N   UNL     1      48.635   3.568  18.042  0.00  0.00    +0.000 N 
ATOM     10  C   UNL     1      47.511   3.474  17.269  0.00  0.00    +0.000 C 
ATOM     11  O   UNL     1      46.561   2.774  17.607  0.00  0.00    +0.000 OA
ATOM     12  H   UNL     1      48.639   3.103  18.942  0.00  0.00    +0.000 HD
ATOM     13  H   UNL     1      49.335   4.274  17.841  0.00  0.00    +0.000 HD
ENDBRANCH   3  10
ENDBRANCH   1   6
BRANCH   1  14
ATOM     14  C   UNL     1      45.996   7.161  12.367  0.00  0.00    +0.000 C 
BRANCH  14  15
ATOM     15  C   UNL     1      45.178   6.200  11.529  0.00  0.00    +0.000 A 
ATOM     16  C   UNL     1      43.805   6.048  11.744  0.00  0.00    +0.000 A 
ATOM     17  C   UNL     1      43.092   5.160  10.954  0.00  0.00    +0.000 A 
ATOM     18  N   UNL     1      43.649   4.414   9.978  0.00  0.00    +0.000 NA
ATOM     19  C   UNL     1      44.987   4.547   9.758  0.00  0.00    +0.000 A 
ATOM     20  C   UNL     1      45.763   5.440  10.506  0.00  0.00    +0.000 A 
BRANCH  19  21
ATOM     21  C   UNL     1      45.581   3.658   8.732  0.00  0.00    +0.000 A 
ATOM     22  C   UNL     1      45.635   2.272   8.894  0.00  0.00    +0.000 A 
ATOM     23  C   UNL     1      46.260   1.489   7.927  0.00  0.00    +0.000 A 
ATOM     24  C   UNL     1      46.813   2.101   6.812  0.00  0.00    +0.000 A 
ATOM     25  C   UNL     1      46.714   3.478   6.708  0.00  0.00    +0.000 A 
ATOM     26  N   UNL     1      46.117   4.262   7.633  0.00  0.00    +0.000 NA
ENDBRANCH  19  21
ENDBRANCH  14  15
ENDBRANCH   1  14
TORSDOF 5
ENDMDL
MODEL 4
REMARK VINA RESULT:    -7.984      3.327      6.899
REMARK INTER + INTRA:         -10.816
REMARK INTER:                 -10.125
REMARK INTRA:                  -0.691
REMARK UNBOUND:                -0.498
REMARK  Name = 
REMARK  5 active torsions:
REMARK  status: ('A' for Active; 'I' for Inactive)
REMARK    1  A    between atoms: C_2  and  C_4
REMARK    2  A    between atoms: C_7  and  N_8
REMARK    3  A    between atoms: N_8  and  C_9
REMARK    4  A    between atoms: C_9  and  C_10
REMARK    5  A    between atoms: C_14  and  C_15
REMARK                            x       y       z     vdW  Elec       q    Type
REMARK                         _______ _______ _______ _____ _____    ______ ____
ROOT
ATOM      1  N   UNL     1      44.063   6.653  12.584  0.00  0.00    +0.000 N 
ATOM      2  H   UNL     1      43.876   5.938  13.284  0.00  0.00    +0.000 HD
ENDROOT
BRANCH   1   6
ATOM      3  C   UNL     1      48.149   7.207  12.529  0.00  0.00    +0.000 A 
ATOM      4  C   UNL     1      47.292   8.229  12.148  0.00  0.00    +0.000 A 
ATOM      5  N   UNL     1      45.934   8.092  12.138  0.00  0.00    +0.000 NA
ATOM      6  C   UNL     1      45.446   6.890  12.512  0.00  0.00    +0.000 A 
ATOM      7  C   UNL     1      46.335   5.866  12.881  0.00  0.00    +0.000 A 
ATOM      8  N   UNL     1      47.691   5.980  12.895  0.00  0.00    +0.000 NA
BRANCH   3  10
ATOM      9  N   UNL     1      50.202   7.494  13.804  0.00  0.00    +0.000 N 
ATOM     10  C   UNL     1      49.620   7.434  12.567  0.00  0.00    +0.000 C 
ATOM     11  O   UNL     1      50.286   7.549  11.543  0.00  0.00    +0.000 OA
ATOM     12  H   UNL     1      51.211   7.561  13.856  0.00  0.00    +0.000 HD
ATOM     13  H   UNL     1      49.676   7.230  14.629  0.00  0.00    +0.000 HD
ENDBRANCH   3  10
ENDBRANCH   1   6
BRANCH   1  14
ATOM     14  C   UNL     1      43.412   6.336  11.315  0.00  0.00    +0.000 C 
BRANCH  14  15
ATOM     15  C   UNL     1      43.640   4.878  10.975  0.00  0.00    +0.000 A 
ATOM     16  C   UNL     1      43.054   3.862  11.736  0.00  0.00    +0.000 A 
ATOM     17  C   UNL     1      43.287   2.540  11.389  0.00  0.00    +0.000 A 
ATOM     18  N   UNL     1      44.060   2.164  10.350  0.00  0.00    +0.000 NA
ATOM     19  C   UNL     1      44.642   3.142   9.602  0.00  0.00    +0.000 A 
ATOM     20  C   UNL     1      44.434   4.497   9.884  0.00  0.00    +0.000 A 
BRANCH  19  21
ATOM     21  C   UNL     1      45.548   2.695   8.516  0.00  0.00    +0.000 A 
ATOM     22  C   UNL     1      45.933   3.545   7.477  0.00  0.00    +0.000 A 
ATOM     23  C   UNL     1      46.735   3.057   6.449  0.00  0.00    +0.000 A 
ATOM     24  C   UNL     1      47.145   1.732   6.480  0.00  0.00    +0.000 A 
ATOM     25  C   UNL     1      46.737   0.948   7.545  0.00  0.00    +0.000 A 
ATOM     26  N   UNL     1      45.956   1.395   8.553  0.00  0.00    +0.000 NA
ENDBRANCH  19  21
ENDBRANCH  14  15
ENDBRANCH   1  14
TORSDOF 5
ENDMDL
MODEL 5
REMARK VINA RESULT:    -7.712      2.848      7.749
REMARK INTER + INTRA:         -10.464
REMARK INTER:                  -9.951
REMARK INTRA:                  -0.514
REMARK UNBOUND:                -0.498
REMARK  Name = 
REMARK  5 active torsions:
REMARK  status: ('A' for Active; 'I' for Inactive)
REMARK    1  A    between atoms: C_2  and  C_4
REMARK    2  A    between atoms: C_7  and  N_8
REMARK    3  A    between atoms: N_8  and  C_9
REMARK    4  A    between atoms: C_9  and  C_10
REMARK    5  A    between atoms: C_14  and  C_15
REMARK                            x       y       z     vdW  Elec       q    Type
REMARK                         _______ _______ _______ _____ _____    ______ ____
ROOT
ATOM      1  N   UNL     1      46.443   6.062  12.815  0.00  0.00    +0.000 N 
ATOM      2  H   UNL     1      46.773   7.016  12.679  0.00  0.00    +0.000 HD
ENDROOT
BRANCH   1   6
ATOM      3  C   UNL     1      48.244   4.615  16.230  0.00  0.00    +0.000 A 
ATOM      4  C   UNL     1      47.178   3.939  15.652  0.00  0.00    +0.000 A 
ATOM      5  N   UNL     1      46.542   4.383  14.529  0.00  0.00    +0.000 NA
ATOM      6  C   UNL     1      46.994   5.538  13.996  0.00  0.00    +0.000 A 
ATOM      7  C   UNL     1      48.066   6.211  14.607  0.00  0.00    +0.000 A 
ATOM      8  N   UNL     1      48.712   5.788  15.728  0.00  0.00    +0.000 NA
BRANCH   3  10
ATOM      9  N   UNL     1      48.161   3.848  18.538  0.00  0.00    +0.000 N 
ATOM     10  C   UNL     1      48.930   4.053  17.426  0.00  0.00    +0.000 C 
ATOM     11  O   UNL     1      50.125   3.772  17.417  0.00  0.00    +0.000 OA
ATOM     12  H   UNL     1      48.583   3.388  19.336  0.00  0.00    +0.000 HD
ATOM     13  H   UNL     1      47.151   3.923  18.482  0.00  0.00    +0.000 HD
ENDBRANCH   3  10
ENDBRANCH   1   6
BRANCH   1  14
ATOM     14  C   UNL     1      44.988   5.986  12.710  0.00  0.00    +0.000 C 
BRANCH  14  15
ATOM     15  C   UNL     1      44.599   4.777  11.883  0.00  0.00    +0.000 A 
ATOM     16  C   UNL     1      43.579   3.918  12.303  0.00  0.00    +0.000 A 
ATOM     17  C   UNL     1      43.253   2.824  11.517  0.00  0.00    +0.000 A 
ATOM     18  N   UNL     1      43.871   2.527  10.356  0.00  0.00    +0.000 NA
ATOM     19  C   UNL     1      44.870   3.351   9.935  0.00  0.00    +0.000 A 
ATOM     20  C   UNL     1      45.238   4.484  10.670  0.00  0.00    +0.000 A 
BRANCH  19  21
ATOM     21  C   UNL     1      45.580   2.954   8.696  0.00  0.00    +0.000 A 
ATOM     22  C   UNL     1      46.008   1.643   8.476  0.00  0.00    +0.000 A 
ATOM     23  C   UNL     1      46.726   1.337   7.323  0.00  0.00    +0.000 A 
ATOM     24  C   UNL     1      46.996   2.341   6.406  0.00  0.00    +0.000 A 
ATOM     25  C   UNL     1      46.532   3.616   6.680  0.00  0.00    +0.000 A 
ATOM     26  N   UNL     1      45.838   3.942   7.792  0.00  0.00    +0.000 NA
ENDBRANCH  19  21
ENDBRANCH  14  15
ENDBRANCH   1  14
TORSDOF 5
ENDMDL
MODEL 6
REMARK VINA RESULT:    -7.458      3.313      7.559
REMARK INTER + INTRA:         -10.136
REMARK INTER:                  -9.533
REMARK INTRA:                  -0.603
REMARK UNBOUND:                -0.498
REMARK  Name = 
REMARK  5 active torsions:
REMARK  status: ('A' for Active; 'I' for Inactive)
REMARK    1  A    between atoms: C_2  and  C_4
REMARK    2  A    between atoms: C_7  and  N_8
REMARK    3  A    between atoms: N_8  and  C_9
REMARK    4  A    between atoms: C_9  and  C_10
REMARK    5  A    between atoms: C_14  and  C_15
REMARK                            x       y       z     vdW  Elec       q    Type
REMARK                         _______ _______ _______ _____ _____    ______ ____
ROOT
ATOM      1  N   UNL     1      45.889   7.194  11.557  0.00  0.00    +0.000 N 
ATOM      2  H   UNL     1      45.857   8.119  11.133  0.00  0.00    +0.000 HD
ENDROOT
BRANCH   1   6
ATOM      3  C   UNL     1      48.560   6.992  14.692  0.00  0.00    +0.000 A 
ATOM      4  C   UNL     1      47.991   8.203  14.326  0.00  0.00    +0.000 A 
ATOM      5  N   UNL     1      47.111   8.324  13.290  0.00  0.00    +0.000 NA
ATOM      6  C   UNL     1      46.818   7.194  12.612  0.00  0.00    +0.000 A 
ATOM      7  C   UNL     1      47.418   5.981  12.994  0.00  0.00    +0.000 A 
ATOM      8  N   UNL     1      48.299   5.839  14.021  0.00  0.00    +0.000 NA
BRANCH   3  10
ATOM      9  N   UNL     1      49.453   7.972  16.733  0.00  0.00    +0.000 N 
ATOM     10  C   UNL     1      49.475   6.915  15.865  0.00  0.00    +0.000 C 
ATOM     11  O   UNL     1      50.205   5.948  16.056  0.00  0.00    +0.000 OA
ATOM     12  H   UNL     1      50.001   7.906  17.582  0.00  0.00    +0.000 HD
ATOM     13  H   UNL     1      48.731   8.679  16.658  0.00  0.00    +0.000 HD
ENDBRANCH   3  10
ENDBRANCH   1   6
BRANCH   1  14
ATOM     14  C   UNL     1      44.551   6.719  11.896  0.00  0.00    +0.000 C 
BRANCH  14  15
ATOM     15  C   UNL     1      44.347   5.325  11.339  0.00  0.00    +0.000 A 
ATOM     16  C   UNL     1      43.471   4.426  11.954  0.00  0.00    +0.000 A 
ATOM     17  C   UNL     1      43.313   3.161  11.411  0.00  0.00    +0.000 A 
ATOM     18  N   UNL     1      43.964   2.732  10.311  0.00  0.00    +0.000 NA
ATOM     19  C   UNL     1      44.824   3.594   9.702  0.00  0.00    +0.000 A 
ATOM     20  C   UNL     1      45.018   4.893  10.186  0.00  0.00    +0.000 A 
BRANCH  19  21
ATOM     21  C   UNL     1      45.582   3.067   8.542  0.00  0.00    +0.000 A 
ATOM     22  C   UNL     1      45.956   1.724   8.451  0.00  0.00    +0.000 A 
ATOM     23  C   UNL     1      46.721   1.294   7.370  0.00  0.00    +0.000 A 
ATOM     24  C   UNL     1      47.092   2.209   6.395  0.00  0.00    +0.000 A 
ATOM     25  C   UNL     1      46.678   3.521   6.541  0.00  0.00    +0.000 A 
ATOM     26  N   UNL     1      45.939   3.966   7.582  0.00  0.00    +0.000 NA
ENDBRANCH  19  21
ENDBRANCH  14  15
ENDBRANCH   1  14
TORSDOF 5
ENDMDL
MODEL 7
REMARK VINA RESULT:    -7.045      3.829      7.068
REMARK INTER + INTRA:          -9.602
REMARK INTER:                  -8.870
REMARK INTRA:                  -0.732
REMARK UNBOUND:                -0.498
REMARK  Name = 
REMARK  5 active torsions:
REMARK  status: ('A' for Active; 'I' for Inactive)
REMARK    1  A    between atoms: C_2  and  C_4
REMARK    2  A    between atoms: C_7  and  N_8
REMARK    3  A    between atoms: N_8  and  C_9
REMARK    4  A    between atoms: C_9  and  C_10
REMARK    5  A    between atoms: C_14  and  C_15
REMARK                            x       y       z     vdW  Elec       q    Type
REMARK                         _______ _______ _______ _____ _____    ______ ____
ROOT
ATOM      1  N   UNL     1      45.761   7.428  13.213  0.00  0.00    +0.000 N 
ATOM      2  H   UNL     1      45.627   6.531  13.677  0.00  0.00    +0.000 HD
ENDROOT
BRANCH   1   6
ATOM      3  C   UNL     1      49.695   8.026  12.131  0.00  0.00    +0.000 A 
ATOM      4  C   UNL     1      49.339   6.957  12.941  0.00  0.00    +0.000 A 
ATOM      5  N   UNL     1      48.054   6.722  13.336  0.00  0.00    +0.000 NA
ATOM      6  C   UNL     1      47.121   7.599  12.905  0.00  0.00    +0.000 A 
ATOM      7  C   UNL     1      47.508   8.681  12.096  0.00  0.00    +0.000 A 
ATOM      8  N   UNL     1      48.783   8.934  11.693  0.00  0.00    +0.000 NA
BRANCH   3  10
ATOM      9  N   UNL     1      51.573   7.319  10.754  0.00  0.00    +0.000 N 
ATOM     10  C   UNL     1      51.107   8.199  11.692  0.00  0.00    +0.000 C 
ATOM     11  O   UNL     1      51.819   9.095  12.136  0.00  0.00    +0.000 OA
ATOM     12  H   UNL     1      52.501   7.468  10.376  0.00  0.00    +0.000 HD
ATOM     13  H   UNL     1      50.932   6.697  10.274  0.00  0.00    +0.000 HD
ENDBRANCH   3  10
ENDBRANCH   1   6
BRANCH   1  14
ATOM     14  C   UNL     1      44.837   7.589  12.094  0.00  0.00    +0.000 C 
BRANCH  14  15
ATOM     15  C   UNL     1      44.416   6.228  11.579  0.00  0.00    +0.000 A 
ATOM     16  C   UNL     1      43.347   5.539  12.160  0.00  0.00    +0.000 A 
ATOM     17  C   UNL     1      42.993   4.297  11.658  0.00  0.00    +0.000 A 
ATOM     18  N   UNL     1      43.628   3.696  10.631  0.00  0.00    +0.000 NA
ATOM     19  C   UNL     1      44.675   4.352  10.057  0.00  0.00    +0.000 A 
ATOM     20  C   UNL     1      45.073   5.618  10.501  0.00  0.00    +0.000 A 
BRANCH  19  21
ATOM     21  C   UNL     1      45.400   3.632   8.982  0.00  0.00    +0.000 A 
ATOM     22  C   UNL     1      45.514   2.241   8.970  0.00  0.00    +0.000 A 
ATOM     23  C   UNL     1      46.258   1.619   7.972  0.00  0.00    +0.000 A 
ATOM     24  C   UNL     1      46.869   2.396   6.998  0.00  0.00    +0.000 A 
ATOM     25  C   UNL     1      46.705   3.768   7.062  0.00  0.00    +0.000 A 
ATOM     26  N   UNL     1      45.992   4.398   8.022  0.00  0.00    +0.000 NA
ENDBRANCH  19  21
ENDBRANCH  14  15
ENDBRANCH   1  14
TORSDOF 5
ENDMDL
MODEL 8
REMARK VINA RESULT:    -6.509      3.285      5.659
REMARK INTER + INTRA:          -8.910
REMARK INTER:                  -8.389
REMARK INTRA:                  -0.521
REMARK UNBOUND:                -0.498
REMARK  Name = 
REMARK  5 active torsions:
REMARK  status: ('A' for Active; 'I' for Inactive)
REMARK    1  A    between atoms: C_2  and  C_4
REMARK    2  A    between atoms: C_7  and  N_8
REMARK    3  A    between atoms: N_8  and  C_9
REMARK    4  A    between atoms: C_9  and  C_10
REMARK    5  A    between atoms: C_14  and  C_15
REMARK                            x       y       z     vdW  Elec       q    Type
REMARK                         _______ _______ _______ _____ _____    ______ ____
ROOT
ATOM      1  N   UNL     1      47.041   5.201  15.055  0.00  0.00    +0.000 N 
ATOM      2  H   UNL     1      47.937   5.608  14.795  0.00  0.00    +0.000 HD
ENDROOT
BRANCH   1   6
ATOM      3  C   UNL     1      44.926   4.138  11.679  0.00  0.00    +0.000 A 
ATOM      4  C   UNL     1      45.543   3.172  12.459  0.00  0.00    +0.000 A 
ATOM      5  N   UNL     1      46.263   3.472  13.579  0.00  0.00    +0.000 NA
ATOM      6  C   UNL     1      46.363   4.781  13.898  0.00  0.00    +0.000 A 
ATOM      7  C   UNL     1      45.740   5.742  13.084  0.00  0.00    +0.000 A 
ATOM      8  N   UNL     1      45.020   5.464  11.963  0.00  0.00    +0.000 NA
BRANCH   3  10
ATOM      9  N   UNL     1      43.896   4.703   9.547  0.00  0.00    +0.000 N 
ATOM     10  C   UNL     1      44.110   3.742  10.497  0.00  0.00    +0.000 C 
ATOM     11  O   UNL     1      43.662   2.607  10.369  0.00  0.00    +0.000 OA
ATOM     12  H   UNL     1      43.418   4.436   8.695  0.00  0.00    +0.000 HD
ATOM     13  H   UNL     1      44.408   5.577   9.580  0.00  0.00    +0.000 HD
ENDBRANCH   3  10
ENDBRANCH   1   6
BRANCH   1  14
ATOM     14  C   UNL     1      47.201   4.188  16.095  0.00  0.00    +0.000 C 
BRANCH  14  15
ATOM     15  C   UNL     1      48.460   4.466  16.890  0.00  0.00    +0.000 A 
ATOM     16  C   UNL     1      48.668   5.710  17.494  0.00  0.00    +0.000 A 
ATOM     17  C   UNL     1      49.834   5.922  18.213  0.00  0.00    +0.000 A 
ATOM     18  N   UNL     1      50.799   4.993  18.367  0.00  0.00    +0.000 NA
ATOM     19  C   UNL     1      50.613   3.778  17.780  0.00  0.00    +0.000 A 
ATOM     20  C   UNL     1      49.451   3.489  17.055  0.00  0.00    +0.000 A 
BRANCH  19  21
ATOM     21  C   UNL     1      51.726   2.806  17.902  0.00  0.00    +0.000 A 
ATOM     22  C   UNL     1      51.630   1.505  17.403  0.00  0.00    +0.000 A 
ATOM     23  C   UNL     1      52.680   0.613  17.599  0.00  0.00    +0.000 A 
ATOM     24  C   UNL     1      53.811   1.036  18.282  0.00  0.00    +0.000 A 
ATOM     25  C   UNL     1      53.845   2.342  18.740  0.00  0.00    +0.000 A 
ATOM     26  N   UNL     1      52.839   3.227  18.568  0.00  0.00    +0.000 NA
ENDBRANCH  19  21
ENDBRANCH  14  15
ENDBRANCH   1  14
TORSDOF 5
ENDMDL
MODEL 9
REMARK VINA RESULT:    -6.374      3.344      7.891
REMARK INTER + INTRA:          -8.736
REMARK INTER:                  -8.085
REMARK INTRA:                  -0.650
REMARK UNBOUND:                -0.498
REMARK  Name = 
REMARK  5 active torsions:
REMARK  status: ('A' for Active; 'I' for Inactive)
REMARK    1  A    between atoms: C_2  and  C_4
REMARK    2  A    between atoms: C_7  and  N_8
REMARK    3  A    between atoms: N_8  and  C_9
REMARK    4  A    between atoms: C_9  and  C_10
REMARK    5  A    between atoms: C_14  and  C_15
REMARK                            x       y       z     vdW  Elec       q    Type
REMARK                         _______ _______ _______ _____ _____    ______ ____
ROOT
ATOM      1  N   UNL     1      48.929   6.756  13.343  0.00  0.00    +0.000 N 
ATOM      2  H   UNL     1      49.938   6.865  13.262  0.00  0.00    +0.000 HD
ENDROOT
BRANCH   1   6
ATOM      3  C   UNL     1      48.180   5.366  17.152  0.00  0.00    +0.000 A 
ATOM      4  C   UNL     1      47.657   4.713  16.046  0.00  0.00    +0.000 A 
ATOM      5  N   UNL     1      47.866   5.139  14.767  0.00  0.00    +0.000 NA
ATOM      6  C   UNL     1      48.612   6.255  14.617  0.00  0.00    +0.000 A 
ATOM      7  C   UNL     1      49.120   6.906  15.754  0.00  0.00    +0.000 A 
ATOM      8  N   UNL     1      48.920   6.500  17.038  0.00  0.00    +0.000 NA
BRANCH   3  10
ATOM      9  N   UNL     1      46.890   5.319  19.216  0.00  0.00    +0.000 N 
ATOM     10  C   UNL     1      47.959   4.822  18.521  0.00  0.00    +0.000 C 
ATOM     11  O   UNL     1      48.687   3.960  19.003  0.00  0.00    +0.000 OA
ATOM     12  H   UNL     1      46.668   4.906  20.113  0.00  0.00    +0.000 HD
ATOM     13  H   UNL     1      46.203   5.900  18.749  0.00  0.00    +0.000 HD
ENDBRANCH   3  10
ENDBRANCH   1   6
BRANCH   1  14
ATOM     14  C   UNL     1      48.231   7.979  12.956  0.00  0.00    +0.000 C 
BRANCH  14  15
ATOM     15  C   UNL     1      46.902   7.628  12.319  0.00  0.00    +0.000 A 
ATOM     16  C   UNL     1      45.766   8.410  12.549  0.00  0.00    +0.000 A 
ATOM     17  C   UNL     1      44.570   8.054  11.946  0.00  0.00    +0.000 A 
ATOM     18  N   UNL     1      44.427   6.982  11.141  0.00  0.00    +0.000 NA
ATOM     19  C   UNL     1      45.524   6.207  10.910  0.00  0.00    +0.000 A 
ATOM     20  C   UNL     1      46.767   6.519  11.472  0.00  0.00    +0.000 A 
BRANCH  19  21
ATOM     21  C   UNL     1      45.316   4.994  10.084  0.00  0.00    +0.000 A 
ATOM     22  C   UNL     1      44.686   3.854  10.589  0.00  0.00    +0.000 A 
ATOM     23  C   UNL     1      44.572   2.719   9.790  0.00  0.00    +0.000 A 
ATOM     24  C   UNL     1      45.082   2.744   8.501  0.00  0.00    +0.000 A 
ATOM     25  C   UNL     1      45.683   3.910   8.060  0.00  0.00    +0.000 A 
ATOM     26  N   UNL     1      45.811   5.023   8.814  0.00  0.00    +0.000 NA
ENDBRANCH  19  21
ENDBRANCH  14  15
ENDBRANCH   1  14
TORSDOF 5
ENDMDL
