MODEL 1
REMARK VINA RESULT:    -7.603      0.000      0.000
REMARK INTER + INTRA:          -9.713
REMARK INTER:                  -9.159
REMARK INTRA:                  -0.554
REMARK UNBOUND:                -0.554
REMARK  Name = 
REMARK  4 active torsions:
REMARK  status: ('A' for Active; 'I' for Inactive)
REMARK    1  A    between atoms: N_1  and  C_2
REMARK    2  A    between atoms: C_2  and  C_3
REMARK    3  A    between atoms: C_6  and  C_7
REMARK    4  A    between atoms: C_7  and  N_8
REMARK                            x       y       z     vdW  Elec       q    Type
REMARK                         _______ _______ _______ _____ _____    ______ ____
ROOT
ATOM      1  C   UNL     1      46.775   2.163   7.467  0.00  0.00    +0.000 A 
ATOM      2  C   UNL     1      46.612   3.540   7.264  0.00  0.00    +0.000 A 
ATOM      3  C   UNL     1      45.644   4.259   7.970  0.00  0.00    +0.000 A 
ATOM      4  C   UNL     1      44.814   3.616   8.899  0.00  0.00    +0.000 A 
ATOM      5  C   UNL     1      44.970   2.236   9.095  0.00  0.00    +0.000 A 
ATOM      6  C   UNL     1      45.941   1.519   8.389  0.00  0.00    +0.000 A 
ENDROOT
BRANCH   1   7
ATOM      7  C   UNL     1      47.810   1.391   6.687  0.00  0.00    +0.000 C 
BRANCH   7   8
ATOM      8  N   UNL     1      48.275   2.133   5.520  0.00  0.00    +0.000 NA
ATOM      9  H   UNL     1      48.064   3.120   5.648  0.00  0.00    +0.000 HD
ATOM     10  H   UNL     1      47.744   1.827   4.706  0.00  0.00    +0.000 HD
ENDBRANCH   7   8
ENDBRANCH   1   7
BRANCH   4  11
ATOM     11  C   UNL     1      43.788   4.391   9.685  0.00  0.00    +0.000 C 
BRANCH  11  12
ATOM     12  N   UNL     1      44.070   4.408  11.116  0.00  0.00    +0.000 N 
ATOM     13  C   UNL     1      43.400   3.645  12.046  0.00  0.00    +0.000 A 
ATOM     14  C   UNL     1      44.016   3.818  13.266  0.00  0.00    +0.000 A 
ATOM     15  C   UNL     1      45.101   4.701  13.071  0.00  0.00    +0.000 A 
ATOM     16  N   UNL     1      46.006   5.141  13.980  0.00  0.00    +0.000 NA
ATOM     17  C   UNL     1      46.942   5.977  13.486  0.00  0.00    +0.000 A 
ATOM     18  C   UNL     1      47.033   6.399  12.168  0.00  0.00    +0.000 A 
ATOM     19  C   UNL     1      46.102   5.941  11.241  0.00  0.00    +0.000 A 
ATOM     20  C   UNL     1      45.121   5.068  11.724  0.00  0.00    +0.000 A 
ENDBRANCH  11  12
ENDBRANCH   4  11
TORSDOF 4
ENDMDL
MODEL 2
REMARK VINA RESULT:    -7.531      1.115      2.002
REMARK INTER + INTRA:          -9.626
REMARK INTER:                  -9.107
REMARK INTRA:                  -0.519
REMARK UNBOUND:                -0.554
REMARK  Name = 
REMARK  4 active torsions:
REMARK  status: ('A' for Active; 'I' for Inactive)
REMARK    1  A    between atoms: N_1  and  C_2
REMARK    2  A    between atoms: C_2  and  C_3
REMARK    3  A    between atoms: C_6  and  C_7
REMARK    4  A    between atoms: C_7  and  N_8
REMARK                            x       y       z     vdW  Elec       q    Type
REMARK                         _______ _______ _______ _____ _____    ______ ____
ROOT
ATOM      1  C   UNL     1      46.523   2.334   7.498  0.00  0.00    +0.000 A 
ATOM      2  C   UNL     1      45.774   1.577   8.409  0.00  0.00    +0.000 A 
ATOM      3  C   UNL     1      44.924   2.197   9.328  0.00  0.00    +0.000 A 
ATOM      4  C   UNL     1      44.801   3.593   9.358  0.00  0.00    +0.000 A 
ATOM      5  C   UNL     1      45.557   4.352   8.453  0.00  0.00    +0.000 A 
ATOM      6  C   UNL     1      46.406   3.730   7.532  0.00  0.00    +0.000 A 
ENDROOT
BRANCH   1   7
ATOM      7  C   UNL     1      47.452   1.659   6.521  0.00  0.00    +0.000 C 
BRANCH   7   8
ATOM      8  N   UNL     1      48.637   2.467   6.253  0.00  0.00    +0.000 NA
ATOM      9  H   UNL     1      48.752   2.565   5.247  0.00  0.00    +0.000 HD
ATOM     10  H   UNL     1      49.457   1.966   6.591  0.00  0.00    +0.000 HD
ENDBRANCH   7   8
ENDBRANCH   1   7
BRANCH   4  11
ATOM     11  C   UNL     1      43.863   4.265  10.327  0.00  0.00    +0.000 C 
BRANCH  11  12
ATOM     12  N   UNL     1      44.558   5.134  11.270  0.00  0.00    +0.000 N 
ATOM     13  C   UNL     1      44.336   6.489  11.382  0.00  0.00    +0.000 A 
ATOM     14  C   UNL     1      45.064   6.955  12.454  0.00  0.00    +0.000 A 
ATOM     15  C   UNL     1      45.739   5.851  13.021  0.00  0.00    +0.000 A 
ATOM     16  N   UNL     1      46.551   5.823  14.105  0.00  0.00    +0.000 NA
ATOM     17  C   UNL     1      47.043   4.606  14.412  0.00  0.00    +0.000 A 
ATOM     18  C   UNL     1      46.786   3.433  13.718  0.00  0.00    +0.000 A 
ATOM     19  C   UNL     1      45.948   3.469  12.607  0.00  0.00    +0.000 A 
ATOM     20  C   UNL     1      45.420   4.719  12.268  0.00  0.00    +0.000 A 
ENDBRANCH  11  12
ENDBRANCH   4  11
TORSDOF 4
ENDMDL
MODEL 3
REMARK VINA RESULT:    -6.167      1.970      5.887
REMARK INTER + INTRA:          -7.983
REMARK INTER:                  -7.609
REMARK INTRA:                  -0.373
REMARK UNBOUND:                -0.554
REMARK  Name = 
REMARK  4 active torsions:
REMARK  status: ('A' for Active; 'I' for Inactive)
REMARK    1  A    between atoms: N_1  and  C_2
REMARK    2  A    between atoms: C_2  and  C_3
REMARK    3  A    between atoms: C_6  and  C_7
REMARK    4  A    between atoms: C_7  and  N_8
REMARK                            x       y       z     vdW  Elec       q    Type
REMARK                         _______ _______ _______ _____ _____    ______ ____
ROOT
ATOM      1  C   UNL     1      47.630   7.545  13.728  0.00  0.00    +0.000 A 
ATOM      2  C   UNL     1      47.375   6.189  13.483  0.00  0.00    +0.000 A 
ATOM      3  C   UNL     1      46.213   5.786  12.820  0.00  0.00    +0.000 A 
ATOM      4  C   UNL     1      45.276   6.733  12.383  0.00  0.00    +0.000 A 
ATOM      5  C   UNL     1      45.525   8.089  12.637  0.00  0.00    +0.000 A 
ATOM      6  C   UNL     1      46.689   8.491  13.299  0.00  0.00    +0.000 A 
ENDROOT
BRANCH   1   7
ATOM      7  C   UNL     1      48.877   7.970  14.461  0.00  0.00    +0.000 C 
BRANCH   7   8
ATOM      8  N   UNL     1      49.978   7.038  14.246  0.00  0.00    +0.000 NA
ATOM      9  H   UNL     1      49.858   6.585  13.342  0.00  0.00    +0.000 HD
ATOM     10  H   UNL     1      49.923   6.301  14.948  0.00  0.00    +0.000 HD
ENDBRANCH   7   8
ENDBRANCH   1   7
BRANCH   4  11
ATOM     11  C   UNL     1      44.035   6.306  11.641  0.00  0.00    +0.000 C 
BRANCH  11  12
ATOM     12  N   UNL     1      44.030   4.882  11.327  0.00  0.00    +0.000 N 
ATOM     13  C   UNL     1      43.319   3.937  12.032  0.00  0.00    +0.000 A 
ATOM     14  C   UNL     1      43.443   2.731  11.378  0.00  0.00    +0.000 A 
ATOM     15  C   UNL     1      44.242   2.951  10.233  0.00  0.00    +0.000 A 
ATOM     16  N   UNL     1      44.611   2.063   9.278  0.00  0.00    +0.000 NA
ATOM     17  C   UNL     1      45.375   2.577   8.293  0.00  0.00    +0.000 A 
ATOM     18  C   UNL     1      45.790   3.897   8.200  0.00  0.00    +0.000 A 
ATOM     19  C   UNL     1      45.404   4.804   9.183  0.00  0.00    +0.000 A 
ATOM     20  C   UNL     1      44.608   4.298  10.216  0.00  0.00    +0.000 A 
ENDBRANCH  11  12
ENDBRANCH   4  11
TORSDOF 4
ENDMDL
MODEL 4
REMARK VINA RESULT:    -5.641      2.452      3.302
REMARK INTER + INTRA:          -7.350
REMARK INTER:                  -6.926
REMARK INTRA:                  -0.424
REMARK UNBOUND:                -0.554
REMARK  Name = 
REMARK  4 active torsions:
REMARK  status: ('A' for Active; 'I' for Inactive)
REMARK    1  A    between atoms: N_1  and  C_2
REMARK    2  A    between atoms: C_2  and  C_3
REMARK    3  A    between atoms: C_6  and  C_7
REMARK    4  A    between atoms: C_7  and  N_8
REMARK                            x       y       z     vdW  Elec       q    Type
REMARK                         _______ _______ _______ _____ _____    ______ ____
ROOT
ATOM      1  C   UNL     1      45.502   2.908   8.529  0.00  0.00    +0.000 A 
ATOM      2  C   UNL     1      44.608   2.426   9.493  0.00  0.00    +0.000 A 
ATOM      3  C   UNL     1      44.083   3.274  10.472  0.00  0.00    +0.000 A 
ATOM      4  C   UNL     1      44.441   4.629  10.509  0.00  0.00    +0.000 A 
ATOM      5  C   UNL     1      45.344   5.110   9.550  0.00  0.00    +0.000 A 
ATOM      6  C   UNL     1      45.867   4.260   8.570  0.00  0.00    +0.000 A 
ENDROOT
BRANCH   1   7
ATOM      7  C   UNL     1      46.079   1.983   7.487  0.00  0.00    +0.000 C 
BRANCH   7   8
ATOM      8  N   UNL     1      46.452   0.692   8.055  0.00  0.00    +0.000 NA
ATOM      9  H   UNL     1      46.732   0.066   7.302  0.00  0.00    +0.000 HD
ATOM     10  H   UNL     1      45.629   0.275   8.486  0.00  0.00    +0.000 HD
ENDBRANCH   7   8
ENDBRANCH   1   7
BRANCH   4  11
ATOM     11  C   UNL     1      43.857   5.555  11.544  0.00  0.00    +0.000 C 
BRANCH  11  12
ATOM     12  N   UNL     1      44.856   6.432  12.143  0.00  0.00    +0.000 N 
ATOM     13  C   UNL     1      45.910   5.992  12.912  0.00  0.00    +0.000 A 
ATOM     14  C   UNL     1      46.715   7.073  13.194  0.00  0.00    +0.000 A 
ATOM     15  C   UNL     1      46.142   8.203  12.568  0.00  0.00    +0.000 A 
ATOM     16  N   UNL     1      46.597   9.480  12.548  0.00  0.00    +0.000 NA
ATOM     17  C   UNL     1      45.831  10.342  11.850  0.00  0.00    +0.000 A 
ATOM     18  C   UNL     1      44.658  10.022  11.183  0.00  0.00    +0.000 A 
ATOM     19  C   UNL     1      44.199   8.708  11.206  0.00  0.00    +0.000 A 
ATOM     20  C   UNL     1      44.977   7.790  11.920  0.00  0.00    +0.000 A 
ENDBRANCH  11  12
ENDBRANCH   4  11
TORSDOF 4
ENDMDL
MODEL 5
REMARK VINA RESULT:    -5.313      2.881      4.709
REMARK INTER + INTRA:          -6.954
REMARK INTER:                  -6.485
REMARK INTRA:                  -0.469
REMARK UNBOUND:                -0.554
REMARK  Name = 
REMARK  4 active torsions:
REMARK  status: ('A' for Active; 'I' for Inactive)
REMARK    1  A    between atoms: N_1  and  C_2
REMARK    2  A    between atoms: C_2  and  C_3
REMARK    3  A    between atoms: C_6  and  C_7
REMARK    4  A    between atoms: C_7  and  N_8
REMARK                            x       y       z     vdW  Elec       q    Type
REMARK                         _______ _______ _______ _____ _____    ______ ____
ROOT
ATOM      1  C   UNL     1      44.868   3.465  10.171  0.00  0.00    +0.000 A 
ATOM      2  C   UNL     1      44.888   3.234  11.553  0.00  0.00    +0.000 A 
ATOM      3  C   UNL     1      45.200   4.262  12.447  0.00  0.00    +0.000 A 
ATOM      4  C   UNL     1      45.499   5.548  11.979  0.00  0.00    +0.000 A 
ATOM      5  C   UNL     1      45.489   5.777  10.596  0.00  0.00    +0.000 A 
ATOM      6  C   UNL     1      45.175   4.749   9.702  0.00  0.00    +0.000 A 
ENDROOT
BRANCH   1   7
ATOM      7  C   UNL     1      44.549   2.346   9.211  0.00  0.00    +0.000 C 
BRANCH   7   8
ATOM      8  N   UNL     1      45.757   1.754   8.647  0.00  0.00    +0.000 NA
ATOM      9  H   UNL     1      45.528   1.315   7.758  0.00  0.00    +0.000 HD
ATOM     10  H   UNL     1      46.075   1.009   9.265  0.00  0.00    +0.000 HD
ENDBRANCH   7   8
ENDBRANCH   1   7
BRANCH   4  11
ATOM     11  C   UNL     1      45.808   6.668  12.940  0.00  0.00    +0.000 C 
BRANCH  11  12
ATOM     12  N   UNL     1      47.077   7.324  12.649  0.00  0.00    +0.000 N 
ATOM     13  C   UNL     1      48.294   6.681  12.627  0.00  0.00    +0.000 A 
ATOM     14  C   UNL     1      49.245   7.577  12.191  0.00  0.00    +0.000 A 
ATOM     15  C   UNL     1      48.586   8.798  11.926  0.00  0.00    +0.000 A 
ATOM     16  N   UNL     1      49.110   9.956  11.454  0.00  0.00    +0.000 NA
ATOM     17  C   UNL     1      48.219  10.954  11.292  0.00  0.00    +0.000 A 
ATOM     18  C   UNL     1      46.862  10.879  11.567  0.00  0.00    +0.000 A 
ATOM     19  C   UNL     1      46.331   9.685  12.048  0.00  0.00    +0.000 A 
ATOM     20  C   UNL     1      47.232   8.630  12.223  0.00  0.00    +0.000 A 
ENDBRANCH  11  12
ENDBRANCH   4  11
TORSDOF 4
ENDMDL
MODEL 6
REMARK VINA RESULT:    -5.255      2.598      4.328
REMARK INTER + INTRA:          -6.884
REMARK INTER:                  -6.482
REMARK INTRA:                  -0.403
REMARK UNBOUND:                -0.554
REMARK  Name = 
REMARK  4 active torsions:
REMARK  status: ('A' for Active; 'I' for Inactive)
REMARK    1  A    between atoms: N_1  and  C_2
REMARK    2  A    between atoms: C_2  and  C_3
REMARK    3  A    between atoms: C_6  and  C_7
REMARK    4  A    between atoms: C_7  and  N_8
REMARK                            x       y       z     vdW  Elec       q    Type
REMARK                         _______ _______ _______ _____ _____    ______ ____
ROOT
ATOM      1  C   UNL     1      44.810   3.294  10.075  0.00  0.00    +0.000 A 
ATOM      2  C   UNL     1      44.925   2.912  11.419  0.00  0.00    +0.000 A 
ATOM      3  C   UNL     1      45.151   3.864  12.417  0.00  0.00    +0.000 A 
ATOM      4  C   UNL     1      45.267   5.223  12.095  0.00  0.00    +0.000 A 
ATOM      5  C   UNL     1      45.162   5.604  10.750  0.00  0.00    +0.000 A 
ATOM      6  C   UNL     1      44.934   4.651   9.752  0.00  0.00    +0.000 A 
ENDROOT
BRANCH   1   7
ATOM      7  C   UNL     1      44.585   2.259   9.001  0.00  0.00    +0.000 C 
BRANCH   7   8
ATOM      8  N   UNL     1      45.750   1.400   8.823  0.00  0.00    +0.000 NA
ATOM      9  H   UNL     1      46.275   1.716   8.010  0.00  0.00    +0.000 HD
ATOM     10  H   UNL     1      45.430   0.456   8.612  0.00  0.00    +0.000 HD
ENDBRANCH   7   8
ENDBRANCH   1   7
BRANCH   4  11
ATOM     11  C   UNL     1      45.482   6.256  13.171  0.00  0.00    +0.000 C 
BRANCH  11  12
ATOM     12  N   UNL     1      46.045   7.498  12.653  0.00  0.00    +0.000 N 
ATOM     13  C   UNL     1      45.334   8.668  12.505  0.00  0.00    +0.000 A 
ATOM     14  C   UNL     1      46.211   9.657  12.120  0.00  0.00    +0.000 A 
ATOM     15  C   UNL     1      47.497   9.076  12.044  0.00  0.00    +0.000 A 
ATOM     16  N   UNL     1      48.675   9.670  11.730  0.00  0.00    +0.000 NA
ATOM     17  C   UNL     1      49.744   8.850  11.753  0.00  0.00    +0.000 A 
ATOM     18  C   UNL     1      49.719   7.498  12.062  0.00  0.00    +0.000 A 
ATOM     19  C   UNL     1      48.506   6.896  12.386  0.00  0.00    +0.000 A 
ATOM     20  C   UNL     1      47.379   7.725  12.374  0.00  0.00    +0.000 A 
ENDBRANCH  11  12
ENDBRANCH   4  11
TORSDOF 4
ENDMDL
MODEL 7
REMARK VINA RESULT:    -5.065      4.588      7.808
REMARK INTER + INTRA:          -6.655
REMARK INTER:                  -6.107
REMARK INTRA:                  -0.549
REMARK UNBOUND:                -0.554
REMARK  Name = 
REMARK  4 active torsions:
REMARK  status: ('A' for Active; 'I' for Inactive)
REMARK    1  A    between atoms: N_1  and  C_2
REMARK    2  A    between atoms: C_2  and  C_3
REMARK    3  A    between atoms: C_6  and  C_7
REMARK    4  A    between atoms: C_7  and  N_8
REMARK                            x       y       z     vdW  Elec       q    Type
REMARK                         _______ _______ _______ _____ _____    ______ ____
ROOT
ATOM      1  C   UNL     1      50.945   2.415  17.409  0.00  0.00    +0.000 A 
ATOM      2  C   UNL     1      49.801   1.823  16.858  0.00  0.00    +0.000 A 
ATOM      3  C   UNL     1      48.666   2.586  16.573  0.00  0.00    +0.000 A 
ATOM      4  C   UNL     1      48.649   3.964  16.830  0.00  0.00    +0.000 A 
ATOM      5  C   UNL     1      49.790   4.555  17.390  0.00  0.00    +0.000 A 
ATOM      6  C   UNL     1      50.926   3.791  17.674  0.00  0.00    +0.000 A 
ENDROOT
BRANCH   1   7
ATOM      7  C   UNL     1      52.160   1.582  17.732  0.00  0.00    +0.000 C 
BRANCH   7   8
ATOM      8  N   UNL     1      51.799   0.219  18.105  0.00  0.00    +0.000 NA
ATOM      9  H   UNL     1      51.702   0.166  19.117  0.00  0.00    +0.000 HD
ATOM     10  H   UNL     1      52.566  -0.402  17.855  0.00  0.00    +0.000 HD
ENDBRANCH   7   8
ENDBRANCH   1   7
BRANCH   4  11
ATOM     11  C   UNL     1      47.438   4.797  16.496  0.00  0.00    +0.000 C 
BRANCH  11  12
ATOM     12  N   UNL     1      47.323   5.077  15.070  0.00  0.00    +0.000 N 
ATOM     13  C   UNL     1      46.422   4.461  14.230  0.00  0.00    +0.000 A 
ATOM     14  C   UNL     1      46.507   5.063  12.994  0.00  0.00    +0.000 A 
ATOM     15  C   UNL     1      47.479   6.084  13.086  0.00  0.00    +0.000 A 
ATOM     16  N   UNL     1      47.882   6.955  12.129  0.00  0.00    +0.000 NA
ATOM     17  C   UNL     1      48.828   7.831  12.525  0.00  0.00    +0.000 A 
ATOM     18  C   UNL     1      49.392   7.893  13.790  0.00  0.00    +0.000 A 
ATOM     19  C   UNL     1      48.971   6.997  14.768  0.00  0.00    +0.000 A 
ATOM     20  C   UNL     1      47.987   6.078  14.387  0.00  0.00    +0.000 A 
ENDBRANCH  11  12
ENDBRANCH   4  11
TORSDOF 4
ENDMDL
MODEL 8
REMARK VINA RESULT:    -4.955      4.410      7.788
REMARK INTER + INTRA:          -6.523
REMARK INTER:                  -6.273
REMARK INTRA:                  -0.250
REMARK UNBOUND:                -0.554
REMARK  Name = 
REMARK  4 active torsions:
REMARK  status: ('A' for Active; 'I' for Inactive)
REMARK    1  A    between atoms: N_1  and  C_2
REMARK    2  A    between atoms: C_2  and  C_3
REMARK    3  A    between atoms: C_6  and  C_7
REMARK    4  A    between atoms: C_7  and  N_8
REMARK                            x       y       z     vdW  Elec       q    Type
REMARK                         _______ _______ _______ _____ _____    ______ ____
ROOT
ATOM      1  C   UNL     1      50.812   2.373  17.382  0.00  0.00    +0.000 A 
ATOM      2  C   UNL     1      49.827   1.782  16.579  0.00  0.00    +0.000 A 
ATOM      3  C   UNL     1      48.667   2.482  16.237  0.00  0.00    +0.000 A 
ATOM      4  C   UNL     1      48.464   3.792  16.691  0.00  0.00    +0.000 A 
ATOM      5  C   UNL     1      49.444   4.380  17.503  0.00  0.00    +0.000 A 
ATOM      6  C   UNL     1      50.606   3.679  17.843  0.00  0.00    +0.000 A 
ENDROOT
BRANCH   1   7
ATOM      7  C   UNL     1      52.053   1.605  17.762  0.00  0.00    +0.000 C 
BRANCH   7   8
ATOM      8  N   UNL     1      51.748   0.224  18.123  0.00  0.00    +0.000 NA
ATOM      9  H   UNL     1      51.206  -0.202  17.374  0.00  0.00    +0.000 HD
ATOM     10  H   UNL     1      51.151   0.227  18.948  0.00  0.00    +0.000 HD
ENDBRANCH   7   8
ENDBRANCH   1   7
BRANCH   4  11
ATOM     11  C   UNL     1      47.228   4.562  16.302  0.00  0.00    +0.000 C 
BRANCH  11  12
ATOM     12  N   UNL     1      47.439   5.413  15.137  0.00  0.00    +0.000 N 
ATOM     13  C   UNL     1      48.465   6.324  15.019  0.00  0.00    +0.000 A 
ATOM     14  C   UNL     1      48.431   6.847  13.746  0.00  0.00    +0.000 A 
ATOM     15  C   UNL     1      47.361   6.227  13.062  0.00  0.00    +0.000 A 
ATOM     16  N   UNL     1      46.961   6.406  11.779  0.00  0.00    +0.000 NA
ATOM     17  C   UNL     1      45.905   5.656  11.407  0.00  0.00    +0.000 A 
ATOM     18  C   UNL     1      45.229   4.755  12.216  0.00  0.00    +0.000 A 
ATOM     19  C   UNL     1      45.647   4.574  13.531  0.00  0.00    +0.000 A 
ATOM     20  C   UNL     1      46.745   5.337  13.944  0.00  0.00    +0.000 A 
ENDBRANCH  11  12
ENDBRANCH   4  11
TORSDOF 4
ENDMDL
MODEL 9
REMARK VINA RESULT:    -4.878      3.324      5.818
REMARK INTER + INTRA:          -6.430
REMARK INTER:                  -6.128
REMARK INTRA:                  -0.302
REMARK UNBOUND:                -0.554
REMARK  Name = 
REMARK  4 active torsions:
REMARK  status: ('A' for Active; 'I' for Inactive)
REMARK    1  A    between atoms: N_1  and  C_2
REMARK    2  A    between atoms: C_2  and  C_3
REMARK    3  A    between atoms: C_6  and  C_7
REMARK    4  A    between atoms: C_7  and  N_8
REMARK                            x       y       z     vdW  Elec       q    Type
REMARK                         _______ _______ _______ _____ _____    ______ ____
ROOT
ATOM      1  C   UNL     1      44.772   4.378  11.357  0.00  0.00    +0.000 A 
ATOM      2  C   UNL     1      45.421   5.425  10.690  0.00  0.00    +0.000 A 
ATOM      3  C   UNL     1      46.361   6.221  11.350  0.00  0.00    +0.000 A 
ATOM      4  C   UNL     1      46.675   5.987  12.696  0.00  0.00    +0.000 A 
ATOM      5  C   UNL     1      46.019   4.946  13.366  0.00  0.00    +0.000 A 
ATOM      6  C   UNL     1      45.080   4.149  12.704  0.00  0.00    +0.000 A 
ENDROOT
BRANCH   1   7
ATOM      7  C   UNL     1      43.745   3.534  10.644  0.00  0.00    +0.000 C 
BRANCH   7   8
ATOM      8  N   UNL     1      42.951   2.742  11.577  0.00  0.00    +0.000 NA
ATOM      9  H   UNL     1      42.017   2.614  11.192  0.00  0.00    +0.000 HD
ATOM     10  H   UNL     1      42.838   3.271  12.440  0.00  0.00    +0.000 HD
ENDBRANCH   7   8
ENDBRANCH   1   7
BRANCH   4  11
ATOM     11  C   UNL     1      47.710   6.824  13.404  0.00  0.00    +0.000 C 
BRANCH  11  12
ATOM     12  N   UNL     1      47.970   8.088  12.726  0.00  0.00    +0.000 N 
ATOM     13  C   UNL     1      47.132   9.180  12.774  0.00  0.00    +0.000 A 
ATOM     14  C   UNL     1      47.756  10.228  12.135  0.00  0.00    +0.000 A 
ATOM     15  C   UNL     1      49.017   9.767  11.696  0.00  0.00    +0.000 A 
ATOM     16  N   UNL     1      49.987  10.452  11.043  0.00  0.00    +0.000 NA
ATOM     17  C   UNL     1      51.095   9.736  10.766  0.00  0.00    +0.000 A 
ATOM     18  C   UNL     1      51.297   8.403  11.088  0.00  0.00    +0.000 A 
ATOM     19  C   UNL     1      50.298   7.706  11.761  0.00  0.00    +0.000 A 
ATOM     20  C   UNL     1      49.137   8.426  12.066  0.00  0.00    +0.000 A 
ENDBRANCH  11  12
ENDBRANCH   4  11
TORSDOF 4
ENDMDL
