MODEL 1
REMARK VINA RESULT:    -8.845      0.000      0.000
REMARK INTER + INTRA:         -12.937
REMARK INTER:                 -11.947
REMARK INTRA:                  -0.989
REMARK UNBOUND:                -0.989
REMARK  Name = 
REMARK  6 active torsions:
REMARK  status: ('A' for Active; 'I' for Inactive)
REMARK    1  A    between atoms: C_2  and  C_4
REMARK    2  A    between atoms: C_7  and  C_8
REMARK    3  A    between atoms: C_8  and  C_9
REMARK    4  A    between atoms: C_12  and  C_13
REMARK    5  A    between atoms: C_13  and  N_14
REMARK    6  A    between atoms: C_15  and  C_17
REMARK                            x       y       z     vdW  Elec       q    Type
REMARK                         _______ _______ _______ _____ _____    ______ ____
ROOT
ATOM      1  C   UNL     1      44.848   5.733  11.248  0.00  0.00    +0.000 A 
ATOM      2  C   UNL     1      44.493   7.080  11.404  0.00  0.00    +0.000 A 
ATOM      3  C   UNL     1      45.261   7.932  12.205  0.00  0.00    +0.000 A 
ATOM      4  C   UNL     1      46.407   7.459  12.856  0.00  0.00    +0.000 A 
ATOM      5  C   UNL     1      46.737   6.103  12.734  0.00  0.00    +0.000 A 
ATOM      6  C   UNL     1      45.971   5.252  11.932  0.00  0.00    +0.000 A 
ENDROOT
BRANCH   1   7
ATOM      7  C   UNL     1      44.040   4.821  10.355  0.00  0.00    +0.000 C 
BRANCH   7  11
ATOM      8  C   UNL     1      46.435   2.533   7.684  0.00  0.00    +0.000 A 
ATOM      9  C   UNL     1      45.673   1.846   8.619  0.00  0.00    +0.000 A 
ATOM     10  C   UNL     1      44.877   2.586   9.491  0.00  0.00    +0.000 A 
ATOM     11  C   UNL     1      44.865   3.984   9.408  0.00  0.00    +0.000 A 
ATOM     12  C   UNL     1      45.652   4.572   8.420  0.00  0.00    +0.000 A 
ATOM     13  N   UNL     1      46.444   3.889   7.560  0.00  0.00    +0.000 NA
BRANCH   8  15
ATOM     14  N   UNL     1      48.337   2.482   6.178  0.00  0.00    +0.000 N 
ATOM     15  C   UNL     1      47.320   1.765   6.751  0.00  0.00    +0.000 C 
ATOM     16  O   UNL     1      47.163   0.573   6.514  0.00  0.00    +0.000 OA
ATOM     17  H   UNL     1      48.974   2.027   5.542  0.00  0.00    +0.000 HD
ATOM     18  H   UNL     1      48.442   3.465   6.403  0.00  0.00    +0.000 HD
ENDBRANCH   8  15
ENDBRANCH   7  11
ENDBRANCH   1   7
BRANCH   4  19
ATOM     19  C   UNL     1      47.265   8.379  13.683  0.00  0.00    +0.000 C 
BRANCH  19  20
ATOM     20  N   UNL     1      47.730   7.741  14.888  0.00  0.00    +0.000 N 
ATOM     21  C   UNL     1      49.000   7.228  14.962  0.00  0.00    +0.000 C 
ATOM     22  O   UNL     1      49.802   7.340  14.039  0.00  0.00    +0.000 OA
ATOM     23  H   UNL     1      47.027   7.444  15.558  0.00  0.00    +0.000 HD
BRANCH  21  24
ATOM     24  C   UNL     1      49.381   6.586  16.228  0.00  0.00    +0.000 A 
ATOM     25  C   UNL     1      50.407   7.131  16.991  0.00  0.00    +0.000 A 
ATOM     26  S   UNL     1      50.694   6.296  18.449  0.00  0.00    +0.000 S 
ATOM     27  C   UNL     1      49.495   5.144  18.089  0.00  0.00    +0.000 A 
ATOM     28  N   UNL     1      49.244   4.111  18.937  0.00  0.00    +0.000 NA
ATOM     29  C   UNL     1      48.334   3.292  18.525  0.00  0.00    +0.000 A 
ATOM     30  N   UNL     1      47.647   3.419  17.345  0.00  0.00    +0.000 N 
ATOM     31  C   UNL     1      47.843   4.464  16.474  0.00  0.00    +0.000 A 
ATOM     32  O   UNL     1      47.180   4.571  15.448  0.00  0.00    +0.000 OA
ATOM     33  C   UNL     1      48.869   5.405  16.882  0.00  0.00    +0.000 A 
ATOM     34  H   UNL     1      46.940   2.748  17.085  0.00  0.00    +0.000 HD
ENDBRANCH  21  24
ENDBRANCH  19  20
ENDBRANCH   4  19
TORSDOF 6
ENDMDL
MODEL 2
REMARK VINA RESULT:    -8.287      1.742      2.065
REMARK INTER + INTRA:         -12.184
REMARK INTER:                 -11.074
REMARK INTRA:                  -1.110
REMARK UNBOUND:                -0.989
REMARK  Name = 
REMARK  6 active torsions:
REMARK  status: ('A' for Active; 'I' for Inactive)
REMARK    1  A    between atoms: C_2  and  C_4
REMARK    2  A    between atoms: C_7  and  C_8
REMARK    3  A    between atoms: C_8  and  C_9
REMARK    4  A    between atoms: C_12  and  C_13
REMARK    5  A    between atoms: C_13  and  N_14
REMARK    6  A    between atoms: C_15  and  C_17
REMARK                            x       y       z     vdW  Elec       q    Type
REMARK                         _______ _______ _______ _____ _____    ______ ____
ROOT
ATOM      1  C   UNL     1      45.079   5.675  11.334  0.00  0.00    +0.000 A 
ATOM      2  C   UNL     1      45.010   7.075  11.333  0.00  0.00    +0.000 A 
ATOM      3  C   UNL     1      45.835   7.831  12.172  0.00  0.00    +0.000 A 
ATOM      4  C   UNL     1      46.756   7.204  13.021  0.00  0.00    +0.000 A 
ATOM      5  C   UNL     1      46.795   5.804  13.052  0.00  0.00    +0.000 A 
ATOM      6  C   UNL     1      45.972   5.048  12.213  0.00  0.00    +0.000 A 
ENDROOT
BRANCH   1   7
ATOM      7  C   UNL     1      44.213   4.859  10.403  0.00  0.00    +0.000 C 
BRANCH   7  11
ATOM      8  C   UNL     1      46.452   2.511   7.650  0.00  0.00    +0.000 A 
ATOM      9  C   UNL     1      45.687   1.844   8.597  0.00  0.00    +0.000 A 
ATOM     10  C   UNL     1      44.942   2.604   9.495  0.00  0.00    +0.000 A 
ATOM     11  C   UNL     1      44.982   4.001   9.428  0.00  0.00    +0.000 A 
ATOM     12  C   UNL     1      45.767   4.571   8.427  0.00  0.00    +0.000 A 
ATOM     13  N   UNL     1      46.511   3.867   7.540  0.00  0.00    +0.000 NA
BRANCH   8  15
ATOM     14  N   UNL     1      48.292   2.414   6.070  0.00  0.00    +0.000 N 
ATOM     15  C   UNL     1      47.285   1.720   6.688  0.00  0.00    +0.000 C 
ATOM     16  O   UNL     1      47.095   0.531   6.465  0.00  0.00    +0.000 OA
ATOM     17  H   UNL     1      48.894   1.943   5.412  0.00  0.00    +0.000 HD
ATOM     18  H   UNL     1      48.425   3.396   6.284  0.00  0.00    +0.000 HD
ENDBRANCH   8  15
ENDBRANCH   7  11
ENDBRANCH   1   7
BRANCH   4  19
ATOM     19  C   UNL     1      47.681   8.011  13.894  0.00  0.00    +0.000 C 
BRANCH  19  20
ATOM     20  N   UNL     1      47.794   7.451  15.216  0.00  0.00    +0.000 N 
ATOM     21  C   UNL     1      48.965   6.867  15.630  0.00  0.00    +0.000 C 
ATOM     22  O   UNL     1      49.968   6.848  14.922  0.00  0.00    +0.000 OA
ATOM     23  H   UNL     1      46.932   7.257  15.715  0.00  0.00    +0.000 HD
BRANCH  21  24
ATOM     24  C   UNL     1      48.983   6.313  16.991  0.00  0.00    +0.000 A 
ATOM     25  C   UNL     1      49.427   5.012  17.195  0.00  0.00    +0.000 A 
ATOM     26  S   UNL     1      49.429   4.539  18.832  0.00  0.00    +0.000 S 
ATOM     27  C   UNL     1      48.786   6.035  19.323  0.00  0.00    +0.000 A 
ATOM     28  N   UNL     1      48.514   6.282  20.632  0.00  0.00    +0.000 NA
ATOM     29  C   UNL     1      47.997   7.443  20.860  0.00  0.00    +0.000 A 
ATOM     30  N   UNL     1      47.734   8.382  19.897  0.00  0.00    +0.000 N 
ATOM     31  C   UNL     1      48.023   8.190  18.566  0.00  0.00    +0.000 A 
ATOM     32  O   UNL     1      47.817   9.069  17.737  0.00  0.00    +0.000 OA
ATOM     33  C   UNL     1      48.591   6.893  18.254  0.00  0.00    +0.000 A 
ATOM     34  H   UNL     1      47.337   9.276  20.143  0.00  0.00    +0.000 HD
ENDBRANCH  21  24
ENDBRANCH  19  20
ENDBRANCH   4  19
TORSDOF 6
ENDMDL
MODEL 3
REMARK VINA RESULT:    -8.003      1.634      2.049
REMARK INTER + INTRA:         -11.800
REMARK INTER:                 -10.681
REMARK INTRA:                  -1.118
REMARK UNBOUND:                -0.989
REMARK  Name = 
REMARK  6 active torsions:
REMARK  status: ('A' for Active; 'I' for Inactive)
REMARK    1  A    between atoms: C_2  and  C_4
REMARK    2  A    between atoms: C_7  and  C_8
REMARK    3  A    between atoms: C_8  and  C_9
REMARK    4  A    between atoms: C_12  and  C_13
REMARK    5  A    between atoms: C_13  and  N_14
REMARK    6  A    between atoms: C_15  and  C_17
REMARK                            x       y       z     vdW  Elec       q    Type
REMARK                         _______ _______ _______ _____ _____    ______ ____
ROOT
ATOM      1  C   UNL     1      44.942   5.952  11.212  0.00  0.00    +0.000 A 
ATOM      2  C   UNL     1      46.036   5.522  11.975  0.00  0.00    +0.000 A 
ATOM      3  C   UNL     1      46.797   6.438  12.710  0.00  0.00    +0.000 A 
ATOM      4  C   UNL     1      46.472   7.800  12.707  0.00  0.00    +0.000 A 
ATOM      5  C   UNL     1      45.404   8.235  11.910  0.00  0.00    +0.000 A 
ATOM      6  C   UNL     1      44.643   7.320  11.178  0.00  0.00    +0.000 A 
ENDROOT
BRANCH   1   7
ATOM      7  C   UNL     1      44.097   4.959  10.447  0.00  0.00    +0.000 C 
BRANCH   7  11
ATOM      8  C   UNL     1      46.247   2.158   8.073  0.00  0.00    +0.000 A 
ATOM      9  C   UNL     1      46.338   3.501   7.732  0.00  0.00    +0.000 A 
ATOM     10  C   UNL     1      45.647   4.426   8.510  0.00  0.00    +0.000 A 
ATOM     11  C   UNL     1      44.885   3.991   9.600  0.00  0.00    +0.000 A 
ATOM     12  C   UNL     1      44.876   2.623   9.867  0.00  0.00    +0.000 A 
ATOM     13  N   UNL     1      45.527   1.691   9.130  0.00  0.00    +0.000 NA
BRANCH   8  15
ATOM     14  N   UNL     1      46.896  -0.151   7.702  0.00  0.00    +0.000 N 
ATOM     15  C   UNL     1      46.957   1.137   7.238  0.00  0.00    +0.000 C 
ATOM     16  O   UNL     1      47.550   1.419   6.204  0.00  0.00    +0.000 OA
ATOM     17  H   UNL     1      47.350  -0.890   7.188  0.00  0.00    +0.000 HD
ATOM     18  H   UNL     1      46.390  -0.349   8.558  0.00  0.00    +0.000 HD
ENDBRANCH   8  15
ENDBRANCH   7  11
ENDBRANCH   1   7
BRANCH   4  19
ATOM     19  C   UNL     1      47.257   8.787  13.531  0.00  0.00    +0.000 C 
BRANCH  19  20
ATOM     20  N   UNL     1      47.519   8.289  14.856  0.00  0.00    +0.000 N 
ATOM     21  C   UNL     1      48.305   9.000  15.727  0.00  0.00    +0.000 C 
ATOM     22  O   UNL     1      48.764  10.101  15.439  0.00  0.00    +0.000 OA
ATOM     23  H   UNL     1      47.344   7.304  15.027  0.00  0.00    +0.000 HD
BRANCH  21  24
ATOM     24  C   UNL     1      48.525   8.408  17.054  0.00  0.00    +0.000 A 
ATOM     25  C   UNL     1      48.468   9.216  18.183  0.00  0.00    +0.000 A 
ATOM     26  S   UNL     1      48.699   8.369  19.644  0.00  0.00    +0.000 S 
ATOM     27  C   UNL     1      48.937   6.901  18.819  0.00  0.00    +0.000 A 
ATOM     28  N   UNL     1      49.212   5.756  19.499  0.00  0.00    +0.000 NA
ATOM     29  C   UNL     1      49.405   4.723  18.748  0.00  0.00    +0.000 A 
ATOM     30  N   UNL     1      49.339   4.731  17.379  0.00  0.00    +0.000 N 
ATOM     31  C   UNL     1      49.031   5.856  16.651  0.00  0.00    +0.000 A 
ATOM     32  O   UNL     1      48.935   5.819  15.429  0.00  0.00    +0.000 OA
ATOM     33  C   UNL     1      48.822   7.051  17.448  0.00  0.00    +0.000 A 
ATOM     34  H   UNL     1      49.490   3.886  16.849  0.00  0.00    +0.000 HD
ENDBRANCH  21  24
ENDBRANCH  19  20
ENDBRANCH   4  19
TORSDOF 6
ENDMDL
MODEL 4
REMARK VINA RESULT:    -7.509      3.104      3.873
REMARK INTER + INTRA:         -11.132
REMARK INTER:                 -10.085
REMARK INTRA:                  -1.047
REMARK UNBOUND:                -0.989
REMARK  Name = 
REMARK  6 active torsions:
REMARK  status: ('A' for Active; 'I' for Inactive)
REMARK    1  A    between atoms: C_2  and  C_4
REMARK    2  A    between atoms: C_7  and  C_8
REMARK    3  A    between atoms: C_8  and  C_9
REMARK    4  A    between atoms: C_12  and  C_13
REMARK    5  A    between atoms: C_13  and  N_14
REMARK    6  A    between atoms: C_15  and  C_17
REMARK                            x       y       z     vdW  Elec       q    Type
REMARK                         _______ _______ _______ _____ _____    ______ ____
ROOT
ATOM      1  C   UNL     1      44.775   5.685  11.323  0.00  0.00    +0.000 A 
ATOM      2  C   UNL     1      44.526   7.064  11.291  0.00  0.00    +0.000 A 
ATOM      3  C   UNL     1      45.270   7.942  12.087  0.00  0.00    +0.000 A 
ATOM      4  C   UNL     1      46.287   7.460  12.920  0.00  0.00    +0.000 A 
ATOM      5  C   UNL     1      46.508   6.078  12.982  0.00  0.00    +0.000 A 
ATOM      6  C   UNL     1      45.766   5.202  12.186  0.00  0.00    +0.000 A 
ENDROOT
BRANCH   1   7
ATOM      7  C   UNL     1      43.996   4.739  10.437  0.00  0.00    +0.000 C 
BRANCH   7  11
ATOM      8  C   UNL     1      46.457   2.558   7.737  0.00  0.00    +0.000 A 
ATOM      9  C   UNL     1      45.680   1.836   8.633  0.00  0.00    +0.000 A 
ATOM     10  C   UNL     1      44.863   2.541   9.514  0.00  0.00    +0.000 A 
ATOM     11  C   UNL     1      44.844   3.940   9.479  0.00  0.00    +0.000 A 
ATOM     12  C   UNL     1      45.647   4.567   8.528  0.00  0.00    +0.000 A 
ATOM     13  N   UNL     1      46.461   3.918   7.660  0.00  0.00    +0.000 NA
BRANCH   8  15
ATOM     14  N   UNL     1      48.406   2.562   6.291  0.00  0.00    +0.000 N 
ATOM     15  C   UNL     1      47.365   1.828   6.796  0.00  0.00    +0.000 C 
ATOM     16  O   UNL     1      47.205   0.651   6.496  0.00  0.00    +0.000 OA
ATOM     17  H   UNL     1      49.059   2.133   5.654  0.00  0.00    +0.000 HD
ATOM     18  H   UNL     1      48.512   3.532   6.568  0.00  0.00    +0.000 HD
ENDBRANCH   8  15
ENDBRANCH   7  11
ENDBRANCH   1   7
BRANCH   4  19
ATOM     19  C   UNL     1      47.124   8.402  13.745  0.00  0.00    +0.000 C 
BRANCH  19  20
ATOM     20  N   UNL     1      48.520   8.318  13.403  0.00  0.00    +0.000 N 
ATOM     21  C   UNL     1      49.321   9.432  13.453  0.00  0.00    +0.000 C 
ATOM     22  O   UNL     1      48.901  10.518  13.841  0.00  0.00    +0.000 OA
ATOM     23  H   UNL     1      48.823   7.505  12.876  0.00  0.00    +0.000 HD
BRANCH  21  24
ATOM     24  C   UNL     1      50.730   9.251  13.077  0.00  0.00    +0.000 A 
ATOM     25  C   UNL     1      51.204   9.823  11.902  0.00  0.00    +0.000 A 
ATOM     26  S   UNL     1      52.866   9.560  11.634  0.00  0.00    +0.000 S 
ATOM     27  C   UNL     1      53.003   8.626  13.048  0.00  0.00    +0.000 A 
ATOM     28  N   UNL     1      54.189   8.061  13.400  0.00  0.00    +0.000 NA
ATOM     29  C   UNL     1      54.143   7.350  14.477  0.00  0.00    +0.000 A 
ATOM     30  N   UNL     1      53.019   7.158  15.238  0.00  0.00    +0.000 N 
ATOM     31  C   UNL     1      51.807   7.735  14.940  0.00  0.00    +0.000 A 
ATOM     32  O   UNL     1      50.832   7.580  15.667  0.00  0.00    +0.000 OA
ATOM     33  C   UNL     1      51.800   8.533  13.728  0.00  0.00    +0.000 A 
ATOM     34  H   UNL     1      53.051   6.597  16.076  0.00  0.00    +0.000 HD
ENDBRANCH  21  24
ENDBRANCH  19  20
ENDBRANCH   4  19
TORSDOF 6
ENDMDL
MODEL 5
REMARK VINA RESULT:    -7.446      4.997      7.206
REMARK INTER + INTRA:         -11.047
REMARK INTER:                  -9.948
REMARK INTRA:                  -1.099
REMARK UNBOUND:                -0.989
REMARK  Name = 
REMARK  6 active torsions:
REMARK  status: ('A' for Active; 'I' for Inactive)
REMARK    1  A    between atoms: C_2  and  C_4
REMARK    2  A    between atoms: C_7  and  C_8
REMARK    3  A    between atoms: C_8  and  C_9
REMARK    4  A    between atoms: C_12  and  C_13
REMARK    5  A    between atoms: C_13  and  N_14
REMARK    6  A    between atoms: C_15  and  C_17
REMARK                            x       y       z     vdW  Elec       q    Type
REMARK                         _______ _______ _______ _____ _____    ______ ____
ROOT
ATOM      1  C   UNL     1      51.208   8.542  11.005  0.00  0.00    +0.000 A 
ATOM      2  C   UNL     1      50.542   9.773  11.074  0.00  0.00    +0.000 A 
ATOM      3  C   UNL     1      49.223   9.846  11.534  0.00  0.00    +0.000 A 
ATOM      4  C   UNL     1      48.547   8.691  11.949  0.00  0.00    +0.000 A 
ATOM      5  C   UNL     1      49.199   7.456  11.841  0.00  0.00    +0.000 A 
ATOM      6  C   UNL     1      50.517   7.383  11.382  0.00  0.00    +0.000 A 
ENDROOT
BRANCH   1   7
ATOM      7  C   UNL     1      52.644   8.466  10.541  0.00  0.00    +0.000 C 
BRANCH   7  11
ATOM      8  C   UNL     1      53.348   5.548   7.525  0.00  0.00    +0.000 A 
ATOM      9  C   UNL     1      52.632   6.684   7.172  0.00  0.00    +0.000 A 
ATOM     10  C   UNL     1      52.406   7.650   8.150  0.00  0.00    +0.000 A 
ATOM     11  C   UNL     1      52.895   7.457   9.447  0.00  0.00    +0.000 A 
ATOM     12  C   UNL     1      53.618   6.291   9.691  0.00  0.00    +0.000 A 
ATOM     13  N   UNL     1      53.852   5.325   8.770  0.00  0.00    +0.000 NA
BRANCH   8  15
ATOM     14  N   UNL     1      53.219   3.214   6.876  0.00  0.00    +0.000 N 
ATOM     15  C   UNL     1      53.583   4.481   6.501  0.00  0.00    +0.000 C 
ATOM     16  O   UNL     1      54.059   4.712   5.396  0.00  0.00    +0.000 OA
ATOM     17  H   UNL     1      53.346   2.446   6.234  0.00  0.00    +0.000 HD
ATOM     18  H   UNL     1      52.820   3.061   7.795  0.00  0.00    +0.000 HD
ENDBRANCH   8  15
ENDBRANCH   7  11
ENDBRANCH   1   7
BRANCH   4  19
ATOM     19  C   UNL     1      47.144   8.766  12.490  0.00  0.00    +0.000 C 
BRANCH  19  20
ATOM     20  N   UNL     1      46.493   7.482  12.473  0.00  0.00    +0.000 N 
ATOM     21  C   UNL     1      45.326   7.298  11.776  0.00  0.00    +0.000 C 
ATOM     22  O   UNL     1      44.824   8.191  11.101  0.00  0.00    +0.000 OA
ATOM     23  H   UNL     1      46.761   6.815  13.191  0.00  0.00    +0.000 HD
BRANCH  21  24
ATOM     24  C   UNL     1      44.730   5.955  11.827  0.00  0.00    +0.000 A 
ATOM     25  C   UNL     1      44.026   5.561  12.958  0.00  0.00    +0.000 A 
ATOM     26  S   UNL     1      43.360   3.996  12.840  0.00  0.00    +0.000 S 
ATOM     27  C   UNL     1      44.033   3.767  11.294  0.00  0.00    +0.000 A 
ATOM     28  N   UNL     1      43.859   2.597  10.624  0.00  0.00    +0.000 NA
ATOM     29  C   UNL     1      44.452   2.545   9.478  0.00  0.00    +0.000 A 
ATOM     30  N   UNL     1      45.197   3.562   8.939  0.00  0.00    +0.000 N 
ATOM     31  C   UNL     1      45.373   4.774   9.564  0.00  0.00    +0.000 A 
ATOM     32  O   UNL     1      46.008   5.678   9.033  0.00  0.00    +0.000 OA
ATOM     33  C   UNL     1      44.740   4.878  10.865  0.00  0.00    +0.000 A 
ATOM     34  H   UNL     1      45.628   3.462   8.032  0.00  0.00    +0.000 HD
ENDBRANCH  21  24
ENDBRANCH  19  20
ENDBRANCH   4  19
TORSDOF 6
ENDMDL
MODEL 6
REMARK VINA RESULT:    -7.393      3.946      8.647
REMARK INTER + INTRA:         -10.975
REMARK INTER:                  -9.859
REMARK INTRA:                  -1.116
REMARK UNBOUND:                -0.989
REMARK  Name = 
REMARK  6 active torsions:
REMARK  status: ('A' for Active; 'I' for Inactive)
REMARK    1  A    between atoms: C_2  and  C_4
REMARK    2  A    between atoms: C_7  and  C_8
REMARK    3  A    between atoms: C_8  and  C_9
REMARK    4  A    between atoms: C_12  and  C_13
REMARK    5  A    between atoms: C_13  and  N_14
REMARK    6  A    between atoms: C_15  and  C_17
REMARK                            x       y       z     vdW  Elec       q    Type
REMARK                         _______ _______ _______ _____ _____    ______ ____
ROOT
ATOM      1  C   UNL     1      49.636   5.555  17.079  0.00  0.00    +0.000 A 
ATOM      2  C   UNL     1      48.397   5.183  16.541  0.00  0.00    +0.000 A 
ATOM      3  C   UNL     1      47.940   5.747  15.345  0.00  0.00    +0.000 A 
ATOM      4  C   UNL     1      48.719   6.684  14.654  0.00  0.00    +0.000 A 
ATOM      5  C   UNL     1      49.939   7.086  15.214  0.00  0.00    +0.000 A 
ATOM      6  C   UNL     1      50.396   6.522  16.408  0.00  0.00    +0.000 A 
ENDROOT
BRANCH   1   7
ATOM      7  C   UNL     1      50.147   4.922  18.352  0.00  0.00    +0.000 C 
BRANCH   7  11
ATOM      8  C   UNL     1      52.632   1.506  17.842  0.00  0.00    +0.000 A 
ATOM      9  C   UNL     1      51.336   1.443  17.349  0.00  0.00    +0.000 A 
ATOM     10  C   UNL     1      50.518   2.560  17.502  0.00  0.00    +0.000 A 
ATOM     11  C   UNL     1      51.012   3.704  18.140  0.00  0.00    +0.000 A 
ATOM     12  C   UNL     1      52.334   3.670  18.581  0.00  0.00    +0.000 A 
ATOM     13  N   UNL     1      53.157   2.601  18.458  0.00  0.00    +0.000 NA
BRANCH   8  15
ATOM     14  N   UNL     1      53.233  -0.736  18.551  0.00  0.00    +0.000 N 
ATOM     15  C   UNL     1      53.525   0.310  17.716  0.00  0.00    +0.000 C 
ATOM     16  O   UNL     1      54.454   0.254  16.918  0.00  0.00    +0.000 OA
ATOM     17  H   UNL     1      53.791  -1.575  18.518  0.00  0.00    +0.000 HD
ATOM     18  H   UNL     1      52.452  -0.658  19.193  0.00  0.00    +0.000 HD
ENDBRANCH   8  15
ENDBRANCH   7  11
ENDBRANCH   1   7
BRANCH   4  19
ATOM     19  C   UNL     1      48.257   7.261  13.342  0.00  0.00    +0.000 C 
BRANCH  19  20
ATOM     20  N   UNL     1      47.525   6.297  12.561  0.00  0.00    +0.000 N 
ATOM     21  C   UNL     1      46.487   6.693  11.756  0.00  0.00    +0.000 C 
ATOM     22  O   UNL     1      46.180   7.874  11.624  0.00  0.00    +0.000 OA
ATOM     23  H   UNL     1      47.613   5.320  12.825  0.00  0.00    +0.000 HD
BRANCH  21  24
ATOM     24  C   UNL     1      45.793   5.637  11.005  0.00  0.00    +0.000 A 
ATOM     25  C   UNL     1      45.859   5.628   9.617  0.00  0.00    +0.000 A 
ATOM     26  S   UNL     1      45.042   4.315   8.901  0.00  0.00    +0.000 S 
ATOM     27  C   UNL     1      44.524   3.740  10.416  0.00  0.00    +0.000 A 
ATOM     28  N   UNL     1      43.743   2.632  10.512  0.00  0.00    +0.000 NA
ATOM     29  C   UNL     1      43.394   2.327  11.717  0.00  0.00    +0.000 A 
ATOM     30  N   UNL     1      43.764   3.027  12.837  0.00  0.00    +0.000 N 
ATOM     31  C   UNL     1      44.580   4.133  12.792  0.00  0.00    +0.000 A 
ATOM     32  O   UNL     1      44.928   4.710  13.816  0.00  0.00    +0.000 OA
ATOM     33  C   UNL     1      44.987   4.528  11.457  0.00  0.00    +0.000 A 
ATOM     34  H   UNL     1      43.465   2.731  13.753  0.00  0.00    +0.000 HD
ENDBRANCH  21  24
ENDBRANCH  19  20
ENDBRANCH   4  19
TORSDOF 6
ENDMDL
MODEL 7
REMARK VINA RESULT:    -7.256      1.933      2.988
REMARK INTER + INTRA:         -10.791
REMARK INTER:                  -9.864
REMARK INTRA:                  -0.927
REMARK UNBOUND:                -0.989
REMARK  Name = 
REMARK  6 active torsions:
REMARK  status: ('A' for Active; 'I' for Inactive)
REMARK    1  A    between atoms: C_2  and  C_4
REMARK    2  A    between atoms: C_7  and  C_8
REMARK    3  A    between atoms: C_8  and  C_9
REMARK    4  A    between atoms: C_12  and  C_13
REMARK    5  A    between atoms: C_13  and  N_14
REMARK    6  A    between atoms: C_15  and  C_17
REMARK                            x       y       z     vdW  Elec       q    Type
REMARK                         _______ _______ _______ _____ _____    ______ ____
ROOT
ATOM      1  C   UNL     1      44.921   5.766  11.178  0.00  0.00    +0.000 A 
ATOM      2  C   UNL     1      46.043   5.318  11.886  0.00  0.00    +0.000 A 
ATOM      3  C   UNL     1      46.754   6.187  12.722  0.00  0.00    +0.000 A 
ATOM      4  C   UNL     1      46.348   7.518  12.877  0.00  0.00    +0.000 A 
ATOM      5  C   UNL     1      45.251   7.977  12.136  0.00  0.00    +0.000 A 
ATOM      6  C   UNL     1      44.540   7.109  11.303  0.00  0.00    +0.000 A 
ENDROOT
BRANCH   1   7
ATOM      7  C   UNL     1      44.131   4.820  10.303  0.00  0.00    +0.000 C 
BRANCH   7  11
ATOM      8  C   UNL     1      46.439   2.294   7.774  0.00  0.00    +0.000 A 
ATOM      9  C   UNL     1      46.484   3.662   7.539  0.00  0.00    +0.000 A 
ATOM     10  C   UNL     1      45.741   4.498   8.368  0.00  0.00    +0.000 A 
ATOM     11  C   UNL     1      44.974   3.950   9.404  0.00  0.00    +0.000 A 
ATOM     12  C   UNL     1      45.014   2.567   9.566  0.00  0.00    +0.000 A 
ATOM     13  N   UNL     1      45.718   1.720   8.776  0.00  0.00    +0.000 NA
BRANCH   8  15
ATOM     14  N   UNL     1      48.182   1.958   6.119  0.00  0.00    +0.000 N 
ATOM     15  C   UNL     1      47.208   1.369   6.882  0.00  0.00    +0.000 C 
ATOM     16  O   UNL     1      46.996   0.163   6.833  0.00  0.00    +0.000 OA
ATOM     17  H   UNL     1      48.741   1.394   5.497  0.00  0.00    +0.000 HD
ATOM     18  H   UNL     1      48.335   2.958   6.191  0.00  0.00    +0.000 HD
ENDBRANCH   8  15
ENDBRANCH   7  11
ENDBRANCH   1   7
BRANCH   4  19
ATOM     19  C   UNL     1      47.079   8.448  13.809  0.00  0.00    +0.000 C 
BRANCH  19  20
ATOM     20  N   UNL     1      47.943   7.732  14.711  0.00  0.00    +0.000 N 
ATOM     21  C   UNL     1      48.342   8.299  15.896  0.00  0.00    +0.000 C 
ATOM     22  O   UNL     1      47.940   9.401  16.257  0.00  0.00    +0.000 OA
ATOM     23  H   UNL     1      48.455   6.939  14.336  0.00  0.00    +0.000 HD
BRANCH  21  24
ATOM     24  C   UNL     1      49.232   7.497  16.746  0.00  0.00    +0.000 A 
ATOM     25  C   UNL     1      48.742   6.351  17.361  0.00  0.00    +0.000 A 
ATOM     26  S   UNL     1      49.911   5.511  18.274  0.00  0.00    +0.000 S 
ATOM     27  C   UNL     1      51.101   6.675  17.925  0.00  0.00    +0.000 A 
ATOM     28  N   UNL     1      52.356   6.565  18.435  0.00  0.00    +0.000 NA
ATOM     29  C   UNL     1      53.148   7.535  18.120  0.00  0.00    +0.000 A 
ATOM     30  N   UNL     1      52.799   8.602  17.333  0.00  0.00    +0.000 N 
ATOM     31  C   UNL     1      51.553   8.739  16.768  0.00  0.00    +0.000 A 
ATOM     32  O   UNL     1      51.287   9.683  16.032  0.00  0.00    +0.000 OA
ATOM     33  C   UNL     1      50.618   7.682  17.106  0.00  0.00    +0.000 A 
ATOM     34  H   UNL     1      53.469   9.324  17.115  0.00  0.00    +0.000 HD
ENDBRANCH  21  24
ENDBRANCH  19  20
ENDBRANCH   4  19
TORSDOF 6
ENDMDL
MODEL 8
REMARK VINA RESULT:    -7.199      2.217      3.773
REMARK INTER + INTRA:         -10.713
REMARK INTER:                  -9.650
REMARK INTRA:                  -1.064
REMARK UNBOUND:                -0.989
REMARK  Name = 
REMARK  6 active torsions:
REMARK  status: ('A' for Active; 'I' for Inactive)
REMARK    1  A    between atoms: C_2  and  C_4
REMARK    2  A    between atoms: C_7  and  C_8
REMARK    3  A    between atoms: C_8  and  C_9
REMARK    4  A    between atoms: C_12  and  C_13
REMARK    5  A    between atoms: C_13  and  N_14
REMARK    6  A    between atoms: C_15  and  C_17
REMARK                            x       y       z     vdW  Elec       q    Type
REMARK                         _______ _______ _______ _____ _____    ______ ____
ROOT
ATOM      1  C   UNL     1      45.015   4.045  11.820  0.00  0.00    +0.000 A 
ATOM      2  C   UNL     1      45.774   3.080  12.496  0.00  0.00    +0.000 A 
ATOM      3  C   UNL     1      46.505   3.417  13.639  0.00  0.00    +0.000 A 
ATOM      4  C   UNL     1      46.482   4.725  14.140  0.00  0.00    +0.000 A 
ATOM      5  C   UNL     1      45.757   5.700  13.441  0.00  0.00    +0.000 A 
ATOM      6  C   UNL     1      45.026   5.362  12.299  0.00  0.00    +0.000 A 
ENDROOT
BRANCH   1   7
ATOM      7  C   UNL     1      44.197   3.674  10.606  0.00  0.00    +0.000 C 
BRANCH   7  11
ATOM      8  C   UNL     1      46.545   2.877   7.149  0.00  0.00    +0.000 A 
ATOM      9  C   UNL     1      46.101   1.793   7.894  0.00  0.00    +0.000 A 
ATOM     10  C   UNL     1      45.322   2.043   9.022  0.00  0.00    +0.000 A 
ATOM     11  C   UNL     1      45.011   3.361   9.375  0.00  0.00    +0.000 A 
ATOM     12  C   UNL     1      45.491   4.375   8.548  0.00  0.00    +0.000 A 
ATOM     13  N   UNL     1      46.257   4.173   7.449  0.00  0.00    +0.000 NA
BRANCH   8  15
ATOM     14  N   UNL     1      48.706   2.293   6.212  0.00  0.00    +0.000 N 
ATOM     15  C   UNL     1      47.407   2.639   5.947  0.00  0.00    +0.000 C 
ATOM     16  O   UNL     1      46.989   2.735   4.800  0.00  0.00    +0.000 OA
ATOM     17  H   UNL     1      49.342   2.115   5.449  0.00  0.00    +0.000 HD
ATOM     18  H   UNL     1      49.016   2.215   7.174  0.00  0.00    +0.000 HD
ENDBRANCH   8  15
ENDBRANCH   7  11
ENDBRANCH   1   7
BRANCH   4  19
ATOM     19  C   UNL     1      47.229   5.088  15.397  0.00  0.00    +0.000 C 
BRANCH  19  20
ATOM     20  N   UNL     1      48.457   5.782  15.109  0.00  0.00    +0.000 N 
ATOM     21  C   UNL     1      49.105   6.491  16.089  0.00  0.00    +0.000 C 
ATOM     22  O   UNL     1      48.703   6.516  17.248  0.00  0.00    +0.000 OA
ATOM     23  H   UNL     1      48.675   5.959  14.133  0.00  0.00    +0.000 HD
BRANCH  21  24
ATOM     24  C   UNL     1      50.345   7.176  15.698  0.00  0.00    +0.000 A 
ATOM     25  C   UNL     1      51.441   7.150  16.553  0.00  0.00    +0.000 A 
ATOM     26  S   UNL     1      52.812   7.950  15.934  0.00  0.00    +0.000 S 
ATOM     27  C   UNL     1      51.977   8.408  14.525  0.00  0.00    +0.000 A 
ATOM     28  N   UNL     1      52.585   9.155  13.565  0.00  0.00    +0.000 NA
ATOM     29  C   UNL     1      51.827   9.460  12.566  0.00  0.00    +0.000 A 
ATOM     30  N   UNL     1      50.516   9.078  12.436  0.00  0.00    +0.000 N 
ATOM     31  C   UNL     1      49.870   8.295  13.364  0.00  0.00    +0.000 A 
ATOM     32  O   UNL     1      48.711   7.934  13.195  0.00  0.00    +0.000 OA
ATOM     33  C   UNL     1      50.675   7.938  14.517  0.00  0.00    +0.000 A 
ATOM     34  H   UNL     1      49.979   9.342  11.624  0.00  0.00    +0.000 HD
ENDBRANCH  21  24
ENDBRANCH  19  20
ENDBRANCH   4  19
TORSDOF 6
ENDMDL
MODEL 9
REMARK VINA RESULT:    -7.020      5.601      7.717
REMARK INTER + INTRA:         -10.472
REMARK INTER:                  -9.387
REMARK INTRA:                  -1.084
REMARK UNBOUND:                -0.989
REMARK  Name = 
REMARK  6 active torsions:
REMARK  status: ('A' for Active; 'I' for Inactive)
REMARK    1  A    between atoms: C_2  and  C_4
REMARK    2  A    between atoms: C_7  and  C_8
REMARK    3  A    between atoms: C_8  and  C_9
REMARK    4  A    between atoms: C_12  and  C_13
REMARK    5  A    between atoms: C_13  and  N_14
REMARK    6  A    between atoms: C_15  and  C_17
REMARK                            x       y       z     vdW  Elec       q    Type
REMARK                         _______ _______ _______ _____ _____    ______ ____
ROOT
ATOM      1  C   UNL     1      47.471   8.106  12.511  0.00  0.00    +0.000 A 
ATOM      2  C   UNL     1      47.921   9.353  12.057  0.00  0.00    +0.000 A 
ATOM      3  C   UNL     1      49.274   9.564  11.772  0.00  0.00    +0.000 A 
ATOM      4  C   UNL     1      50.204   8.527  11.921  0.00  0.00    +0.000 A 
ATOM      5  C   UNL     1      49.761   7.293  12.414  0.00  0.00    +0.000 A 
ATOM      6  C   UNL     1      48.409   7.082  12.698  0.00  0.00    +0.000 A 
ENDROOT
BRANCH   1   7
ATOM      7  C   UNL     1      46.004   7.867  12.785  0.00  0.00    +0.000 C 
BRANCH   7  11
ATOM      8  C   UNL     1      44.478   4.117  11.476  0.00  0.00    +0.000 A 
ATOM      9  C   UNL     1      44.881   5.026  10.507  0.00  0.00    +0.000 A 
ATOM     10  C   UNL     1      45.393   6.252  10.926  0.00  0.00    +0.000 A 
ATOM     11  C   UNL     1      45.485   6.538  12.293  0.00  0.00    +0.000 A 
ATOM     12  C   UNL     1      45.071   5.549  13.183  0.00  0.00    +0.000 A 
ATOM     13  N   UNL     1      44.561   4.349  12.815  0.00  0.00    +0.000 NA
BRANCH   8  15
ATOM     14  N   UNL     1      44.499   2.213   9.972  0.00  0.00    +0.000 N 
ATOM     15  C   UNL     1      43.899   2.802  11.054  0.00  0.00    +0.000 C 
ATOM     16  O   UNL     1      42.959   2.272  11.634  0.00  0.00    +0.000 OA
ATOM     17  H   UNL     1      44.162   1.324   9.635  0.00  0.00    +0.000 HD
ATOM     18  H   UNL     1      45.280   2.677   9.521  0.00  0.00    +0.000 HD
ENDBRANCH   8  15
ENDBRANCH   7  11
ENDBRANCH   1   7
BRANCH   4  19
ATOM     19  C   UNL     1      51.655   8.731  11.572  0.00  0.00    +0.000 C 
BRANCH  19  20
ATOM     20  N   UNL     1      51.971   8.209  10.268  0.00  0.00    +0.000 N 
ATOM     21  C   UNL     1      52.992   8.750   9.527  0.00  0.00    +0.000 C 
ATOM     22  O   UNL     1      53.705   9.649   9.962  0.00  0.00    +0.000 OA
ATOM     23  H   UNL     1      51.266   7.638   9.811  0.00  0.00    +0.000 HD
BRANCH  21  24
ATOM     24  C   UNL     1      53.233   8.159   8.203  0.00  0.00    +0.000 A 
ATOM     25  C   UNL     1      53.193   8.969   7.075  0.00  0.00    +0.000 A 
ATOM     26  S   UNL     1      53.539   8.142   5.625  0.00  0.00    +0.000 S 
ATOM     27  C   UNL     1      53.701   6.660   6.445  0.00  0.00    +0.000 A 
ATOM     28  N   UNL     1      53.977   5.514   5.768  0.00  0.00    +0.000 NA
ATOM     29  C   UNL     1      54.038   4.458   6.508  0.00  0.00    +0.000 A 
ATOM     30  N   UNL     1      53.857   4.447   7.867  0.00  0.00    +0.000 N 
ATOM     31  C   UNL     1      53.611   5.585   8.599  0.00  0.00    +0.000 A 
ATOM     32  O   UNL     1      53.498   5.545   9.819  0.00  0.00    +0.000 OA
ATOM     33  C   UNL     1      53.515   6.799   7.811  0.00  0.00    +0.000 A 
ATOM     34  H   UNL     1      53.928   3.587   8.390  0.00  0.00    +0.000 HD
ENDBRANCH  21  24
ENDBRANCH  19  20
ENDBRANCH   4  19
TORSDOF 6
ENDMDL
