MODEL 1
REMARK VINA RESULT:    -8.341      0.000      0.000
REMARK INTER + INTRA:         -11.569
REMARK INTER:                 -10.779
REMARK INTRA:                  -0.790
REMARK UNBOUND:                -0.790
REMARK  Name = 
REMARK  5 active torsions:
REMARK  status: ('A' for Active; 'I' for Inactive)
REMARK    1  A    between atoms: C_2  and  C_4
REMARK    2  A    between atoms: C_7  and  N_8
REMARK    3  A    between atoms: N_8  and  C_9
REMARK    4  A    between atoms: C_9  and  C_10
REMARK    5  A    between atoms: C_12  and  N_13
REMARK                            x       y       z     vdW  Elec       q    Type
REMARK                         _______ _______ _______ _____ _____    ______ ____
ROOT
ATOM      1  C   UNL     1      43.565   4.315  11.544  0.00  0.00    +0.000 C 
ENDROOT
BRANCH   1   2
ATOM      2  C   UNL     1      44.867   4.621  12.262  0.00  0.00    +0.000 A 
ATOM      3  C   UNL     1      45.421   5.904  12.248  0.00  0.00    +0.000 A 
ATOM      4  C   UNL     1      46.603   6.187  12.941  0.00  0.00    +0.000 A 
ATOM      5  C   UNL     1      47.168   5.126  13.651  0.00  0.00    +0.000 A 
ATOM      6  C   UNL     1      46.555   3.884  13.643  0.00  0.00    +0.000 A 
ATOM      7  N   UNL     1      45.422   3.606  12.970  0.00  0.00    +0.000 NA
BRANCH   4   8
ATOM      8  N   UNL     1      47.166   7.447  12.948  0.00  0.00    +0.000 N 
ATOM      9  C   UNL     1      46.388   8.666  13.213  0.00  0.00    +0.000 C 
ATOM     10  C   UNL     1      46.698   9.739  12.144  0.00  0.00    +0.000 C 
ATOM     11  N   UNL     1      48.142  10.028  11.993  0.00  0.00    +0.000 NA
ATOM     12  C   UNL     1      48.850   8.759  11.714  0.00  0.00    +0.000 C 
ATOM     13  C   UNL     1      48.611   7.663  12.780  0.00  0.00    +0.000 C 
ATOM     14  H   UNL     1      48.485  10.386  12.883  0.00  0.00    +0.000 HD
ENDBRANCH   4   8
ENDBRANCH   1   2
BRANCH   1  15
ATOM     15  N   UNL     1      43.631   4.465  10.093  0.00  0.00    +0.000 N 
ATOM     16  H   UNL     1      42.975   5.114   9.676  0.00  0.00    +0.000 HD
BRANCH  15  20
ATOM     17  C   UNL     1      46.470   2.496   7.692  0.00  0.00    +0.000 A 
ATOM     18  C   UNL     1      46.345   3.881   7.619  0.00  0.00    +0.000 A 
ATOM     19  C   UNL     1      45.391   4.543   8.399  0.00  0.00    +0.000 A 
ATOM     20  C   UNL     1      44.550   3.843   9.275  0.00  0.00    +0.000 A 
ATOM     21  C   UNL     1      44.672   2.446   9.313  0.00  0.00    +0.000 A 
ATOM     22  C   UNL     1      45.616   1.775   8.526  0.00  0.00    +0.000 A 
BRANCH  17  24
ATOM     23  N   UNL     1      48.571   2.465   6.464  0.00  0.00    +0.000 N 
ATOM     24  C   UNL     1      47.474   1.761   6.881  0.00  0.00    +0.000 C 
ATOM     25  O   UNL     1      47.350   0.571   6.623  0.00  0.00    +0.000 OA
ATOM     26  H   UNL     1      49.295   1.935   5.997  0.00  0.00    +0.000 HD
ATOM     27  H   UNL     1      48.819   3.358   6.855  0.00  0.00    +0.000 HD
ENDBRANCH  17  24
ENDBRANCH  15  20
ENDBRANCH   1  15
TORSDOF 5
ENDMDL
MODEL 2
REMARK VINA RESULT:    -8.219      1.722      2.964
REMARK INTER + INTRA:         -11.411
REMARK INTER:                 -10.875
REMARK INTRA:                  -0.536
REMARK UNBOUND:                -0.790
REMARK  Name = 
REMARK  5 active torsions:
REMARK  status: ('A' for Active; 'I' for Inactive)
REMARK    1  A    between atoms: C_2  and  C_4
REMARK    2  A    between atoms: C_7  and  N_8
REMARK    3  A    between atoms: N_8  and  C_9
REMARK    4  A    between atoms: C_9  and  C_10
REMARK    5  A    between atoms: C_12  and  N_13
REMARK                            x       y       z     vdW  Elec       q    Type
REMARK                         _______ _______ _______ _____ _____    ______ ____
ROOT
ATOM      1  C   UNL     1      43.250   5.095  10.921  0.00  0.00    +0.000 C 
ENDROOT
BRANCH   1   2
ATOM      2  C   UNL     1      44.288   5.944  11.632  0.00  0.00    +0.000 A 
ATOM      3  C   UNL     1      45.236   5.371  12.485  0.00  0.00    +0.000 A 
ATOM      4  C   UNL     1      46.212   6.156  13.110  0.00  0.00    +0.000 A 
ATOM      5  C   UNL     1      46.187   7.520  12.812  0.00  0.00    +0.000 A 
ATOM      6  C   UNL     1      45.235   8.020  11.939  0.00  0.00    +0.000 A 
ATOM      7  N   UNL     1      44.289   7.269  11.343  0.00  0.00    +0.000 NA
BRANCH   4   8
ATOM      8  N   UNL     1      47.162   5.613  13.951  0.00  0.00    +0.000 N 
ATOM      9  C   UNL     1      47.071   4.242  14.476  0.00  0.00    +0.000 C 
ATOM     10  C   UNL     1      47.317   4.239  16.002  0.00  0.00    +0.000 C 
ATOM     11  N   UNL     1      48.579   4.901  16.402  0.00  0.00    +0.000 NA
ATOM     12  C   UNL     1      48.586   6.275  15.851  0.00  0.00    +0.000 C 
ATOM     13  C   UNL     1      48.390   6.333  14.317  0.00  0.00    +0.000 C 
ATOM     14  H   UNL     1      49.351   4.391  15.974  0.00  0.00    +0.000 HD
ENDBRANCH   4   8
ENDBRANCH   1   2
BRANCH   1  15
ATOM     15  N   UNL     1      43.701   3.745  10.595  0.00  0.00    +0.000 N 
ATOM     16  H   UNL     1      43.298   2.991  11.136  0.00  0.00    +0.000 HD
BRANCH  15  20
ATOM     17  C   UNL     1      46.430   2.701   7.567  0.00  0.00    +0.000 A 
ATOM     18  C   UNL     1      46.062   4.034   7.736  0.00  0.00    +0.000 A 
ATOM     19  C   UNL     1      45.142   4.389   8.727  0.00  0.00    +0.000 A 
ATOM     20  C   UNL     1      44.576   3.428   9.577  0.00  0.00    +0.000 A 
ATOM     21  C   UNL     1      44.937   2.088   9.372  0.00  0.00    +0.000 A 
ATOM     22  C   UNL     1      45.849   1.723   8.374  0.00  0.00    +0.000 A 
BRANCH  17  24
ATOM     23  N   UNL     1      47.387   2.982   5.347  0.00  0.00    +0.000 N 
ATOM     24  C   UNL     1      47.407   2.289   6.527  0.00  0.00    +0.000 C 
ATOM     25  O   UNL     1      48.220   1.395   6.723  0.00  0.00    +0.000 OA
ATOM     26  H   UNL     1      48.117   2.761   4.683  0.00  0.00    +0.000 HD
ATOM     27  H   UNL     1      46.909   3.861   5.246  0.00  0.00    +0.000 HD
ENDBRANCH  17  24
ENDBRANCH  15  20
ENDBRANCH   1  15
TORSDOF 5
ENDMDL
MODEL 3
REMARK VINA RESULT:    -6.711      4.368      8.276
REMARK INTER + INTRA:          -9.463
REMARK INTER:                  -9.071
REMARK INTRA:                  -0.393
REMARK UNBOUND:                -0.790
REMARK  Name = 
REMARK  5 active torsions:
REMARK  status: ('A' for Active; 'I' for Inactive)
REMARK    1  A    between atoms: C_2  and  C_4
REMARK    2  A    between atoms: C_7  and  N_8
REMARK    3  A    between atoms: N_8  and  C_9
REMARK    4  A    between atoms: C_9  and  C_10
REMARK    5  A    between atoms: C_12  and  N_13
REMARK                            x       y       z     vdW  Elec       q    Type
REMARK                         _______ _______ _______ _____ _____    ______ ____
ROOT
ATOM      1  C   UNL     1      46.371   5.232  13.842  0.00  0.00    +0.000 C 
ENDROOT
BRANCH   1   2
ATOM      2  C   UNL     1      45.273   4.883  12.853  0.00  0.00    +0.000 A 
ATOM      3  C   UNL     1      45.570   4.356  11.593  0.00  0.00    +0.000 A 
ATOM      4  C   UNL     1      44.551   4.004  10.700  0.00  0.00    +0.000 A 
ATOM      5  C   UNL     1      43.244   4.191  11.154  0.00  0.00    +0.000 A 
ATOM      6  C   UNL     1      43.018   4.696  12.425  0.00  0.00    +0.000 A 
ATOM      7  N   UNL     1      43.997   5.043  13.283  0.00  0.00    +0.000 NA
BRANCH   4   8
ATOM      8  N   UNL     1      44.818   3.477   9.453  0.00  0.00    +0.000 N 
ATOM      9  C   UNL     1      44.710   2.041   9.156  0.00  0.00    +0.000 C 
ATOM     10  C   UNL     1      45.976   1.554   8.414  0.00  0.00    +0.000 C 
ATOM     11  N   UNL     1      46.299   2.346   7.206  0.00  0.00    +0.000 NA
ATOM     12  C   UNL     1      46.405   3.771   7.590  0.00  0.00    +0.000 C 
ATOM     13  C   UNL     1      45.143   4.323   8.296  0.00  0.00    +0.000 C 
ATOM     14  H   UNL     1      45.519   2.256   6.555  0.00  0.00    +0.000 HD
ENDBRANCH   4   8
ENDBRANCH   1   2
BRANCH   1  15
ATOM     15  N   UNL     1      46.745   4.138  14.733  0.00  0.00    +0.000 N 
ATOM     16  H   UNL     1      46.538   3.201  14.409  0.00  0.00    +0.000 HD
BRANCH  15  20
ATOM     17  C   UNL     1      48.656   4.555  18.458  0.00  0.00    +0.000 A 
ATOM     18  C   UNL     1      48.824   5.534  17.482  0.00  0.00    +0.000 A 
ATOM     19  C   UNL     1      48.208   5.396  16.234  0.00  0.00    +0.000 A 
ATOM     20  C   UNL     1      47.405   4.287  15.935  0.00  0.00    +0.000 A 
ATOM     21  C   UNL     1      47.271   3.298  16.921  0.00  0.00    +0.000 A 
ATOM     22  C   UNL     1      47.894   3.423  18.168  0.00  0.00    +0.000 A 
BRANCH  17  24
ATOM     23  N   UNL     1      48.649   4.071  20.843  0.00  0.00    +0.000 N 
ATOM     24  C   UNL     1      49.292   4.672  19.795  0.00  0.00    +0.000 C 
ATOM     25  O   UNL     1      50.361   5.248  19.954  0.00  0.00    +0.000 OA
ATOM     26  H   UNL     1      49.136   4.072  21.730  0.00  0.00    +0.000 HD
ATOM     27  H   UNL     1      47.915   3.397  20.710  0.00  0.00    +0.000 HD
ENDBRANCH  17  24
ENDBRANCH  15  20
ENDBRANCH   1  15
TORSDOF 5
ENDMDL
MODEL 4
REMARK VINA RESULT:    -6.691      2.963      6.822
REMARK INTER + INTRA:          -9.437
REMARK INTER:                  -8.805
REMARK INTRA:                  -0.632
REMARK UNBOUND:                -0.790
REMARK  Name = 
REMARK  5 active torsions:
REMARK  status: ('A' for Active; 'I' for Inactive)
REMARK    1  A    between atoms: C_2  and  C_4
REMARK    2  A    between atoms: C_7  and  N_8
REMARK    3  A    between atoms: N_8  and  C_9
REMARK    4  A    between atoms: C_9  and  C_10
REMARK    5  A    between atoms: C_12  and  N_13
REMARK                            x       y       z     vdW  Elec       q    Type
REMARK                         _______ _______ _______ _____ _____    ______ ____
ROOT
ATOM      1  C   UNL     1      45.138   6.303  12.897  0.00  0.00    +0.000 C 
ENDROOT
BRANCH   1   2
ATOM      2  C   UNL     1      44.631   5.020  12.265  0.00  0.00    +0.000 A 
ATOM      3  C   UNL     1      45.021   4.639  10.978  0.00  0.00    +0.000 A 
ATOM      4  C   UNL     1      44.576   3.438  10.414  0.00  0.00    +0.000 A 
ATOM      5  C   UNL     1      43.750   2.651  11.219  0.00  0.00    +0.000 A 
ATOM      6  C   UNL     1      43.420   3.075  12.496  0.00  0.00    +0.000 A 
ATOM      7  N   UNL     1      43.839   4.235  13.037  0.00  0.00    +0.000 NA
BRANCH   4   8
ATOM      8  N   UNL     1      44.952   3.038   9.149  0.00  0.00    +0.000 N 
ATOM      9  C   UNL     1      45.095   1.624   8.770  0.00  0.00    +0.000 C 
ATOM     10  C   UNL     1      46.439   1.402   8.039  0.00  0.00    +0.000 C 
ATOM     11  N   UNL     1      46.645   2.306   6.886  0.00  0.00    +0.000 NA
ATOM     12  C   UNL     1      46.501   3.704   7.350  0.00  0.00    +0.000 C 
ATOM     13  C   UNL     1      45.150   3.992   8.049  0.00  0.00    +0.000 C 
ATOM     14  H   UNL     1      45.904   2.125   6.209  0.00  0.00    +0.000 HD
ENDBRANCH   4   8
ENDBRANCH   1   2
BRANCH   1  15
ATOM     15  N   UNL     1      46.402   6.159  13.614  0.00  0.00    +0.000 N 
ATOM     16  H   UNL     1      46.409   5.511  14.392  0.00  0.00    +0.000 HD
BRANCH  15  20
ATOM     17  C   UNL     1      50.008   8.000  12.468  0.00  0.00    +0.000 A 
ATOM     18  C   UNL     1      49.798   7.664  13.803  0.00  0.00    +0.000 A 
ATOM     19  C   UNL     1      48.595   7.069  14.197  0.00  0.00    +0.000 A 
ATOM     20  C   UNL     1      47.581   6.787  13.271  0.00  0.00    +0.000 A 
ATOM     21  C   UNL     1      47.800   7.159  11.936  0.00  0.00    +0.000 A 
ATOM     22  C   UNL     1      48.997   7.766  11.536  0.00  0.00    +0.000 A 
BRANCH  17  24
ATOM     23  N   UNL     1      52.312   7.790  11.715  0.00  0.00    +0.000 N 
ATOM     24  C   UNL     1      51.274   8.630  12.014  0.00  0.00    +0.000 C 
ATOM     25  O   UNL     1      51.380   9.842  11.877  0.00  0.00    +0.000 OA
ATOM     26  H   UNL     1      53.137   8.218  11.314  0.00  0.00    +0.000 HD
ATOM     27  H   UNL     1      52.185   6.801  11.583  0.00  0.00    +0.000 HD
ENDBRANCH  17  24
ENDBRANCH  15  20
ENDBRANCH   1  15
TORSDOF 5
ENDMDL
MODEL 5
REMARK VINA RESULT:    -6.637      5.318      8.341
REMARK INTER + INTRA:          -9.367
REMARK INTER:                  -8.861
REMARK INTRA:                  -0.506
REMARK UNBOUND:                -0.790
REMARK  Name = 
REMARK  5 active torsions:
REMARK  status: ('A' for Active; 'I' for Inactive)
REMARK    1  A    between atoms: C_2  and  C_4
REMARK    2  A    between atoms: C_7  and  N_8
REMARK    3  A    between atoms: N_8  and  C_9
REMARK    4  A    between atoms: C_9  and  C_10
REMARK    5  A    between atoms: C_12  and  N_13
REMARK                            x       y       z     vdW  Elec       q    Type
REMARK                         _______ _______ _______ _____ _____    ______ ____
ROOT
ATOM      1  C   UNL     1      47.756   4.082  16.703  0.00  0.00    +0.000 C 
ENDROOT
BRANCH   1   2
ATOM      2  C   UNL     1      47.541   4.790  15.377  0.00  0.00    +0.000 A 
ATOM      3  C   UNL     1      46.549   4.375  14.483  0.00  0.00    +0.000 A 
ATOM      4  C   UNL     1      46.335   5.053  13.278  0.00  0.00    +0.000 A 
ATOM      5  C   UNL     1      47.149   6.164  13.045  0.00  0.00    +0.000 A 
ATOM      6  C   UNL     1      48.098   6.535  13.983  0.00  0.00    +0.000 A 
ATOM      7  N   UNL     1      48.313   5.879  15.139  0.00  0.00    +0.000 NA
BRANCH   4   8
ATOM      8  N   UNL     1      45.358   4.667  12.383  0.00  0.00    +0.000 N 
ATOM      9  C   UNL     1      44.515   5.631  11.660  0.00  0.00    +0.000 C 
ATOM     10  C   UNL     1      43.029   5.219  11.762  0.00  0.00    +0.000 C 
ATOM     11  N   UNL     1      42.767   3.827  11.334  0.00  0.00    +0.000 NA
ATOM     12  C   UNL     1      43.639   2.922  12.115  0.00  0.00    +0.000 C 
ATOM     13  C   UNL     1      45.145   3.262  12.010  0.00  0.00    +0.000 C 
ATOM     14  H   UNL     1      43.033   3.745  10.353  0.00  0.00    +0.000 HD
ENDBRANCH   4   8
ENDBRANCH   1   2
BRANCH   1  15
ATOM     15  N   UNL     1      49.011   4.421  17.367  0.00  0.00    +0.000 N 
ATOM     16  H   UNL     1      49.051   5.324  17.823  0.00  0.00    +0.000 HD
BRANCH  15  20
ATOM     17  C   UNL     1      52.272   1.786  17.719  0.00  0.00    +0.000 A 
ATOM     18  C   UNL     1      52.424   3.124  18.075  0.00  0.00    +0.000 A 
ATOM     19  C   UNL     1      51.351   4.012  17.944  0.00  0.00    +0.000 A 
ATOM     20  C   UNL     1      50.104   3.586  17.466  0.00  0.00    +0.000 A 
ATOM     21  C   UNL     1      49.980   2.242  17.087  0.00  0.00    +0.000 A 
ATOM     22  C   UNL     1      51.053   1.349  17.204  0.00  0.00    +0.000 A 
BRANCH  17  24
ATOM     23  N   UNL     1      53.097  -0.392  18.424  0.00  0.00    +0.000 N 
ATOM     24  C   UNL     1      53.389   0.815  17.849  0.00  0.00    +0.000 C 
ATOM     25  O   UNL     1      54.512   1.063  17.431  0.00  0.00    +0.000 OA
ATOM     26  H   UNL     1      53.837  -1.082  18.421  0.00  0.00    +0.000 HD
ATOM     27  H   UNL     1      52.154  -0.715  18.552  0.00  0.00    +0.000 HD
ENDBRANCH  17  24
ENDBRANCH  15  20
ENDBRANCH   1  15
TORSDOF 5
ENDMDL
MODEL 6
REMARK VINA RESULT:    -6.613      3.011      7.316
REMARK INTER + INTRA:          -9.337
REMARK INTER:                  -9.094
REMARK INTRA:                  -0.242
REMARK UNBOUND:                -0.790
REMARK  Name = 
REMARK  5 active torsions:
REMARK  status: ('A' for Active; 'I' for Inactive)
REMARK    1  A    between atoms: C_2  and  C_4
REMARK    2  A    between atoms: C_7  and  N_8
REMARK    3  A    between atoms: N_8  and  C_9
REMARK    4  A    between atoms: C_9  and  C_10
REMARK    5  A    between atoms: C_12  and  N_13
REMARK                            x       y       z     vdW  Elec       q    Type
REMARK                         _______ _______ _______ _____ _____    ______ ____
ROOT
ATOM      1  C   UNL     1      45.452   6.644  11.164  0.00  0.00    +0.000 C 
ENDROOT
BRANCH   1   2
ATOM      2  C   UNL     1      44.988   5.277  10.694  0.00  0.00    +0.000 A 
ATOM      3  C   UNL     1      45.597   4.635   9.611  0.00  0.00    +0.000 A 
ATOM      4  C   UNL     1      45.187   3.361   9.204  0.00  0.00    +0.000 A 
ATOM      5  C   UNL     1      44.164   2.776   9.953  0.00  0.00    +0.000 A 
ATOM      6  C   UNL     1      43.619   3.457  11.030  0.00  0.00    +0.000 A 
ATOM      7  N   UNL     1      44.005   4.688  11.418  0.00  0.00    +0.000 NA
BRANCH   4   8
ATOM      8  N   UNL     1      45.775   2.704   8.143  0.00  0.00    +0.000 N 
ATOM      9  C   UNL     1      45.779   1.239   8.016  0.00  0.00    +0.000 C 
ATOM     10  C   UNL     1      47.203   0.737   7.685  0.00  0.00    +0.000 C 
ATOM     11  N   UNL     1      47.806   1.395   6.505  0.00  0.00    +0.000 NA
ATOM     12  C   UNL     1      47.780   2.860   6.716  0.00  0.00    +0.000 C 
ATOM     13  C   UNL     1      46.367   3.422   7.005  0.00  0.00    +0.000 C 
ATOM     14  H   UNL     1      47.222   1.187   5.696  0.00  0.00    +0.000 HD
ENDBRANCH   4   8
ENDBRANCH   1   2
BRANCH   1  15
ATOM     15  N   UNL     1      46.772   6.647  11.787  0.00  0.00    +0.000 N 
ATOM     16  H   UNL     1      47.511   7.115  11.277  0.00  0.00    +0.000 HD
BRANCH  15  20
ATOM     17  C   UNL     1      47.776   5.069  15.556  0.00  0.00    +0.000 A 
ATOM     18  C   UNL     1      46.872   4.391  14.742  0.00  0.00    +0.000 A 
ATOM     19  C   UNL     1      46.518   4.917  13.495  0.00  0.00    +0.000 A 
ATOM     20  C   UNL     1      47.062   6.121  13.029  0.00  0.00    +0.000 A 
ATOM     21  C   UNL     1      47.949   6.803  13.875  0.00  0.00    +0.000 A 
ATOM     22  C   UNL     1      48.299   6.289  15.130  0.00  0.00    +0.000 A 
BRANCH  17  24
ATOM     23  N   UNL     1      47.220   4.518  17.860  0.00  0.00    +0.000 N 
ATOM     24  C   UNL     1      48.178   4.537  16.883  0.00  0.00    +0.000 C 
ATOM     25  O   UNL     1      49.303   4.102  17.091  0.00  0.00    +0.000 OA
ATOM     26  H   UNL     1      47.472   4.067  18.729  0.00  0.00    +0.000 HD
ATOM     27  H   UNL     1      46.241   4.637  17.659  0.00  0.00    +0.000 HD
ENDBRANCH  17  24
ENDBRANCH  15  20
ENDBRANCH   1  15
TORSDOF 5
ENDMDL
MODEL 7
REMARK VINA RESULT:    -6.471      1.531      2.620
REMARK INTER + INTRA:          -9.153
REMARK INTER:                  -8.552
REMARK INTRA:                  -0.601
REMARK UNBOUND:                -0.790
REMARK  Name = 
REMARK  5 active torsions:
REMARK  status: ('A' for Active; 'I' for Inactive)
REMARK    1  A    between atoms: C_2  and  C_4
REMARK    2  A    between atoms: C_7  and  N_8
REMARK    3  A    between atoms: N_8  and  C_9
REMARK    4  A    between atoms: C_9  and  C_10
REMARK    5  A    between atoms: C_12  and  N_13
REMARK                            x       y       z     vdW  Elec       q    Type
REMARK                         _______ _______ _______ _____ _____    ______ ____
ROOT
ATOM      1  C   UNL     1      44.575   4.996  12.301  0.00  0.00    +0.000 C 
ENDROOT
BRANCH   1   2
ATOM      2  C   UNL     1      45.355   6.298  12.264  0.00  0.00    +0.000 A 
ATOM      3  C   UNL     1      46.716   6.340  12.578  0.00  0.00    +0.000 A 
ATOM      4  C   UNL     1      47.436   7.539  12.508  0.00  0.00    +0.000 A 
ATOM      5  C   UNL     1      46.720   8.662  12.090  0.00  0.00    +0.000 A 
ATOM      6  C   UNL     1      45.376   8.547  11.771  0.00  0.00    +0.000 A 
ATOM      7  N   UNL     1      44.679   7.397  11.846  0.00  0.00    +0.000 NA
BRANCH   4   8
ATOM      8  N   UNL     1      48.781   7.605  12.808  0.00  0.00    +0.000 N 
ATOM      9  C   UNL     1      49.363   6.979  14.004  0.00  0.00    +0.000 C 
ATOM     10  C   UNL     1      50.279   7.984  14.739  0.00  0.00    +0.000 C 
ATOM     11  N   UNL     1      51.316   8.587  13.873  0.00  0.00    +0.000 NA
ATOM     12  C   UNL     1      50.651   9.208  12.705  0.00  0.00    +0.000 C 
ATOM     13  C   UNL     1      49.757   8.231  11.904  0.00  0.00    +0.000 C 
ATOM     14  H   UNL     1      51.912   7.836  13.528  0.00  0.00    +0.000 HD
ENDBRANCH   4   8
ENDBRANCH   1   2
BRANCH   1  15
ATOM     15  N   UNL     1      43.998   4.606  11.018  0.00  0.00    +0.000 N 
ATOM     16  H   UNL     1      43.033   4.868  10.858  0.00  0.00    +0.000 HD
BRANCH  15  20
ATOM     17  C   UNL     1      46.054   2.764   7.842  0.00  0.00    +0.000 A 
ATOM     18  C   UNL     1      45.288   1.990   8.711  0.00  0.00    +0.000 A 
ATOM     19  C   UNL     1      44.616   2.590   9.780  0.00  0.00    +0.000 A 
ATOM     20  C   UNL     1      44.683   3.973  10.002  0.00  0.00    +0.000 A 
ATOM     21  C   UNL     1      45.482   4.731   9.133  0.00  0.00    +0.000 A 
ATOM     22  C   UNL     1      46.168   4.136   8.067  0.00  0.00    +0.000 A 
BRANCH  17  24
ATOM     23  N   UNL     1      47.133   3.000   5.674  0.00  0.00    +0.000 N 
ATOM     24  C   UNL     1      46.777   2.160   6.694  0.00  0.00    +0.000 C 
ATOM     25  O   UNL     1      47.075   0.973   6.670  0.00  0.00    +0.000 OA
ATOM     26  H   UNL     1      47.709   2.602   4.943  0.00  0.00    +0.000 HD
ATOM     27  H   UNL     1      47.122   4.001   5.770  0.00  0.00    +0.000 HD
ENDBRANCH  17  24
ENDBRANCH  15  20
ENDBRANCH   1  15
TORSDOF 5
ENDMDL
MODEL 8
REMARK VINA RESULT:    -6.387      3.390      7.452
REMARK INTER + INTRA:          -9.044
REMARK INTER:                  -8.754
REMARK INTRA:                  -0.289
REMARK UNBOUND:                -0.790
REMARK  Name = 
REMARK  5 active torsions:
REMARK  status: ('A' for Active; 'I' for Inactive)
REMARK    1  A    between atoms: C_2  and  C_4
REMARK    2  A    between atoms: C_7  and  N_8
REMARK    3  A    between atoms: N_8  and  C_9
REMARK    4  A    between atoms: C_9  and  C_10
REMARK    5  A    between atoms: C_12  and  N_13
REMARK                            x       y       z     vdW  Elec       q    Type
REMARK                         _______ _______ _______ _____ _____    ______ ____
ROOT
ATOM      1  C   UNL     1      48.461   7.315  12.607  0.00  0.00    +0.000 C 
ENDROOT
BRANCH   1   2
ATOM      2  C   UNL     1      47.028   7.329  12.104  0.00  0.00    +0.000 A 
ATOM      3  C   UNL     1      46.404   6.163  11.651  0.00  0.00    +0.000 A 
ATOM      4  C   UNL     1      45.073   6.178  11.221  0.00  0.00    +0.000 A 
ATOM      5  C   UNL     1      44.417   7.408  11.294  0.00  0.00    +0.000 A 
ATOM      6  C   UNL     1      45.087   8.522  11.775  0.00  0.00    +0.000 A 
ATOM      7  N   UNL     1      46.370   8.513  12.181  0.00  0.00    +0.000 NA
BRANCH   4   8
ATOM      8  N   UNL     1      44.433   5.039  10.775  0.00  0.00    +0.000 N 
ATOM      9  C   UNL     1      43.237   4.489  11.432  0.00  0.00    +0.000 C 
ATOM     10  C   UNL     1      43.407   2.970  11.661  0.00  0.00    +0.000 C 
ATOM     11  N   UNL     1      43.759   2.219  10.434  0.00  0.00    +0.000 NA
ATOM     12  C   UNL     1      44.976   2.822   9.845  0.00  0.00    +0.000 C 
ATOM     13  C   UNL     1      44.843   4.335   9.552  0.00  0.00    +0.000 C 
ATOM     14  H   UNL     1      42.999   2.337   9.766  0.00  0.00    +0.000 HD
ENDBRANCH   4   8
ENDBRANCH   1   2
BRANCH   1  15
ATOM     15  N   UNL     1      48.588   7.462  14.054  0.00  0.00    +0.000 N 
ATOM     16  H   UNL     1      48.786   8.394  14.398  0.00  0.00    +0.000 HD
BRANCH  15  20
ATOM     17  C   UNL     1      47.890   4.380  16.832  0.00  0.00    +0.000 A 
ATOM     18  C   UNL     1      48.788   5.399  17.142  0.00  0.00    +0.000 A 
ATOM     19  C   UNL     1      49.041   6.418  16.218  0.00  0.00    +0.000 A 
ATOM     20  C   UNL     1      48.399   6.450  14.972  0.00  0.00    +0.000 A 
ATOM     21  C   UNL     1      47.521   5.400  14.668  0.00  0.00    +0.000 A 
ATOM     22  C   UNL     1      47.271   4.370  15.583  0.00  0.00    +0.000 A 
BRANCH  17  24
ATOM     23  N   UNL     1      48.381   3.210  18.909  0.00  0.00    +0.000 N 
ATOM     24  C   UNL     1      47.594   3.285  17.791  0.00  0.00    +0.000 C 
ATOM     25  O   UNL     1      46.669   2.503  17.614  0.00  0.00    +0.000 OA
ATOM     26  H   UNL     1      48.112   2.524  19.602  0.00  0.00    +0.000 HD
ATOM     27  H   UNL     1      48.977   3.965  19.201  0.00  0.00    +0.000 HD
ENDBRANCH  17  24
ENDBRANCH  15  20
ENDBRANCH   1  15
TORSDOF 5
ENDMDL
MODEL 9
REMARK VINA RESULT:    -6.307      3.575      5.852
REMARK INTER + INTRA:          -8.941
REMARK INTER:                  -8.337
REMARK INTRA:                  -0.604
REMARK UNBOUND:                -0.790
REMARK  Name = 
REMARK  5 active torsions:
REMARK  status: ('A' for Active; 'I' for Inactive)
REMARK    1  A    between atoms: C_2  and  C_4
REMARK    2  A    between atoms: C_7  and  N_8
REMARK    3  A    between atoms: N_8  and  C_9
REMARK    4  A    between atoms: C_9  and  C_10
REMARK    5  A    between atoms: C_12  and  N_13
REMARK                            x       y       z     vdW  Elec       q    Type
REMARK                         _______ _______ _______ _____ _____    ______ ____
ROOT
ATOM      1  C   UNL     1      48.140   7.661  12.828  0.00  0.00    +0.000 C 
ENDROOT
BRANCH   1   2
ATOM      2  C   UNL     1      48.916   7.327  14.090  0.00  0.00    +0.000 A 
ATOM      3  C   UNL     1      48.356   6.542  15.102  0.00  0.00    +0.000 A 
ATOM      4  C   UNL     1      49.089   6.210  16.247  0.00  0.00    +0.000 A 
ATOM      5  C   UNL     1      50.400   6.689  16.297  0.00  0.00    +0.000 A 
ATOM      6  C   UNL     1      50.902   7.443  15.249  0.00  0.00    +0.000 A 
ATOM      7  N   UNL     1      50.196   7.771  14.150  0.00  0.00    +0.000 NA
BRANCH   4   8
ATOM      8  N   UNL     1      48.561   5.432  17.257  0.00  0.00    +0.000 N 
ATOM      9  C   UNL     1      48.714   5.765  18.681  0.00  0.00    +0.000 C 
ATOM     10  C   UNL     1      49.181   4.521  19.471  0.00  0.00    +0.000 C 
ATOM     11  N   UNL     1      48.321   3.332  19.270  0.00  0.00    +0.000 NA
ATOM     12  C   UNL     1      48.231   3.055  17.819  0.00  0.00    +0.000 C 
ATOM     13  C   UNL     1      47.723   4.256  16.985  0.00  0.00    +0.000 C 
ATOM     14  H   UNL     1      47.385   3.562  19.602  0.00  0.00    +0.000 HD
ENDBRANCH   4   8
ENDBRANCH   1   2
BRANCH   1  15
ATOM     15  N   UNL     1      46.698   7.458  12.940  0.00  0.00    +0.000 N 
ATOM     16  H   UNL     1      46.173   8.195  13.394  0.00  0.00    +0.000 HD
BRANCH  15  20
ATOM     17  C   UNL     1      44.648   4.099  11.451  0.00  0.00    +0.000 A 
ATOM     18  C   UNL     1      45.202   5.020  10.565  0.00  0.00    +0.000 A 
ATOM     19  C   UNL     1      45.870   6.149  11.049  0.00  0.00    +0.000 A 
ATOM     20  C   UNL     1      46.008   6.381  12.425  0.00  0.00    +0.000 A 
ATOM     21  C   UNL     1      45.419   5.458  13.301  0.00  0.00    +0.000 A 
ATOM     22  C   UNL     1      44.739   4.331  12.823  0.00  0.00    +0.000 A 
BRANCH  17  24
ATOM     23  N   UNL     1      44.475   2.238   9.893  0.00  0.00    +0.000 N 
ATOM     24  C   UNL     1      43.937   2.887  10.971  0.00  0.00    +0.000 C 
ATOM     25  O   UNL     1      42.934   2.463  11.531  0.00  0.00    +0.000 OA
ATOM     26  H   UNL     1      44.041   1.361   9.634  0.00  0.00    +0.000 HD
ATOM     27  H   UNL     1      45.411   2.414   9.569  0.00  0.00    +0.000 HD
ENDBRANCH  17  24
ENDBRANCH  15  20
ENDBRANCH   1  15
TORSDOF 5
ENDMDL
