MODEL 1
REMARK VINA RESULT:    -7.226      0.000      0.000
REMARK INTER + INTRA:         -10.503
REMARK INTER:                  -9.972
REMARK INTRA:                  -0.530
REMARK UNBOUND:                -0.530
REMARK  Name = 
REMARK  7 active torsions:
REMARK  status: ('A' for Active; 'I' for Inactive)
REMARK    1  A    between atoms: C_2  and  C_3
REMARK    2  A    between atoms: C_6  and  N_7
REMARK    3  A    between atoms: N_7  and  C_8
REMARK    4  A    between atoms: C_8  and  C_9
REMARK    5  A    between atoms: C_9  and  C_10
REMARK    6  A    between atoms: C_15  and  C_16
REMARK    7  A    between atoms: C_16  and  O_17
REMARK                            x       y       z     vdW  Elec       q    Type
REMARK                         _______ _______ _______ _____ _____    ______ ____
ROOT
ATOM      1  C   UNL     1      43.839   5.657  11.418  0.00  0.00    +0.000 C 
ENDROOT
BRANCH   1   2
ATOM      2  N   UNL     1      43.461   5.139  10.116  0.00  0.00    +0.000 N 
ATOM      3  H   UNL     1      42.715   5.576   9.589  0.00  0.00    +0.000 HD
BRANCH   2   7
ATOM      4  C   UNL     1      46.010   2.474   8.178  0.00  0.00    +0.000 A 
ATOM      5  C   UNL     1      45.861   3.798   7.794  0.00  0.00    +0.000 A 
ATOM      6  N   UNL     1      45.017   4.674   8.403  0.00  0.00    +0.000 NA
ATOM      7  C   UNL     1      44.275   4.241   9.443  0.00  0.00    +0.000 A 
ATOM      8  C   UNL     1      44.377   2.906   9.888  0.00  0.00    +0.000 A 
ATOM      9 CL   UNL     1      43.434   2.322  11.213  0.00  0.00    +0.000 Cl
ATOM     10  C   UNL     1      45.247   2.019   9.244  0.00  0.00    +0.000 A 
BRANCH   4  12
ATOM     11  N   UNL     1      47.671   0.920   6.935  0.00  0.00    +0.000 NA
ATOM     12  C   UNL     1      46.917   1.614   7.487  0.00  0.00    +0.000 C 
ENDBRANCH   4  12
ENDBRANCH   2   7
ENDBRANCH   1   2
BRANCH   1  13
ATOM     13  C   UNL     1      44.889   6.769  11.268  0.00  0.00    +0.000 C 
BRANCH  13  14
ATOM     14  C   UNL     1      46.112   6.528  12.120  0.00  0.00    +0.000 A 
ATOM     15  C   UNL     1      47.323   7.174  11.835  0.00  0.00    +0.000 A 
ATOM     16  C   UNL     1      48.450   6.924  12.618  0.00  0.00    +0.000 A 
ATOM     17 CL   UNL     1      49.933   7.719  12.257  0.00  0.00    +0.000 Cl
ATOM     18  C   UNL     1      48.392   6.032  13.688  0.00  0.00    +0.000 A 
ATOM     19  C   UNL     1      47.193   5.372  13.988  0.00  0.00    +0.000 A 
ATOM     20  C   UNL     1      46.061   5.626  13.196  0.00  0.00    +0.000 A 
BRANCH  19  21
ATOM     21  C   UNL     1      47.118   4.386  15.122  0.00  0.00    +0.000 C 
BRANCH  21  22
ATOM     22  O   UNL     1      47.543   3.101  14.688  0.00  0.00    +0.000 OA
ATOM     23  H   UNL     1      46.762   2.523  14.709  0.00  0.00    +0.000 HD
ENDBRANCH  21  22
ENDBRANCH  19  21
ENDBRANCH  13  14
ENDBRANCH   1  13
TORSDOF 7
ENDMDL
MODEL 2
REMARK VINA RESULT:    -6.627      2.301      2.972
REMARK INTER + INTRA:          -9.676
REMARK INTER:                  -9.321
REMARK INTRA:                  -0.354
REMARK UNBOUND:                -0.530
REMARK  Name = 
REMARK  7 active torsions:
REMARK  status: ('A' for Active; 'I' for Inactive)
REMARK    1  A    between atoms: C_2  and  C_3
REMARK    2  A    between atoms: C_6  and  N_7
REMARK    3  A    between atoms: N_7  and  C_8
REMARK    4  A    between atoms: C_8  and  C_9
REMARK    5  A    between atoms: C_9  and  C_10
REMARK    6  A    between atoms: C_15  and  C_16
REMARK    7  A    between atoms: C_16  and  O_17
REMARK                            x       y       z     vdW  Elec       q    Type
REMARK                         _______ _______ _______ _____ _____    ______ ____
ROOT
ATOM      1  C   UNL     1      44.235   5.616  11.617  0.00  0.00    +0.000 C 
ENDROOT
BRANCH   1   2
ATOM      2  N   UNL     1      43.796   5.230  10.289  0.00  0.00    +0.000 N 
ATOM      3  H   UNL     1      43.071   5.754   9.817  0.00  0.00    +0.000 HD
BRANCH   2   7
ATOM      4  C   UNL     1      46.120   2.565   8.084  0.00  0.00    +0.000 A 
ATOM      5  C   UNL     1      46.086   3.928   7.835  0.00  0.00    +0.000 A 
ATOM      6  N   UNL     1      45.316   4.808   8.532  0.00  0.00    +0.000 NA
ATOM      7  C   UNL     1      44.534   4.337   9.526  0.00  0.00    +0.000 A 
ATOM      8  C   UNL     1      44.521   2.961   9.835  0.00  0.00    +0.000 A 
ATOM      9 CL   UNL     1      43.524   2.330  11.098  0.00  0.00    +0.000 Cl
ATOM     10  C   UNL     1      45.316   2.072   9.103  0.00  0.00    +0.000 A 
BRANCH   4  12
ATOM     11  N   UNL     1      47.618   0.994   6.667  0.00  0.00    +0.000 NA
ATOM     12  C   UNL     1      46.954   1.704   7.308  0.00  0.00    +0.000 C 
ENDBRANCH   4  12
ENDBRANCH   2   7
ENDBRANCH   1   2
BRANCH   1  13
ATOM     13  C   UNL     1      45.769   5.676  11.678  0.00  0.00    +0.000 C 
BRANCH  13  14
ATOM     14  C   UNL     1      46.286   7.087  11.829  0.00  0.00    +0.000 A 
ATOM     15  C   UNL     1      47.640   7.328  12.102  0.00  0.00    +0.000 A 
ATOM     16  C   UNL     1      48.099   8.636  12.261  0.00  0.00    +0.000 A 
ATOM     17 CL   UNL     1      49.762   8.921  12.601  0.00  0.00    +0.000 Cl
ATOM     18  C   UNL     1      47.224   9.717  12.153  0.00  0.00    +0.000 A 
ATOM     19  C   UNL     1      45.867   9.498  11.884  0.00  0.00    +0.000 A 
ATOM     20  C   UNL     1      45.410   8.179  11.727  0.00  0.00    +0.000 A 
BRANCH  19  21
ATOM     21  C   UNL     1      44.903  10.650  11.791  0.00  0.00    +0.000 C 
BRANCH  21  22
ATOM     22  O   UNL     1      43.662  10.305  12.389  0.00  0.00    +0.000 OA
ATOM     23  H   UNL     1      43.772  10.408  13.349  0.00  0.00    +0.000 HD
ENDBRANCH  21  22
ENDBRANCH  19  21
ENDBRANCH  13  14
ENDBRANCH   1  13
TORSDOF 7
ENDMDL
MODEL 3
REMARK VINA RESULT:    -6.597      1.798      2.376
REMARK INTER + INTRA:          -9.634
REMARK INTER:                  -8.991
REMARK INTRA:                  -0.643
REMARK UNBOUND:                -0.530
REMARK  Name = 
REMARK  7 active torsions:
REMARK  status: ('A' for Active; 'I' for Inactive)
REMARK    1  A    between atoms: C_2  and  C_3
REMARK    2  A    between atoms: C_6  and  N_7
REMARK    3  A    between atoms: N_7  and  C_8
REMARK    4  A    between atoms: C_8  and  C_9
REMARK    5  A    between atoms: C_9  and  C_10
REMARK    6  A    between atoms: C_15  and  C_16
REMARK    7  A    between atoms: C_16  and  O_17
REMARK                            x       y       z     vdW  Elec       q    Type
REMARK                         _______ _______ _______ _____ _____    ______ ____
ROOT
ATOM      1  C   UNL     1      44.443   6.128  11.155  0.00  0.00    +0.000 C 
ENDROOT
BRANCH   1   2
ATOM      2  N   UNL     1      43.801   5.200  10.243  0.00  0.00    +0.000 N 
ATOM      3  H   UNL     1      42.830   5.324   9.987  0.00  0.00    +0.000 HD
BRANCH   2   7
ATOM      4  C   UNL     1      46.157   2.549   8.056  0.00  0.00    +0.000 A 
ATOM      5  C   UNL     1      46.113   3.911   7.803  0.00  0.00    +0.000 A 
ATOM      6  N   UNL     1      45.333   4.786   8.495  0.00  0.00    +0.000 NA
ATOM      7  C   UNL     1      44.550   4.311   9.486  0.00  0.00    +0.000 A 
ATOM      8  C   UNL     1      44.547   2.936   9.798  0.00  0.00    +0.000 A 
ATOM      9 CL   UNL     1      43.550   2.300  11.058  0.00  0.00    +0.000 Cl
ATOM     10  C   UNL     1      45.352   2.052   9.072  0.00  0.00    +0.000 A 
BRANCH   4  12
ATOM     11  N   UNL     1      47.675   0.985   6.652  0.00  0.00    +0.000 NA
ATOM     12  C   UNL     1      47.001   1.693   7.285  0.00  0.00    +0.000 C 
ENDBRANCH   4  12
ENDBRANCH   2   7
ENDBRANCH   1   2
BRANCH   1  13
ATOM     13  C   UNL     1      44.915   5.394  12.421  0.00  0.00    +0.000 C 
BRANCH  13  14
ATOM     14  C   UNL     1      46.278   5.854  12.881  0.00  0.00    +0.000 A 
ATOM     15  C   UNL     1      46.728   5.577  14.179  0.00  0.00    +0.000 A 
ATOM     16  C   UNL     1      47.980   6.028  14.597  0.00  0.00    +0.000 A 
ATOM     17 CL   UNL     1      48.521   5.685  16.195  0.00  0.00    +0.000 Cl
ATOM     18  C   UNL     1      48.799   6.758  13.735  0.00  0.00    +0.000 A 
ATOM     19  C   UNL     1      48.368   7.049  12.435  0.00  0.00    +0.000 A 
ATOM     20  C   UNL     1      47.105   6.595  12.020  0.00  0.00    +0.000 A 
BRANCH  19  21
ATOM     21  C   UNL     1      49.226   7.859  11.502  0.00  0.00    +0.000 C 
BRANCH  21  22
ATOM     22  O   UNL     1      50.571   7.404  11.546  0.00  0.00    +0.000 OA
ATOM     23  H   UNL     1      51.009   7.887  12.266  0.00  0.00    +0.000 HD
ENDBRANCH  21  22
ENDBRANCH  19  21
ENDBRANCH  13  14
ENDBRANCH   1  13
TORSDOF 7
ENDMDL
MODEL 4
REMARK VINA RESULT:    -6.223      1.815      2.227
REMARK INTER + INTRA:          -9.118
REMARK INTER:                  -8.703
REMARK INTRA:                  -0.415
REMARK UNBOUND:                -0.530
REMARK  Name = 
REMARK  7 active torsions:
REMARK  status: ('A' for Active; 'I' for Inactive)
REMARK    1  A    between atoms: C_2  and  C_3
REMARK    2  A    between atoms: C_6  and  N_7
REMARK    3  A    between atoms: N_7  and  C_8
REMARK    4  A    between atoms: C_8  and  C_9
REMARK    5  A    between atoms: C_9  and  C_10
REMARK    6  A    between atoms: C_15  and  C_16
REMARK    7  A    between atoms: C_16  and  O_17
REMARK                            x       y       z     vdW  Elec       q    Type
REMARK                         _______ _______ _______ _____ _____    ______ ____
ROOT
ATOM      1  C   UNL     1      44.159   3.848  11.887  0.00  0.00    +0.000 C 
ENDROOT
BRANCH   1   2
ATOM      2  N   UNL     1      43.779   3.346  10.579  0.00  0.00    +0.000 N 
ATOM      3  H   UNL     1      42.821   3.421  10.262  0.00  0.00    +0.000 HD
BRANCH   2   7
ATOM      4  C   UNL     1      46.570   2.391   7.637  0.00  0.00    +0.000 A 
ATOM      5  C   UNL     1      45.809   1.440   8.299  0.00  0.00    +0.000 A 
ATOM      6  N   UNL     1      44.909   1.734   9.277  0.00  0.00    +0.000 NA
ATOM      7  C   UNL     1      44.740   3.025   9.632  0.00  0.00    +0.000 A 
ATOM      8  C   UNL     1      45.480   4.045   8.999  0.00  0.00    +0.000 A 
ATOM      9 CL   UNL     1      45.288   5.705   9.439  0.00  0.00    +0.000 Cl
ATOM     10  C   UNL     1      46.404   3.720   7.999  0.00  0.00    +0.000 A 
BRANCH   4  12
ATOM     11  N   UNL     1      48.258   1.674   5.805  0.00  0.00    +0.000 NA
ATOM     12  C   UNL     1      47.496   2.003   6.621  0.00  0.00    +0.000 C 
ENDBRANCH   4  12
ENDBRANCH   2   7
ENDBRANCH   1   2
BRANCH   1  13
ATOM     13  C   UNL     1      45.507   3.250  12.319  0.00  0.00    +0.000 C 
BRANCH  13  14
ATOM     14  C   UNL     1      46.306   4.194  13.186  0.00  0.00    +0.000 A 
ATOM     15  C   UNL     1      46.831   5.381  12.657  0.00  0.00    +0.000 A 
ATOM     16  C   UNL     1      47.587   6.233  13.464  0.00  0.00    +0.000 A 
ATOM     17 CL   UNL     1      48.230   7.686  12.804  0.00  0.00    +0.000 Cl
ATOM     18  C   UNL     1      47.831   5.917  14.801  0.00  0.00    +0.000 A 
ATOM     19  C   UNL     1      47.319   4.734  15.348  0.00  0.00    +0.000 A 
ATOM     20  C   UNL     1      46.561   3.879  14.531  0.00  0.00    +0.000 A 
BRANCH  19  21
ATOM     21  C   UNL     1      47.596   4.364  16.780  0.00  0.00    +0.000 C 
BRANCH  21  22
ATOM     22  O   UNL     1      46.680   3.371  17.219  0.00  0.00    +0.000 OA
ATOM     23  H   UNL     1      46.827   3.253  18.173  0.00  0.00    +0.000 HD
ENDBRANCH  21  22
ENDBRANCH  19  21
ENDBRANCH  13  14
ENDBRANCH   1  13
TORSDOF 7
ENDMDL
MODEL 5
REMARK VINA RESULT:    -6.123      3.715      6.939
REMARK INTER + INTRA:          -8.980
REMARK INTER:                  -8.436
REMARK INTRA:                  -0.544
REMARK UNBOUND:                -0.530
REMARK  Name = 
REMARK  7 active torsions:
REMARK  status: ('A' for Active; 'I' for Inactive)
REMARK    1  A    between atoms: C_2  and  C_3
REMARK    2  A    between atoms: C_6  and  N_7
REMARK    3  A    between atoms: N_7  and  C_8
REMARK    4  A    between atoms: C_8  and  C_9
REMARK    5  A    between atoms: C_9  and  C_10
REMARK    6  A    between atoms: C_15  and  C_16
REMARK    7  A    between atoms: C_16  and  O_17
REMARK                            x       y       z     vdW  Elec       q    Type
REMARK                         _______ _______ _______ _____ _____    ______ ____
ROOT
ATOM      1  C   UNL     1      46.028   6.752  12.633  0.00  0.00    +0.000 C 
ENDROOT
BRANCH   1   2
ATOM      2  N   UNL     1      47.290   6.073  12.864  0.00  0.00    +0.000 N 
ATOM      3  H   UNL     1      48.028   6.118  12.173  0.00  0.00    +0.000 HD
BRANCH   2   7
ATOM      4  C   UNL     1      48.174   4.699  16.696  0.00  0.00    +0.000 A 
ATOM      5  C   UNL     1      48.533   5.958  16.240  0.00  0.00    +0.000 A 
ATOM      6  N   UNL     1      48.270   6.413  14.984  0.00  0.00    +0.000 NA
ATOM      7  C   UNL     1      47.624   5.599  14.124  0.00  0.00    +0.000 A 
ATOM      8  C   UNL     1      47.228   4.305  14.522  0.00  0.00    +0.000 A 
ATOM      9 CL   UNL     1      46.405   3.240  13.439  0.00  0.00    +0.000 Cl
ATOM     10  C   UNL     1      47.512   3.855  15.816  0.00  0.00    +0.000 A 
BRANCH   4  12
ATOM     11  N   UNL     1      48.733   3.978  19.123  0.00  0.00    +0.000 NA
ATOM     12  C   UNL     1      48.487   4.293  18.029  0.00  0.00    +0.000 C 
ENDBRANCH   4  12
ENDBRANCH   2   7
ENDBRANCH   1   2
BRANCH   1  13
ATOM     13  C   UNL     1      45.740   6.848  11.127  0.00  0.00    +0.000 C 
BRANCH  13  14
ATOM     14  C   UNL     1      45.303   5.528  10.536  0.00  0.00    +0.000 A 
ATOM     15  C   UNL     1      44.493   4.649  11.267  0.00  0.00    +0.000 A 
ATOM     16  C   UNL     1      44.117   3.423  10.717  0.00  0.00    +0.000 A 
ATOM     17 CL   UNL     1      43.125   2.349  11.626  0.00  0.00    +0.000 Cl
ATOM     18  C   UNL     1      44.538   3.056   9.439  0.00  0.00    +0.000 A 
ATOM     19  C   UNL     1      45.351   3.918   8.693  0.00  0.00    +0.000 A 
ATOM     20  C   UNL     1      45.729   5.150   9.252  0.00  0.00    +0.000 A 
BRANCH  19  21
ATOM     21  C   UNL     1      45.838   3.527   7.324  0.00  0.00    +0.000 C 
BRANCH  21  22
ATOM     22  O   UNL     1      46.976   4.296   6.966  0.00  0.00    +0.000 OA
ATOM     23  H   UNL     1      46.674   4.971   6.335  0.00  0.00    +0.000 HD
ENDBRANCH  21  22
ENDBRANCH  19  21
ENDBRANCH  13  14
ENDBRANCH   1  13
TORSDOF 7
ENDMDL
MODEL 6
REMARK VINA RESULT:    -5.894      3.598      6.888
REMARK INTER + INTRA:          -8.664
REMARK INTER:                  -8.190
REMARK INTRA:                  -0.474
REMARK UNBOUND:                -0.530
REMARK  Name = 
REMARK  7 active torsions:
REMARK  status: ('A' for Active; 'I' for Inactive)
REMARK    1  A    between atoms: C_2  and  C_3
REMARK    2  A    between atoms: C_6  and  N_7
REMARK    3  A    between atoms: N_7  and  C_8
REMARK    4  A    between atoms: C_8  and  C_9
REMARK    5  A    between atoms: C_9  and  C_10
REMARK    6  A    between atoms: C_15  and  C_16
REMARK    7  A    between atoms: C_16  and  O_17
REMARK                            x       y       z     vdW  Elec       q    Type
REMARK                         _______ _______ _______ _____ _____    ______ ____
ROOT
ATOM      1  C   UNL     1      46.141   7.021  12.644  0.00  0.00    +0.000 C 
ENDROOT
BRANCH   1   2
ATOM      2  N   UNL     1      47.416   6.408  12.969  0.00  0.00    +0.000 N 
ATOM      3  H   UNL     1      48.209   6.520  12.350  0.00  0.00    +0.000 HD
BRANCH   2   7
ATOM      4  C   UNL     1      48.274   4.849  16.736  0.00  0.00    +0.000 A 
ATOM      5  C   UNL     1      47.452   4.211  15.820  0.00  0.00    +0.000 A 
ATOM      6  N   UNL     1      47.145   4.718  14.594  0.00  0.00    +0.000 NA
ATOM      7  C   UNL     1      47.665   5.911  14.240  0.00  0.00    +0.000 A 
ATOM      8  C   UNL     1      48.511   6.615  15.122  0.00  0.00    +0.000 A 
ATOM      9 CL   UNL     1      49.185   8.148  14.696  0.00  0.00    +0.000 Cl
ATOM     10  C   UNL     1      48.810   6.078  16.380  0.00  0.00    +0.000 A 
BRANCH   4  12
ATOM     11  N   UNL     1      48.784   3.754  19.030  0.00  0.00    +0.000 NA
ATOM     12  C   UNL     1      48.548   4.253  18.004  0.00  0.00    +0.000 C 
ENDBRANCH   4  12
ENDBRANCH   2   7
ENDBRANCH   1   2
BRANCH   1  13
ATOM     13  C   UNL     1      45.888   6.960  11.130  0.00  0.00    +0.000 C 
BRANCH  13  14
ATOM     14  C   UNL     1      45.404   5.602  10.679  0.00  0.00    +0.000 A 
ATOM     15  C   UNL     1      45.651   5.150   9.375  0.00  0.00    +0.000 A 
ATOM     16  C   UNL     1      45.178   3.903   8.966  0.00  0.00    +0.000 A 
ATOM     17 CL   UNL     1      45.482   3.359   7.361  0.00  0.00    +0.000 Cl
ATOM     18  C   UNL     1      44.456   3.091   9.842  0.00  0.00    +0.000 A 
ATOM     19  C   UNL     1      44.196   3.525  11.148  0.00  0.00    +0.000 A 
ATOM     20  C   UNL     1      44.673   4.783  11.554  0.00  0.00    +0.000 A 
BRANCH  19  21
ATOM     21  C   UNL     1      43.396   2.676  12.097  0.00  0.00    +0.000 C 
BRANCH  21  22
ATOM     22  O   UNL     1      42.989   1.472  11.462  0.00  0.00    +0.000 OA
ATOM     23  H   UNL     1      43.386   0.740  11.962  0.00  0.00    +0.000 HD
ENDBRANCH  21  22
ENDBRANCH  19  21
ENDBRANCH  13  14
ENDBRANCH   1  13
TORSDOF 7
ENDMDL
MODEL 7
REMARK VINA RESULT:    -5.889      5.055      7.629
REMARK INTER + INTRA:          -8.658
REMARK INTER:                  -8.197
REMARK INTRA:                  -0.460
REMARK UNBOUND:                -0.530
REMARK  Name = 
REMARK  7 active torsions:
REMARK  status: ('A' for Active; 'I' for Inactive)
REMARK    1  A    between atoms: C_2  and  C_3
REMARK    2  A    between atoms: C_6  and  N_7
REMARK    3  A    between atoms: N_7  and  C_8
REMARK    4  A    between atoms: C_8  and  C_9
REMARK    5  A    between atoms: C_9  and  C_10
REMARK    6  A    between atoms: C_15  and  C_16
REMARK    7  A    between atoms: C_16  and  O_17
REMARK                            x       y       z     vdW  Elec       q    Type
REMARK                         _______ _______ _______ _____ _____    ______ ____
ROOT
ATOM      1  C   UNL     1      47.198   3.570  14.737  0.00  0.00    +0.000 C 
ENDROOT
BRANCH   1   2
ATOM      2  N   UNL     1      47.399   3.461  16.169  0.00  0.00    +0.000 N 
ATOM      3  H   UNL     1      46.606   3.368  16.791  0.00  0.00    +0.000 HD
BRANCH   2   7
ATOM      4  C   UNL     1      51.228   2.716  17.632  0.00  0.00    +0.000 A 
ATOM      5  C   UNL     1      50.499   1.787  16.905  0.00  0.00    +0.000 A 
ATOM      6  N   UNL     1      49.240   2.009  16.439  0.00  0.00    +0.000 NA
ATOM      7  C   UNL     1      48.655   3.197  16.695  0.00  0.00    +0.000 A 
ATOM      8  C   UNL     1      49.339   4.188  17.428  0.00  0.00    +0.000 A 
ATOM      9 CL   UNL     1      48.612   5.717  17.776  0.00  0.00    +0.000 Cl
ATOM     10  C   UNL     1      50.632   3.939  17.903  0.00  0.00    +0.000 A 
BRANCH   4  12
ATOM     11  N   UNL     1      53.618   2.140  18.456  0.00  0.00    +0.000 NA
ATOM     12  C   UNL     1      52.546   2.409  18.088  0.00  0.00    +0.000 C 
ENDBRANCH   4  12
ENDBRANCH   2   7
ENDBRANCH   1   2
BRANCH   1  13
ATOM     13  C   UNL     1      47.053   5.043  14.326  0.00  0.00    +0.000 C 
BRANCH  13  14
ATOM     14  C   UNL     1      45.980   5.249  13.282  0.00  0.00    +0.000 A 
ATOM     15  C   UNL     1      45.701   6.529  12.784  0.00  0.00    +0.000 A 
ATOM     16  C   UNL     1      44.693   6.707  11.837  0.00  0.00    +0.000 A 
ATOM     17 CL   UNL     1      44.355   8.284  11.235  0.00  0.00    +0.000 Cl
ATOM     18  C   UNL     1      43.950   5.621  11.374  0.00  0.00    +0.000 A 
ATOM     19  C   UNL     1      44.209   4.334  11.861  0.00  0.00    +0.000 A 
ATOM     20  C   UNL     1      45.225   4.161  12.817  0.00  0.00    +0.000 A 
BRANCH  19  21
ATOM     21  C   UNL     1      43.399   3.155  11.395  0.00  0.00    +0.000 C 
BRANCH  21  22
ATOM     22  O   UNL     1      43.437   2.115  12.362  0.00  0.00    +0.000 OA
ATOM     23  H   UNL     1      42.542   1.739  12.408  0.00  0.00    +0.000 HD
ENDBRANCH  21  22
ENDBRANCH  19  21
ENDBRANCH  13  14
ENDBRANCH   1  13
TORSDOF 7
ENDMDL
MODEL 8
REMARK VINA RESULT:    -5.861      3.966      5.786
REMARK INTER + INTRA:          -8.619
REMARK INTER:                  -8.275
REMARK INTRA:                  -0.344
REMARK UNBOUND:                -0.530
REMARK  Name = 
REMARK  7 active torsions:
REMARK  status: ('A' for Active; 'I' for Inactive)
REMARK    1  A    between atoms: C_2  and  C_3
REMARK    2  A    between atoms: C_6  and  N_7
REMARK    3  A    between atoms: N_7  and  C_8
REMARK    4  A    between atoms: C_8  and  C_9
REMARK    5  A    between atoms: C_9  and  C_10
REMARK    6  A    between atoms: C_15  and  C_16
REMARK    7  A    between atoms: C_16  and  O_17
REMARK                            x       y       z     vdW  Elec       q    Type
REMARK                         _______ _______ _______ _____ _____    ______ ____
ROOT
ATOM      1  C   UNL     1      47.419   3.654  15.655  0.00  0.00    +0.000 C 
ENDROOT
BRANCH   1   2
ATOM      2  N   UNL     1      46.847   4.806  14.982  0.00  0.00    +0.000 N 
ATOM      3  H   UNL     1      46.989   5.737  15.352  0.00  0.00    +0.000 HD
BRANCH   2   7
ATOM      4  C   UNL     1      45.229   4.535  11.152  0.00  0.00    +0.000 A 
ATOM      5  C   UNL     1      45.256   3.472  12.042  0.00  0.00    +0.000 A 
ATOM      6  N   UNL     1      45.800   3.539  13.288  0.00  0.00    +0.000 NA
ATOM      7  C   UNL     1      46.350   4.703  13.691  0.00  0.00    +0.000 A 
ATOM      8  C   UNL     1      46.356   5.826  12.838  0.00  0.00    +0.000 A 
ATOM      9 CL   UNL     1      47.060   7.327  13.327  0.00  0.00    +0.000 Cl
ATOM     10  C   UNL     1      45.796   5.735  11.559  0.00  0.00    +0.000 A 
BRANCH   4  12
ATOM     11  N   UNL     1      44.171   4.282   8.799  0.00  0.00    +0.000 NA
ATOM     12  C   UNL     1      44.640   4.387   9.860  0.00  0.00    +0.000 C 
ENDBRANCH   4  12
ENDBRANCH   2   7
ENDBRANCH   1   2
BRANCH   1  13
ATOM     13  C   UNL     1      47.697   3.980  17.131  0.00  0.00    +0.000 C 
BRANCH  13  14
ATOM     14  C   UNL     1      49.164   3.887  17.476  0.00  0.00    +0.000 A 
ATOM     15  C   UNL     1      49.864   5.009  17.941  0.00  0.00    +0.000 A 
ATOM     16  C   UNL     1      51.224   4.914  18.235  0.00  0.00    +0.000 A 
ATOM     17 CL   UNL     1      52.074   6.299  18.800  0.00  0.00    +0.000 Cl
ATOM     18  C   UNL     1      51.906   3.708  18.071  0.00  0.00    +0.000 A 
ATOM     19  C   UNL     1      51.228   2.575  17.604  0.00  0.00    +0.000 A 
ATOM     20  C   UNL     1      49.858   2.678  17.308  0.00  0.00    +0.000 A 
BRANCH  19  21
ATOM     21  C   UNL     1      51.953   1.274  17.394  0.00  0.00    +0.000 C 
BRANCH  21  22
ATOM     22  O   UNL     1      51.376   0.252  18.195  0.00  0.00    +0.000 OA
ATOM     23  H   UNL     1      50.931  -0.365  17.590  0.00  0.00    +0.000 HD
ENDBRANCH  21  22
ENDBRANCH  19  21
ENDBRANCH  13  14
ENDBRANCH   1  13
TORSDOF 7
ENDMDL
MODEL 9
REMARK VINA RESULT:    -5.796      3.498      6.610
REMARK INTER + INTRA:          -8.528
REMARK INTER:                  -8.000
REMARK INTRA:                  -0.529
REMARK UNBOUND:                -0.530
REMARK  Name = 
REMARK  7 active torsions:
REMARK  status: ('A' for Active; 'I' for Inactive)
REMARK    1  A    between atoms: C_2  and  C_3
REMARK    2  A    between atoms: C_6  and  N_7
REMARK    3  A    between atoms: N_7  and  C_8
REMARK    4  A    between atoms: C_8  and  C_9
REMARK    5  A    between atoms: C_9  and  C_10
REMARK    6  A    between atoms: C_15  and  C_16
REMARK    7  A    between atoms: C_16  and  O_17
REMARK                            x       y       z     vdW  Elec       q    Type
REMARK                         _______ _______ _______ _____ _____    ______ ____
ROOT
ATOM      1  C   UNL     1      45.107   6.952  12.669  0.00  0.00    +0.000 C 
ENDROOT
BRANCH   1   2
ATOM      2  N   UNL     1      46.036   7.899  13.256  0.00  0.00    +0.000 N 
ATOM      3  H   UNL     1      45.813   8.361  14.127  0.00  0.00    +0.000 HD
BRANCH   2   7
ATOM      4  C   UNL     1      49.933   8.089  11.795  0.00  0.00    +0.000 A 
ATOM      5  C   UNL     1      49.437   6.998  12.492  0.00  0.00    +0.000 A 
ATOM      6  N   UNL     1      48.173   6.930  12.993  0.00  0.00    +0.000 NA
ATOM      7  C   UNL     1      47.347   7.981  12.809  0.00  0.00    +0.000 A 
ATOM      8  C   UNL     1      47.786   9.122  12.107  0.00  0.00    +0.000 A 
ATOM      9 CL   UNL     1      46.751  10.484  11.862  0.00  0.00    +0.000 Cl
ATOM     10  C   UNL     1      49.090   9.174  11.603  0.00  0.00    +0.000 A 
BRANCH   4  12
ATOM     11  N   UNL     1      52.364   8.103  10.894  0.00  0.00    +0.000 NA
ATOM     12  C   UNL     1      51.273   8.086  11.299  0.00  0.00    +0.000 C 
ENDBRANCH   4  12
ENDBRANCH   2   7
ENDBRANCH   1   2
BRANCH   1  13
ATOM     13  C   UNL     1      45.298   6.886  11.146  0.00  0.00    +0.000 C 
BRANCH  13  14
ATOM     14  C   UNL     1      45.036   5.506  10.590  0.00  0.00    +0.000 A 
ATOM     15  C   UNL     1      44.328   4.555  11.336  0.00  0.00    +0.000 A 
ATOM     16  C   UNL     1      44.114   3.277  10.818  0.00  0.00    +0.000 A 
ATOM     17 CL   UNL     1      43.246   2.115  11.746  0.00  0.00    +0.000 Cl
ATOM     18  C   UNL     1      44.598   2.928   9.558  0.00  0.00    +0.000 A 
ATOM     19  C   UNL     1      45.312   3.862   8.797  0.00  0.00    +0.000 A 
ATOM     20  C   UNL     1      45.527   5.147   9.324  0.00  0.00    +0.000 A 
BRANCH  19  21
ATOM     21  C   UNL     1      45.866   3.495   7.447  0.00  0.00    +0.000 C 
BRANCH  21  22
ATOM     22  O   UNL     1      46.908   4.389   7.080  0.00  0.00    +0.000 OA
ATOM     23  H   UNL     1      47.666   3.845   6.810  0.00  0.00    +0.000 HD
ENDBRANCH  21  22
ENDBRANCH  19  21
ENDBRANCH  13  14
ENDBRANCH   1  13
TORSDOF 7
ENDMDL
