MODEL 1
REMARK VINA RESULT:    -8.413      0.000      0.000
REMARK INTER + INTRA:         -12.449
REMARK INTER:                 -11.856
REMARK INTRA:                  -0.593
REMARK UNBOUND:                -0.593
REMARK  Name = 
REMARK  10 active torsions:
REMARK  status: ('A' for Active; 'I' for Inactive)
REMARK    1  A    between atoms: C_1  and  C_2
REMARK    2  A    between atoms: C_4  and  N_5
REMARK    3  A    between atoms: N_5  and  C_6
REMARK    4  A    between atoms: C_6  and  C_7
REMARK    5  A    between atoms: C_7  and  C_8
REMARK    6  A    between atoms: C_7  and  C_9
REMARK    7  A    between atoms: C_13  and  O_14
REMARK    8  A    between atoms: O_14  and  C_15
REMARK    9  A    between atoms: N_17  and  C_18
REMARK   10  A    between atoms: C_23  and  C_24
REMARK                            x       y       z     vdW  Elec       q    Type
REMARK                         _______ _______ _______ _____ _____    ______ ____
ROOT
ATOM      1  C   UNL     1      43.601   3.302  11.379  0.00  0.00    +0.000 C 
ENDROOT
BRANCH   1   2
ATOM      2  N   UNL     1      43.777   3.890  10.060  0.00  0.00    +0.000 N 
ATOM      3  H   UNL     1      42.935   4.159   9.558  0.00  0.00    +0.000 HD
BRANCH   2   7
ATOM      4  C   UNL     1      46.374   0.288   7.948  0.00  0.00    +0.000 C 
ATOM      5  C   UNL     1      46.055   1.750   8.081  0.00  0.00    +0.000 A 
ATOM      6  C   UNL     1      45.051   2.123   8.985  0.00  0.00    +0.000 A 
ATOM      7  C   UNL     1      44.712   3.456   9.155  0.00  0.00    +0.000 A 
ATOM      8  N   UNL     1      45.330   4.430   8.465  0.00  0.00    +0.000 NA
ATOM      9  C   UNL     1      46.306   4.065   7.593  0.00  0.00    +0.000 A 
ATOM     10  C   UNL     1      46.718   2.755   7.371  0.00  0.00    +0.000 A 
BRANCH  10  11
ATOM     11  C   UNL     1      47.795   2.464   6.392  0.00  0.00    +0.000 C 
ATOM     12  N   UNL     1      47.692   3.021   5.145  0.00  0.00    +0.000 N 
ATOM     13  O   UNL     1      48.767   1.769   6.668  0.00  0.00    +0.000 OA
ATOM     14  H   UNL     1      47.042   3.759   4.909  0.00  0.00    +0.000 HD
ATOM     15  H   UNL     1      48.487   2.887   4.536  0.00  0.00    +0.000 HD
ENDBRANCH  10  11
ENDBRANCH   2   7
ENDBRANCH   1   2
BRANCH   1  16
ATOM     16  C   UNL     1      43.576   4.361  12.520  0.00  0.00    +0.000 C 
ATOM     17  C   UNL     1      42.538   5.428  12.124  0.00  0.00    +0.000 C 
BRANCH  16  18
ATOM     18  C   UNL     1      44.912   5.024  12.859  0.00  0.00    +0.000 A 
ATOM     19  C   UNL     1      45.290   6.271  12.347  0.00  0.00    +0.000 A 
ATOM     20  C   UNL     1      46.486   6.881  12.730  0.00  0.00    +0.000 A 
ATOM     21  C   UNL     1      47.342   6.247  13.624  0.00  0.00    +0.000 A 
ATOM     22  C   UNL     1      47.021   4.983  14.103  0.00  0.00    +0.000 A 
ATOM     23  C   UNL     1      45.820   4.374  13.716  0.00  0.00    +0.000 A 
BRANCH  22  24
ATOM     24  O   UNL     1      47.784   4.260  14.986  0.00  0.00    +0.000 OA
BRANCH  24  25
ATOM     25  C   UNL     1      47.757   4.613  16.387  0.00  0.00    +0.000 C 
ATOM     26  C   UNL     1      48.963   5.392  16.963  0.00  0.00    +0.000 C 
ATOM     27  N   UNL     1      49.041   4.444  18.098  0.00  0.00    +0.000 NA
ATOM     28  C   UNL     1      48.317   4.961  19.259  0.00  0.00    +0.000 C 
ATOM     29  C   UNL     1      48.202   3.485  17.347  0.00  0.00    +0.000 C 
ENDBRANCH  24  25
ENDBRANCH  22  24
ENDBRANCH  16  18
ENDBRANCH   1  16
TORSDOF 7
ENDMDL
MODEL 2
REMARK VINA RESULT:    -8.136      1.771      2.014
REMARK INTER + INTRA:         -12.058
REMARK INTER:                 -11.179
REMARK INTRA:                  -0.879
REMARK UNBOUND:                -0.593
REMARK  Name = 
REMARK  10 active torsions:
REMARK  status: ('A' for Active; 'I' for Inactive)
REMARK    1  A    between atoms: C_1  and  C_2
REMARK    2  A    between atoms: C_4  and  N_5
REMARK    3  A    between atoms: N_5  and  C_6
REMARK    4  A    between atoms: C_6  and  C_7
REMARK    5  A    between atoms: C_7  and  C_8
REMARK    6  A    between atoms: C_7  and  C_9
REMARK    7  A    between atoms: C_13  and  O_14
REMARK    8  A    between atoms: O_14  and  C_15
REMARK    9  A    between atoms: N_17  and  C_18
REMARK   10  A    between atoms: C_23  and  C_24
REMARK                            x       y       z     vdW  Elec       q    Type
REMARK                         _______ _______ _______ _____ _____    ______ ____
ROOT
ATOM      1  C   UNL     1      44.330   3.101  11.944  0.00  0.00    +0.000 C 
ENDROOT
BRANCH   1   2
ATOM      2  N   UNL     1      43.884   3.218  10.564  0.00  0.00    +0.000 N 
ATOM      3  H   UNL     1      42.960   2.856  10.345  0.00  0.00    +0.000 HD
BRANCH   2   7
ATOM      4  C   UNL     1      46.643   0.290   7.735  0.00  0.00    +0.000 C 
ATOM      5  C   UNL     1      46.108   1.657   8.052  0.00  0.00    +0.000 A 
ATOM      6  C   UNL     1      45.231   1.784   9.138  0.00  0.00    +0.000 A 
ATOM      7  C   UNL     1      44.705   3.019   9.483  0.00  0.00    +0.000 A 
ATOM      8  N   UNL     1      45.016   4.130   8.793  0.00  0.00    +0.000 NA
ATOM      9  C   UNL     1      45.870   4.005   7.745  0.00  0.00    +0.000 A 
ATOM     10  C   UNL     1      46.454   2.810   7.339  0.00  0.00    +0.000 A 
BRANCH  10  11
ATOM     11  C   UNL     1      47.375   2.782   6.176  0.00  0.00    +0.000 C 
ATOM     12  N   UNL     1      48.714   2.639   6.425  0.00  0.00    +0.000 N 
ATOM     13  O   UNL     1      46.978   2.863   5.018  0.00  0.00    +0.000 OA
ATOM     14  H   UNL     1      49.095   2.364   7.320  0.00  0.00    +0.000 HD
ATOM     15  H   UNL     1      49.304   2.524   5.611  0.00  0.00    +0.000 HD
ENDBRANCH  10  11
ENDBRANCH   2   7
ENDBRANCH   1   2
BRANCH   1  16
ATOM     16  C   UNL     1      44.321   4.460  12.704  0.00  0.00    +0.000 C 
ATOM     17  C   UNL     1      43.134   5.276  12.157  0.00  0.00    +0.000 C 
BRANCH  16  18
ATOM     18  C   UNL     1      45.607   5.285  12.633  0.00  0.00    +0.000 A 
ATOM     19  C   UNL     1      45.902   6.138  11.563  0.00  0.00    +0.000 A 
ATOM     20  C   UNL     1      47.051   6.930  11.561  0.00  0.00    +0.000 A 
ATOM     21  C   UNL     1      47.945   6.873  12.626  0.00  0.00    +0.000 A 
ATOM     22  C   UNL     1      47.708   5.991  13.673  0.00  0.00    +0.000 A 
ATOM     23  C   UNL     1      46.554   5.199  13.672  0.00  0.00    +0.000 A 
BRANCH  22  24
ATOM     24  O   UNL     1      48.515   5.846  14.775  0.00  0.00    +0.000 OA
BRANCH  24  25
ATOM     25  C   UNL     1      49.363   6.947  15.172  0.00  0.00    +0.000 C 
ATOM     26  C   UNL     1      50.316   6.733  16.372  0.00  0.00    +0.000 C 
ATOM     27  N   UNL     1      49.858   8.007  16.971  0.00  0.00    +0.000 NA
ATOM     28  C   UNL     1      50.760   9.103  16.615  0.00  0.00    +0.000 C 
ATOM     29  C   UNL     1      48.679   7.996  16.079  0.00  0.00    +0.000 C 
ENDBRANCH  24  25
ENDBRANCH  22  24
ENDBRANCH  16  18
ENDBRANCH   1  16
TORSDOF 7
ENDMDL
MODEL 3
REMARK VINA RESULT:    -7.834      1.317      1.782
REMARK INTER + INTRA:         -11.633
REMARK INTER:                 -11.527
REMARK INTRA:                  -0.107
REMARK UNBOUND:                -0.593
REMARK  Name = 
REMARK  10 active torsions:
REMARK  status: ('A' for Active; 'I' for Inactive)
REMARK    1  A    between atoms: C_1  and  C_2
REMARK    2  A    between atoms: C_4  and  N_5
REMARK    3  A    between atoms: N_5  and  C_6
REMARK    4  A    between atoms: C_6  and  C_7
REMARK    5  A    between atoms: C_7  and  C_8
REMARK    6  A    between atoms: C_7  and  C_9
REMARK    7  A    between atoms: C_13  and  O_14
REMARK    8  A    between atoms: O_14  and  C_15
REMARK    9  A    between atoms: N_17  and  C_18
REMARK   10  A    between atoms: C_23  and  C_24
REMARK                            x       y       z     vdW  Elec       q    Type
REMARK                         _______ _______ _______ _____ _____    ______ ____
ROOT
ATOM      1  C   UNL     1      44.000   5.575  10.882  0.00  0.00    +0.000 C 
ENDROOT
BRANCH   1   2
ATOM      2  N   UNL     1      43.657   4.738   9.743  0.00  0.00    +0.000 N 
ATOM      3  H   UNL     1      42.733   4.315   9.741  0.00  0.00    +0.000 HD
BRANCH   2   7
ATOM      4  C   UNL     1      47.167   3.782   6.433  0.00  0.00    +0.000 C 
ATOM      5  C   UNL     1      46.249   3.308   7.524  0.00  0.00    +0.000 A 
ATOM      6  C   UNL     1      45.410   4.251   8.133  0.00  0.00    +0.000 A 
ATOM      7  C   UNL     1      44.539   3.875   9.144  0.00  0.00    +0.000 A 
ATOM      8  N   UNL     1      44.469   2.603   9.571  0.00  0.00    +0.000 NA
ATOM      9  C   UNL     1      45.280   1.691   8.975  0.00  0.00    +0.000 A 
ATOM     10  C   UNL     1      46.172   1.977   7.947  0.00  0.00    +0.000 A 
BRANCH  10  11
ATOM     11  C   UNL     1      47.016   0.904   7.366  0.00  0.00    +0.000 C 
ATOM     12  N   UNL     1      46.699  -0.393   7.671  0.00  0.00    +0.000 N 
ATOM     13  O   UNL     1      47.959   1.138   6.618  0.00  0.00    +0.000 OA
ATOM     14  H   UNL     1      45.830  -0.675   8.104  0.00  0.00    +0.000 HD
ATOM     15  H   UNL     1      47.229  -1.103   7.182  0.00  0.00    +0.000 HD
ENDBRANCH  10  11
ENDBRANCH   2   7
ENDBRANCH   1   2
BRANCH   1  16
ATOM     16  C   UNL     1      44.613   4.772  12.066  0.00  0.00    +0.000 C 
ATOM     17  C   UNL     1      43.490   4.561  13.099  0.00  0.00    +0.000 C 
BRANCH  16  18
ATOM     18  C   UNL     1      45.842   5.388  12.739  0.00  0.00    +0.000 A 
ATOM     19  C   UNL     1      46.376   6.623  12.355  0.00  0.00    +0.000 A 
ATOM     20  C   UNL     1      47.456   7.190  13.034  0.00  0.00    +0.000 A 
ATOM     21  C   UNL     1      48.038   6.523  14.107  0.00  0.00    +0.000 A 
ATOM     22  C   UNL     1      47.567   5.268  14.472  0.00  0.00    +0.000 A 
ATOM     23  C   UNL     1      46.484   4.703  13.788  0.00  0.00    +0.000 A 
BRANCH  22  24
ATOM     24  O   UNL     1      48.060   4.515  15.510  0.00  0.00    +0.000 OA
BRANCH  24  25
ATOM     25  C   UNL     1      48.113   5.095  16.832  0.00  0.00    +0.000 C 
ATOM     26  C   UNL     1      49.469   5.083  17.576  0.00  0.00    +0.000 C 
ATOM     27  N   UNL     1      48.807   4.544  18.786  0.00  0.00    +0.000 NA
ATOM     28  C   UNL     1      48.455   5.622  19.711  0.00  0.00    +0.000 C 
ATOM     29  C   UNL     1      47.637   4.160  17.968  0.00  0.00    +0.000 C 
ENDBRANCH  24  25
ENDBRANCH  22  24
ENDBRANCH  16  18
ENDBRANCH   1  16
TORSDOF 7
ENDMDL
MODEL 4
REMARK VINA RESULT:    -7.481      2.648      3.355
REMARK INTER + INTRA:         -11.136
REMARK INTER:                 -10.814
REMARK INTRA:                  -0.321
REMARK UNBOUND:                -0.593
REMARK  Name = 
REMARK  10 active torsions:
REMARK  status: ('A' for Active; 'I' for Inactive)
REMARK    1  A    between atoms: C_1  and  C_2
REMARK    2  A    between atoms: C_4  and  N_5
REMARK    3  A    between atoms: N_5  and  C_6
REMARK    4  A    between atoms: C_6  and  C_7
REMARK    5  A    between atoms: C_7  and  C_8
REMARK    6  A    between atoms: C_7  and  C_9
REMARK    7  A    between atoms: C_13  and  O_14
REMARK    8  A    between atoms: O_14  and  C_15
REMARK    9  A    between atoms: N_17  and  C_18
REMARK   10  A    between atoms: C_23  and  C_24
REMARK                            x       y       z     vdW  Elec       q    Type
REMARK                         _______ _______ _______ _____ _____    ______ ____
ROOT
ATOM      1  C   UNL     1      43.866   5.180  11.193  0.00  0.00    +0.000 C 
ENDROOT
BRANCH   1   2
ATOM      2  N   UNL     1      43.753   4.795   9.795  0.00  0.00    +0.000 N 
ATOM      3  H   UNL     1      42.816   4.658   9.427  0.00  0.00    +0.000 HD
BRANCH   2   7
ATOM      4  C   UNL     1      47.031   3.694   6.298  0.00  0.00    +0.000 C 
ATOM      5  C   UNL     1      46.201   3.271   7.476  0.00  0.00    +0.000 A 
ATOM      6  C   UNL     1      45.394   4.238   8.092  0.00  0.00    +0.000 A 
ATOM      7  C   UNL     1      44.602   3.910   9.182  0.00  0.00    +0.000 A 
ATOM      8  N   UNL     1      44.581   2.662   9.681  0.00  0.00    +0.000 NA
ATOM      9  C   UNL     1      45.361   1.727   9.079  0.00  0.00    +0.000 A 
ATOM     10  C   UNL     1      46.172   1.965   7.976  0.00  0.00    +0.000 A 
BRANCH  10  11
ATOM     11  C   UNL     1      46.988   0.870   7.394  0.00  0.00    +0.000 C 
ATOM     12  N   UNL     1      46.616  -0.419   7.672  0.00  0.00    +0.000 N 
ATOM     13  O   UNL     1      47.955   1.080   6.671  0.00  0.00    +0.000 OA
ATOM     14  H   UNL     1      45.728  -0.674   8.081  0.00  0.00    +0.000 HD
ATOM     15  H   UNL     1      47.130  -1.140   7.182  0.00  0.00    +0.000 HD
ENDBRANCH  10  11
ENDBRANCH   2   7
ENDBRANCH   1   2
BRANCH   1  16
ATOM     16  C   UNL     1      45.342   5.309  11.672  0.00  0.00    +0.000 C 
ATOM     17  C   UNL     1      45.479   4.460  12.950  0.00  0.00    +0.000 C 
BRANCH  16  18
ATOM     18  C   UNL     1      45.850   6.730  11.926  0.00  0.00    +0.000 A 
ATOM     19  C   UNL     1      44.991   7.816  12.130  0.00  0.00    +0.000 A 
ATOM     20  C   UNL     1      45.485   9.087  12.427  0.00  0.00    +0.000 A 
ATOM     21  C   UNL     1      46.857   9.305  12.510  0.00  0.00    +0.000 A 
ATOM     22  C   UNL     1      47.734   8.259  12.254  0.00  0.00    +0.000 A 
ATOM     23  C   UNL     1      47.234   6.985  11.956  0.00  0.00    +0.000 A 
BRANCH  22  24
ATOM     24  O   UNL     1      49.103   8.352  12.304  0.00  0.00    +0.000 OA
BRANCH  24  25
ATOM     25  C   UNL     1      49.809   7.716  13.394  0.00  0.00    +0.000 C 
ATOM     26  C   UNL     1      49.454   8.147  14.838  0.00  0.00    +0.000 C 
ATOM     27  N   UNL     1      50.893   8.306  15.149  0.00  0.00    +0.000 NA
ATOM     28  C   UNL     1      51.427   7.097  15.778  0.00  0.00    +0.000 C 
ATOM     29  C   UNL     1      51.199   8.317  13.703  0.00  0.00    +0.000 C 
ENDBRANCH  24  25
ENDBRANCH  22  24
ENDBRANCH  16  18
ENDBRANCH   1  16
TORSDOF 7
ENDMDL
MODEL 5
REMARK VINA RESULT:    -7.358      2.595      3.345
REMARK INTER + INTRA:         -10.962
REMARK INTER:                 -10.574
REMARK INTRA:                  -0.389
REMARK UNBOUND:                -0.593
REMARK  Name = 
REMARK  10 active torsions:
REMARK  status: ('A' for Active; 'I' for Inactive)
REMARK    1  A    between atoms: C_1  and  C_2
REMARK    2  A    between atoms: C_4  and  N_5
REMARK    3  A    between atoms: N_5  and  C_6
REMARK    4  A    between atoms: C_6  and  C_7
REMARK    5  A    between atoms: C_7  and  C_8
REMARK    6  A    between atoms: C_7  and  C_9
REMARK    7  A    between atoms: C_13  and  O_14
REMARK    8  A    between atoms: O_14  and  C_15
REMARK    9  A    between atoms: N_17  and  C_18
REMARK   10  A    between atoms: C_23  and  C_24
REMARK                            x       y       z     vdW  Elec       q    Type
REMARK                         _______ _______ _______ _____ _____    ______ ____
ROOT
ATOM      1  C   UNL     1      44.094   3.965  11.538  0.00  0.00    +0.000 C 
ENDROOT
BRANCH   1   2
ATOM      2  N   UNL     1      43.819   3.876  10.113  0.00  0.00    +0.000 N 
ATOM      3  H   UNL     1      42.898   3.544   9.840  0.00  0.00    +0.000 HD
BRANCH   2   7
ATOM      4  C   UNL     1      46.382   0.279   7.951  0.00  0.00    +0.000 C 
ATOM      5  C   UNL     1      46.061   1.740   8.089  0.00  0.00    +0.000 A 
ATOM      6  C   UNL     1      45.075   2.111   9.013  0.00  0.00    +0.000 A 
ATOM      7  C   UNL     1      44.736   3.444   9.189  0.00  0.00    +0.000 A 
ATOM      8  N   UNL     1      45.338   4.419   8.486  0.00  0.00    +0.000 NA
ATOM      9  C   UNL     1      46.296   4.055   7.595  0.00  0.00    +0.000 A 
ATOM     10  C   UNL     1      46.707   2.747   7.365  0.00  0.00    +0.000 A 
BRANCH  10  11
ATOM     11  C   UNL     1      47.765   2.458   6.365  0.00  0.00    +0.000 C 
ATOM     12  N   UNL     1      47.644   3.030   5.126  0.00  0.00    +0.000 N 
ATOM     13  O   UNL     1      48.735   1.752   6.616  0.00  0.00    +0.000 OA
ATOM     14  H   UNL     1      46.997   3.775   4.909  0.00  0.00    +0.000 HD
ATOM     15  H   UNL     1      48.428   2.895   4.501  0.00  0.00    +0.000 HD
ENDBRANCH  10  11
ENDBRANCH   2   7
ENDBRANCH   1   2
BRANCH   1  16
ATOM     16  C   UNL     1      45.492   4.577  11.852  0.00  0.00    +0.000 C 
ATOM     17  C   UNL     1      46.023   3.868  13.112  0.00  0.00    +0.000 C 
BRANCH  16  18
ATOM     18  C   UNL     1      45.541   6.095  12.039  0.00  0.00    +0.000 A 
ATOM     19  C   UNL     1      44.681   6.969  11.364  0.00  0.00    +0.000 A 
ATOM     20  C   UNL     1      44.704   8.343  11.608  0.00  0.00    +0.000 A 
ATOM     21  C   UNL     1      45.606   8.878  12.523  0.00  0.00    +0.000 A 
ATOM     22  C   UNL     1      46.512   8.041  13.163  0.00  0.00    +0.000 A 
ATOM     23  C   UNL     1      46.485   6.663  12.915  0.00  0.00    +0.000 A 
BRANCH  22  24
ATOM     24  O   UNL     1      47.446   8.451  14.082  0.00  0.00    +0.000 OA
BRANCH  24  25
ATOM     25  C   UNL     1      48.788   8.745  13.633  0.00  0.00    +0.000 C 
ATOM     26  C   UNL     1      49.041   8.836  12.109  0.00  0.00    +0.000 C 
ATOM     27  N   UNL     1      50.215   7.945  12.245  0.00  0.00    +0.000 NA
ATOM     28  C   UNL     1      51.448   8.723  12.366  0.00  0.00    +0.000 C 
ATOM     29  C   UNL     1      49.735   7.524  13.579  0.00  0.00    +0.000 C 
ENDBRANCH  24  25
ENDBRANCH  22  24
ENDBRANCH  16  18
ENDBRANCH   1  16
TORSDOF 7
ENDMDL
MODEL 6
REMARK VINA RESULT:    -7.226      2.139      8.499
REMARK INTER + INTRA:         -10.776
REMARK INTER:                  -9.816
REMARK INTRA:                  -0.960
REMARK UNBOUND:                -0.593
REMARK  Name = 
REMARK  10 active torsions:
REMARK  status: ('A' for Active; 'I' for Inactive)
REMARK    1  A    between atoms: C_1  and  C_2
REMARK    2  A    between atoms: C_4  and  N_5
REMARK    3  A    between atoms: N_5  and  C_6
REMARK    4  A    between atoms: C_6  and  C_7
REMARK    5  A    between atoms: C_7  and  C_8
REMARK    6  A    between atoms: C_7  and  C_9
REMARK    7  A    between atoms: C_13  and  O_14
REMARK    8  A    between atoms: O_14  and  C_15
REMARK    9  A    between atoms: N_17  and  C_18
REMARK   10  A    between atoms: C_23  and  C_24
REMARK                            x       y       z     vdW  Elec       q    Type
REMARK                         _______ _______ _______ _____ _____    ______ ____
ROOT
ATOM      1  C   UNL     1      47.541   6.275  12.651  0.00  0.00    +0.000 C 
ENDROOT
BRANCH   1   2
ATOM      2  N   UNL     1      47.670   6.827  13.990  0.00  0.00    +0.000 N 
ATOM      3  H   UNL     1      47.991   7.788  14.065  0.00  0.00    +0.000 HD
BRANCH   2   7
ATOM      4  C   UNL     1      47.235   3.217  17.302  0.00  0.00    +0.000 C 
ATOM      5  C   UNL     1      48.005   4.382  16.746  0.00  0.00    +0.000 A 
ATOM      6  C   UNL     1      47.488   5.033  15.619  0.00  0.00    +0.000 A 
ATOM      7  C   UNL     1      48.150   6.116  15.061  0.00  0.00    +0.000 A 
ATOM      8  N   UNL     1      49.302   6.575  15.579  0.00  0.00    +0.000 NA
ATOM      9  C   UNL     1      49.797   5.945  16.675  0.00  0.00    +0.000 A 
ATOM     10  C   UNL     1      49.193   4.863  17.306  0.00  0.00    +0.000 A 
BRANCH  10  11
ATOM     11  C   UNL     1      49.821   4.245  18.500  0.00  0.00    +0.000 C 
ATOM     12  N   UNL     1      50.752   3.261  18.294  0.00  0.00    +0.000 N 
ATOM     13  O   UNL     1      49.551   4.595  19.644  0.00  0.00    +0.000 OA
ATOM     14  H   UNL     1      51.174   3.063  17.397  0.00  0.00    +0.000 HD
ATOM     15  H   UNL     1      51.233   2.931  19.120  0.00  0.00    +0.000 HD
ENDBRANCH  10  11
ENDBRANCH   2   7
ENDBRANCH   1   2
BRANCH   1  16
ATOM     16  C   UNL     1      46.156   6.566  12.002  0.00  0.00    +0.000 C 
ATOM     17  C   UNL     1      45.493   7.682  12.832  0.00  0.00    +0.000 C 
BRANCH  16  18
ATOM     18  C   UNL     1      45.206   5.373  11.868  0.00  0.00    +0.000 A 
ATOM     19  C   UNL     1      44.286   5.023  12.863  0.00  0.00    +0.000 A 
ATOM     20  C   UNL     1      43.386   3.972  12.682  0.00  0.00    +0.000 A 
ATOM     21  C   UNL     1      43.398   3.233  11.503  0.00  0.00    +0.000 A 
ATOM     22  C   UNL     1      44.340   3.520  10.524  0.00  0.00    +0.000 A 
ATOM     23  C   UNL     1      45.241   4.575  10.709  0.00  0.00    +0.000 A 
BRANCH  22  24
ATOM     24  O   UNL     1      44.450   2.862   9.323  0.00  0.00    +0.000 OA
BRANCH  24  25
ATOM     25  C   UNL     1      45.729   2.843   8.649  0.00  0.00    +0.000 C 
ATOM     26  C   UNL     1      45.779   3.314   7.176  0.00  0.00    +0.000 C 
ATOM     27  N   UNL     1      46.549   2.103   6.810  0.00  0.00    +0.000 NA
ATOM     28  C   UNL     1      47.986   2.379   6.813  0.00  0.00    +0.000 C 
ATOM     29  C   UNL     1      46.141   1.466   8.080  0.00  0.00    +0.000 C 
ENDBRANCH  24  25
ENDBRANCH  22  24
ENDBRANCH  16  18
ENDBRANCH   1  16
TORSDOF 7
ENDMDL
MODEL 7
REMARK VINA RESULT:    -6.521      3.928      8.553
REMARK INTER + INTRA:          -9.783
REMARK INTER:                  -8.967
REMARK INTRA:                  -0.816
REMARK UNBOUND:                -0.593
REMARK  Name = 
REMARK  10 active torsions:
REMARK  status: ('A' for Active; 'I' for Inactive)
REMARK    1  A    between atoms: C_1  and  C_2
REMARK    2  A    between atoms: C_4  and  N_5
REMARK    3  A    between atoms: N_5  and  C_6
REMARK    4  A    between atoms: C_6  and  C_7
REMARK    5  A    between atoms: C_7  and  C_8
REMARK    6  A    between atoms: C_7  and  C_9
REMARK    7  A    between atoms: C_13  and  O_14
REMARK    8  A    between atoms: O_14  and  C_15
REMARK    9  A    between atoms: N_17  and  C_18
REMARK   10  A    between atoms: C_23  and  C_24
REMARK                            x       y       z     vdW  Elec       q    Type
REMARK                         _______ _______ _______ _____ _____    ______ ____
ROOT
ATOM      1  C   UNL     1      48.804   6.809  16.552  0.00  0.00    +0.000 C 
ENDROOT
BRANCH   1   2
ATOM      2  N   UNL     1      48.496   5.542  17.197  0.00  0.00    +0.000 N 
ATOM      3  H   UNL     1      47.878   5.572  18.003  0.00  0.00    +0.000 HD
BRANCH   2   7
ATOM      4  C   UNL     1      52.840   3.950  18.864  0.00  0.00    +0.000 C 
ATOM      5  C   UNL     1      51.548   3.680  18.146  0.00  0.00    +0.000 A 
ATOM      6  C   UNL     1      50.626   4.728  18.037  0.00  0.00    +0.000 A 
ATOM      7  C   UNL     1      49.417   4.543  17.383  0.00  0.00    +0.000 A 
ATOM      8  N   UNL     1      49.091   3.360  16.836  0.00  0.00    +0.000 NA
ATOM      9  C   UNL     1      49.990   2.347  16.940  0.00  0.00    +0.000 A 
ATOM     10  C   UNL     1      51.228   2.449  17.564  0.00  0.00    +0.000 A 
BRANCH  10  11
ATOM     11  C   UNL     1      52.137   1.277  17.623  0.00  0.00    +0.000 C 
ATOM     12  N   UNL     1      51.660   0.129  18.198  0.00  0.00    +0.000 N 
ATOM     13  O   UNL     1      53.274   1.299  17.164  0.00  0.00    +0.000 OA
ATOM     14  H   UNL     1      50.686  -0.034  18.409  0.00  0.00    +0.000 HD
ATOM     15  H   UNL     1      52.265  -0.679  18.134  0.00  0.00    +0.000 HD
ENDBRANCH  10  11
ENDBRANCH   2   7
ENDBRANCH   1   2
BRANCH   1  16
ATOM     16  C   UNL     1      49.541   6.637  15.191  0.00  0.00    +0.000 C 
ATOM     17  C   UNL     1      50.750   7.591  15.208  0.00  0.00    +0.000 C 
BRANCH  16  18
ATOM     18  C   UNL     1      48.702   6.869  13.932  0.00  0.00    +0.000 A 
ATOM     19  C   UNL     1      49.265   7.239  12.706  0.00  0.00    +0.000 A 
ATOM     20  C   UNL     1      48.481   7.376  11.559  0.00  0.00    +0.000 A 
ATOM     21  C   UNL     1      47.108   7.161  11.618  0.00  0.00    +0.000 A 
ATOM     22  C   UNL     1      46.514   6.851  12.835  0.00  0.00    +0.000 A 
ATOM     23  C   UNL     1      47.304   6.715  13.983  0.00  0.00    +0.000 A 
BRANCH  22  24
ATOM     24  O   UNL     1      45.173   6.618  13.018  0.00  0.00    +0.000 OA
BRANCH  24  25
ATOM     25  C   UNL     1      44.565   5.479  12.368  0.00  0.00    +0.000 C 
ATOM     26  C   UNL     1      43.198   4.985  12.900  0.00  0.00    +0.000 C 
ATOM     27  N   UNL     1      43.707   3.595  12.930  0.00  0.00    +0.000 NA
ATOM     28  C   UNL     1      43.345   2.880  11.705  0.00  0.00    +0.000 C 
ATOM     29  C   UNL     1      45.092   4.105  12.842  0.00  0.00    +0.000 C 
ENDBRANCH  24  25
ENDBRANCH  22  24
ENDBRANCH  16  18
ENDBRANCH   1  16
TORSDOF 7
ENDMDL
MODEL 8
REMARK VINA RESULT:    -6.382      3.353      6.097
REMARK INTER + INTRA:          -9.586
REMARK INTER:                  -8.394
REMARK INTRA:                  -1.192
REMARK UNBOUND:                -0.593
REMARK  Name = 
REMARK  10 active torsions:
REMARK  status: ('A' for Active; 'I' for Inactive)
REMARK    1  A    between atoms: C_1  and  C_2
REMARK    2  A    between atoms: C_4  and  N_5
REMARK    3  A    between atoms: N_5  and  C_6
REMARK    4  A    between atoms: C_6  and  C_7
REMARK    5  A    between atoms: C_7  and  C_8
REMARK    6  A    between atoms: C_7  and  C_9
REMARK    7  A    between atoms: C_13  and  O_14
REMARK    8  A    between atoms: O_14  and  C_15
REMARK    9  A    between atoms: N_17  and  C_18
REMARK   10  A    between atoms: C_23  and  C_24
REMARK                            x       y       z     vdW  Elec       q    Type
REMARK                         _______ _______ _______ _____ _____    ______ ____
ROOT
ATOM      1  C   UNL     1      47.158   3.657  16.135  0.00  0.00    +0.000 C 
ENDROOT
BRANCH   1   2
ATOM      2  N   UNL     1      47.455   3.368  14.740  0.00  0.00    +0.000 N 
ATOM      3  H   UNL     1      48.433   3.372  14.465  0.00  0.00    +0.000 HD
BRANCH   2   7
ATOM      4  C   UNL     1      45.849   7.038  11.886  0.00  0.00    +0.000 C 
ATOM      5  C   UNL     1      45.835   5.582  12.258  0.00  0.00    +0.000 A 
ATOM      6  C   UNL     1      46.670   5.162  13.301  0.00  0.00    +0.000 A 
ATOM      7  C   UNL     1      46.700   3.832  13.693  0.00  0.00    +0.000 A 
ATOM      8  N   UNL     1      45.934   2.907  13.090  0.00  0.00    +0.000 NA
ATOM      9  C   UNL     1      45.123   3.319  12.082  0.00  0.00    +0.000 A 
ATOM     10  C   UNL     1      45.020   4.631  11.635  0.00  0.00    +0.000 A 
BRANCH  10  11
ATOM     11  C   UNL     1      44.100   4.974  10.521  0.00  0.00    +0.000 C 
ATOM     12  N   UNL     1      44.532   4.739   9.242  0.00  0.00    +0.000 N 
ATOM     13  O   UNL     1      42.980   5.435  10.709  0.00  0.00    +0.000 OA
ATOM     14  H   UNL     1      45.343   4.181   9.014  0.00  0.00    +0.000 HD
ATOM     15  H   UNL     1      43.848   4.890   8.513  0.00  0.00    +0.000 HD
ENDBRANCH  10  11
ENDBRANCH   2   7
ENDBRANCH   1   2
BRANCH   1  16
ATOM     16  C   UNL     1      48.400   4.153  16.932  0.00  0.00    +0.000 C 
ATOM     17  C   UNL     1      48.496   3.288  18.204  0.00  0.00    +0.000 C 
BRANCH  16  18
ATOM     18  C   UNL     1      48.420   5.638  17.301  0.00  0.00    +0.000 A 
ATOM     19  C   UNL     1      48.028   6.111  18.558  0.00  0.00    +0.000 A 
ATOM     20  C   UNL     1      48.123   7.464  18.887  0.00  0.00    +0.000 A 
ATOM     21  C   UNL     1      48.598   8.381  17.954  0.00  0.00    +0.000 A 
ATOM     22  C   UNL     1      48.937   7.948  16.678  0.00  0.00    +0.000 A 
ATOM     23  C   UNL     1      48.840   6.590  16.353  0.00  0.00    +0.000 A 
BRANCH  22  24
ATOM     24  O   UNL     1      49.415   8.757  15.676  0.00  0.00    +0.000 OA
BRANCH  24  25
ATOM     25  C   UNL     1      49.572   8.208  14.348  0.00  0.00    +0.000 C 
ATOM     26  C   UNL     1      50.835   8.600  13.546  0.00  0.00    +0.000 C 
ATOM     27  N   UNL     1      49.995   8.921  12.370  0.00  0.00    +0.000 NA
ATOM     28  C   UNL     1      49.923   7.782  11.454  0.00  0.00    +0.000 C 
ATOM     29  C   UNL     1      48.801   8.962  13.241  0.00  0.00    +0.000 C 
ENDBRANCH  24  25
ENDBRANCH  22  24
ENDBRANCH  16  18
ENDBRANCH   1  16
TORSDOF 7
ENDMDL
MODEL 9
REMARK VINA RESULT:    -6.349      3.883      6.126
REMARK INTER + INTRA:          -9.540
REMARK INTER:                  -8.204
REMARK INTRA:                  -1.336
REMARK UNBOUND:                -0.593
REMARK  Name = 
REMARK  10 active torsions:
REMARK  status: ('A' for Active; 'I' for Inactive)
REMARK    1  A    between atoms: C_1  and  C_2
REMARK    2  A    between atoms: C_4  and  N_5
REMARK    3  A    between atoms: N_5  and  C_6
REMARK    4  A    between atoms: C_6  and  C_7
REMARK    5  A    between atoms: C_7  and  C_8
REMARK    6  A    between atoms: C_7  and  C_9
REMARK    7  A    between atoms: C_13  and  O_14
REMARK    8  A    between atoms: O_14  and  C_15
REMARK    9  A    between atoms: N_17  and  C_18
REMARK   10  A    between atoms: C_23  and  C_24
REMARK                            x       y       z     vdW  Elec       q    Type
REMARK                         _______ _______ _______ _____ _____    ______ ____
ROOT
ATOM      1  C   UNL     1      49.975   8.072  14.280  0.00  0.00    +0.000 C 
ENDROOT
BRANCH   1   2
ATOM      2  N   UNL     1      49.596   7.406  13.043  0.00  0.00    +0.000 N 
ATOM      3  H   UNL     1      49.737   7.920  12.179  0.00  0.00    +0.000 HD
BRANCH   2   7
ATOM      4  C   UNL     1      45.436   6.197  10.715  0.00  0.00    +0.000 C 
ATOM      5  C   UNL     1      46.397   5.982  11.850  0.00  0.00    +0.000 A 
ATOM      6  C   UNL     1      47.551   6.775  11.893  0.00  0.00    +0.000 A 
ATOM      7  C   UNL     1      48.475   6.626  12.916  0.00  0.00    +0.000 A 
ATOM      8  N   UNL     1      48.296   5.722  13.895  0.00  0.00    +0.000 NA
ATOM      9  C   UNL     1      47.174   4.958  13.852  0.00  0.00    +0.000 A 
ATOM     10  C   UNL     1      46.191   5.051  12.873  0.00  0.00    +0.000 A 
BRANCH  10  11
ATOM     11  C   UNL     1      45.001   4.165  12.919  0.00  0.00    +0.000 C 
ATOM     12  N   UNL     1      45.164   2.858  12.541  0.00  0.00    +0.000 N 
ATOM     13  O   UNL     1      43.902   4.555  13.296  0.00  0.00    +0.000 OA
ATOM     14  H   UNL     1      46.063   2.415  12.418  0.00  0.00    +0.000 HD
ATOM     15  H   UNL     1      44.361   2.258  12.678  0.00  0.00    +0.000 HD
ENDBRANCH  10  11
ENDBRANCH   2   7
ENDBRANCH   1   2
BRANCH   1  16
ATOM     16  C   UNL     1      48.867   9.019  14.826  0.00  0.00    +0.000 C 
ATOM     17  C   UNL     1      49.310  10.461  14.512  0.00  0.00    +0.000 C 
BRANCH  16  18
ATOM     18  C   UNL     1      48.529   8.882  16.312  0.00  0.00    +0.000 A 
ATOM     19  C   UNL     1      48.094   9.960  17.092  0.00  0.00    +0.000 A 
ATOM     20  C   UNL     1      47.728   9.787  18.428  0.00  0.00    +0.000 A 
ATOM     21  C   UNL     1      47.807   8.532  19.021  0.00  0.00    +0.000 A 
ATOM     22  C   UNL     1      48.293   7.456  18.288  0.00  0.00    +0.000 A 
ATOM     23  C   UNL     1      48.658   7.633  16.948  0.00  0.00    +0.000 A 
BRANCH  22  24
ATOM     24  O   UNL     1      48.417   6.174  18.763  0.00  0.00    +0.000 OA
BRANCH  24  25
ATOM     25  C   UNL     1      48.506   5.082  17.820  0.00  0.00    +0.000 C 
ATOM     26  C   UNL     1      47.222   4.268  17.529  0.00  0.00    +0.000 C 
ATOM     27  N   UNL     1      47.971   3.007  17.730  0.00  0.00    +0.000 NA
ATOM     28  C   UNL     1      48.445   2.473  16.453  0.00  0.00    +0.000 C 
ATOM     29  C   UNL     1      49.047   3.760  18.409  0.00  0.00    +0.000 C 
ENDBRANCH  24  25
ENDBRANCH  22  24
ENDBRANCH  16  18
ENDBRANCH   1  16
TORSDOF 7
ENDMDL
