MODEL 1
REMARK VINA RESULT:    -8.886      0.000      0.000
REMARK INTER + INTRA:         -12.678
REMARK INTER:                 -11.483
REMARK INTRA:                  -1.195
REMARK UNBOUND:                -1.195
REMARK  Name = 
REMARK  7 active torsions:
REMARK  status: ('A' for Active; 'I' for Inactive)
REMARK    1  A    between atoms: C_1  and  C_2
REMARK    2  A    between atoms: C_2  and  C_3
REMARK    3  A    between atoms: C_2  and  C_4
REMARK    4  A    between atoms: C_2  and  C_18
REMARK    5  A    between atoms: C_5  and  C_6
REMARK    6  A    between atoms: C_10  and  C_11
REMARK    7  A    between atoms: C_21  and  C_22
REMARK                            x       y       z     vdW  Elec       q    Type
REMARK                         _______ _______ _______ _____ _____    ______ ____
ROOT
ATOM      1  C   UNL     1      43.378   2.870  11.487  0.00  0.00    +0.000 C 
ATOM      2  C   UNL     1      44.257   4.040  10.972  0.00  0.00    +0.000 C 
ATOM      3  C   UNL     1      43.296   5.225  10.714  0.00  0.00    +0.000 C 
ENDROOT
BRANCH   2   4
ATOM      4  C   UNL     1      45.017   3.568   9.718  0.00  0.00    +0.000 A 
ATOM      5  C   UNL     1      45.215   2.212   9.414  0.00  0.00    +0.000 A 
ATOM      6  C   UNL     1      45.949   1.826   8.288  0.00  0.00    +0.000 A 
ATOM      7  C   UNL     1      46.491   2.786   7.428  0.00  0.00    +0.000 A 
ATOM      8  C   UNL     1      46.287   4.140   7.699  0.00  0.00    +0.000 A 
ATOM      9  C   UNL     1      45.556   4.522   8.828  0.00  0.00    +0.000 A 
BRANCH   7  10
ATOM     10  C   UNL     1      47.311   2.319   6.277  0.00  0.00    +0.000 C 
ATOM     11  N   UNL     1      47.195   3.000   5.100  0.00  0.00    +0.000 N 
ATOM     12  O   UNL     1      48.046   1.345   6.371  0.00  0.00    +0.000 OA
ATOM     13  H   UNL     1      46.471   3.680   4.919  0.00  0.00    +0.000 HD
ATOM     14  H   UNL     1      47.701   2.619   4.310  0.00  0.00    +0.000 HD
ENDBRANCH   7  10
ENDBRANCH   2   4
BRANCH   2  15
ATOM     15  C   UNL     1      45.265   4.539  12.010  0.00  0.00    +0.000 C 
ATOM     16  C   UNL     1      45.841   5.751  12.029  0.00  0.00    +0.000 C 
BRANCH  16  17
ATOM     17  C   UNL     1      46.842   6.213  12.997  0.00  0.00    +0.000 A 
ATOM     18  C   UNL     1      47.426   7.479  12.944  0.00  0.00    +0.000 A 
ATOM     19  C   UNL     1      48.289   7.892  13.956  0.00  0.00    +0.000 A 
ATOM     20  C   UNL     1      48.545   7.056  15.045  0.00  0.00    +0.000 A 
ATOM     21  C   UNL     1      47.937   5.792  15.156  0.00  0.00    +0.000 A 
ATOM     22  C   UNL     1      47.113   5.382  14.094  0.00  0.00    +0.000 A 
BRANCH  21  23
ATOM     23  C   UNL     1      48.041   4.969  16.386  0.00  0.00    +0.000 A 
ATOM     24  C   UNL     1      47.354   3.743  16.477  0.00  0.00    +0.000 A 
ATOM     25  C   UNL     1      47.535   2.885  17.564  0.00  0.00    +0.000 A 
ATOM     26  C   UNL     1      48.418   3.230  18.578  0.00  0.00    +0.000 A 
ATOM     27  C   UNL     1      49.094   4.444  18.524  0.00  0.00    +0.000 A 
ATOM     28  C   UNL     1      48.899   5.312  17.445  0.00  0.00    +0.000 A 
ENDBRANCH  21  23
ENDBRANCH  16  17
ENDBRANCH   2  15
TORSDOF 5
ENDMDL
MODEL 2
REMARK VINA RESULT:    -8.404      1.389      3.590
REMARK INTER + INTRA:         -12.056
REMARK INTER:                 -10.736
REMARK INTRA:                  -1.320
REMARK UNBOUND:                -1.195
REMARK  Name = 
REMARK  7 active torsions:
REMARK  status: ('A' for Active; 'I' for Inactive)
REMARK    1  A    between atoms: C_1  and  C_2
REMARK    2  A    between atoms: C_2  and  C_3
REMARK    3  A    between atoms: C_2  and  C_4
REMARK    4  A    between atoms: C_2  and  C_18
REMARK    5  A    between atoms: C_5  and  C_6
REMARK    6  A    between atoms: C_10  and  C_11
REMARK    7  A    between atoms: C_21  and  C_22
REMARK                            x       y       z     vdW  Elec       q    Type
REMARK                         _______ _______ _______ _____ _____    ______ ____
ROOT
ATOM      1  C   UNL     1      43.495   2.774  11.774  0.00  0.00    +0.000 C 
ATOM      2  C   UNL     1      44.151   4.016  11.115  0.00  0.00    +0.000 C 
ATOM      3  C   UNL     1      43.003   5.010  10.822  0.00  0.00    +0.000 C 
ENDROOT
BRANCH   2   4
ATOM      4  C   UNL     1      44.916   3.558   9.858  0.00  0.00    +0.000 A 
ATOM      5  C   UNL     1      45.125   2.205   9.546  0.00  0.00    +0.000 A 
ATOM      6  C   UNL     1      45.863   1.832   8.418  0.00  0.00    +0.000 A 
ATOM      7  C   UNL     1      46.397   2.801   7.565  0.00  0.00    +0.000 A 
ATOM      8  C   UNL     1      46.181   4.152   7.843  0.00  0.00    +0.000 A 
ATOM      9  C   UNL     1      45.447   4.521   8.974  0.00  0.00    +0.000 A 
BRANCH   7  10
ATOM     10  C   UNL     1      47.222   2.349   6.411  0.00  0.00    +0.000 C 
ATOM     11  N   UNL     1      47.126   3.057   5.248  0.00  0.00    +0.000 N 
ATOM     12  O   UNL     1      47.942   1.362   6.490  0.00  0.00    +0.000 OA
ATOM     13  H   UNL     1      46.413   3.751   5.075  0.00  0.00    +0.000 HD
ATOM     14  H   UNL     1      47.633   2.686   4.454  0.00  0.00    +0.000 HD
ENDBRANCH   7  10
ENDBRANCH   2   4
BRANCH   2  15
ATOM     15  C   UNL     1      45.116   4.754  12.046  0.00  0.00    +0.000 C 
ATOM     16  C   UNL     1      45.900   4.188  12.976  0.00  0.00    +0.000 C 
BRANCH  16  17
ATOM     17  C   UNL     1      46.791   4.900  13.900  0.00  0.00    +0.000 A 
ATOM     18  C   UNL     1      47.036   4.472  15.204  0.00  0.00    +0.000 A 
ATOM     19  C   UNL     1      47.975   5.134  15.991  0.00  0.00    +0.000 A 
ATOM     20  C   UNL     1      48.701   6.206  15.466  0.00  0.00    +0.000 A 
ATOM     21  C   UNL     1      48.514   6.636  14.140  0.00  0.00    +0.000 A 
ATOM     22  C   UNL     1      47.523   5.981  13.388  0.00  0.00    +0.000 A 
BRANCH  21  23
ATOM     23  C   UNL     1      49.400   7.639  13.501  0.00  0.00    +0.000 A 
ATOM     24  C   UNL     1      49.088   8.148  12.225  0.00  0.00    +0.000 A 
ATOM     25  C   UNL     1      49.827   9.187  11.654  0.00  0.00    +0.000 A 
ATOM     26  C   UNL     1      50.886   9.749  12.354  0.00  0.00    +0.000 A 
ATOM     27  C   UNL     1      51.228   9.252  13.607  0.00  0.00    +0.000 A 
ATOM     28  C   UNL     1      50.501   8.200  14.171  0.00  0.00    +0.000 A 
ENDBRANCH  21  23
ENDBRANCH  16  17
ENDBRANCH   2  15
TORSDOF 5
ENDMDL
MODEL 3
REMARK VINA RESULT:    -7.742      3.054      4.585
REMARK INTER + INTRA:         -11.200
REMARK INTER:                 -10.071
REMARK INTRA:                  -1.128
REMARK UNBOUND:                -1.195
REMARK  Name = 
REMARK  7 active torsions:
REMARK  status: ('A' for Active; 'I' for Inactive)
REMARK    1  A    between atoms: C_1  and  C_2
REMARK    2  A    between atoms: C_2  and  C_3
REMARK    3  A    between atoms: C_2  and  C_4
REMARK    4  A    between atoms: C_2  and  C_18
REMARK    5  A    between atoms: C_5  and  C_6
REMARK    6  A    between atoms: C_10  and  C_11
REMARK    7  A    between atoms: C_21  and  C_22
REMARK                            x       y       z     vdW  Elec       q    Type
REMARK                         _______ _______ _______ _____ _____    ______ ____
ROOT
ATOM      1  C   UNL     1      44.548   3.489  12.303  0.00  0.00    +0.000 C 
ATOM      2  C   UNL     1      44.495   4.517  11.142  0.00  0.00    +0.000 C 
ATOM      3  C   UNL     1      43.006   4.904  10.971  0.00  0.00    +0.000 C 
ENDROOT
BRANCH   2   4
ATOM      4  C   UNL     1      45.120   3.874   9.889  0.00  0.00    +0.000 A 
ATOM      5  C   UNL     1      45.073   2.493   9.639  0.00  0.00    +0.000 A 
ATOM      6  C   UNL     1      45.692   1.944   8.511  0.00  0.00    +0.000 A 
ATOM      7  C   UNL     1      46.360   2.763   7.597  0.00  0.00    +0.000 A 
ATOM      8  C   UNL     1      46.400   4.141   7.814  0.00  0.00    +0.000 A 
ATOM      9  C   UNL     1      45.784   4.686   8.945  0.00  0.00    +0.000 A 
BRANCH   7  10
ATOM     10  C   UNL     1      47.049   2.119   6.445  0.00  0.00    +0.000 C 
ATOM     11  N   UNL     1      47.109   2.816   5.273  0.00  0.00    +0.000 N 
ATOM     12  O   UNL     1      47.525   0.995   6.534  0.00  0.00    +0.000 OA
ATOM     13  H   UNL     1      46.573   3.653   5.094  0.00  0.00    +0.000 HD
ATOM     14  H   UNL     1      47.511   2.329   4.481  0.00  0.00    +0.000 HD
ENDBRANCH   7  10
ENDBRANCH   2   4
BRANCH   2  15
ATOM     15  C   UNL     1      45.232   5.821  11.456  0.00  0.00    +0.000 C 
ATOM     16  C   UNL     1      46.463   5.923  11.980  0.00  0.00    +0.000 C 
BRANCH  16  17
ATOM     17  C   UNL     1      47.151   7.173  12.323  0.00  0.00    +0.000 A 
ATOM     18  C   UNL     1      46.721   8.025  13.340  0.00  0.00    +0.000 A 
ATOM     19  C   UNL     1      47.482   9.140  13.685  0.00  0.00    +0.000 A 
ATOM     20  C   UNL     1      48.695   9.389  13.039  0.00  0.00    +0.000 A 
ATOM     21  C   UNL     1      49.183   8.525  12.042  0.00  0.00    +0.000 A 
ATOM     22  C   UNL     1      48.369   7.439  11.680  0.00  0.00    +0.000 A 
BRANCH  21  23
ATOM     23  C   UNL     1      50.548   8.660  11.478  0.00  0.00    +0.000 A 
ATOM     24  C   UNL     1      51.147   7.576  10.806  0.00  0.00    +0.000 A 
ATOM     25  C   UNL     1      52.374   7.710  10.152  0.00  0.00    +0.000 A 
ATOM     26  C   UNL     1      53.022   8.938  10.145  0.00  0.00    +0.000 A 
ATOM     27  C   UNL     1      52.465  10.020  10.818  0.00  0.00    +0.000 A 
ATOM     28  C   UNL     1      51.246   9.880  11.489  0.00  0.00    +0.000 A 
ENDBRANCH  21  23
ENDBRANCH  16  17
ENDBRANCH   2  15
TORSDOF 5
ENDMDL
MODEL 4
REMARK VINA RESULT:    -7.643      4.434      8.814
REMARK INTER + INTRA:         -11.071
REMARK INTER:                  -9.743
REMARK INTRA:                  -1.328
REMARK UNBOUND:                -1.195
REMARK  Name = 
REMARK  7 active torsions:
REMARK  status: ('A' for Active; 'I' for Inactive)
REMARK    1  A    between atoms: C_1  and  C_2
REMARK    2  A    between atoms: C_2  and  C_3
REMARK    3  A    between atoms: C_2  and  C_4
REMARK    4  A    between atoms: C_2  and  C_18
REMARK    5  A    between atoms: C_5  and  C_6
REMARK    6  A    between atoms: C_10  and  C_11
REMARK    7  A    between atoms: C_21  and  C_22
REMARK                            x       y       z     vdW  Elec       q    Type
REMARK                         _______ _______ _______ _____ _____    ______ ____
ROOT
ATOM      1  C   UNL     1      50.123   8.059  11.784  0.00  0.00    +0.000 C 
ATOM      2  C   UNL     1      48.685   8.303  12.312  0.00  0.00    +0.000 C 
ATOM      3  C   UNL     1      48.270   9.707  11.812  0.00  0.00    +0.000 C 
ENDROOT
BRANCH   2   4
ATOM      4  C   UNL     1      48.695   8.165  13.846  0.00  0.00    +0.000 A 
ATOM      5  C   UNL     1      49.080   6.984  14.501  0.00  0.00    +0.000 A 
ATOM      6  C   UNL     1      49.033   6.885  15.895  0.00  0.00    +0.000 A 
ATOM      7  C   UNL     1      48.614   7.969  16.671  0.00  0.00    +0.000 A 
ATOM      8  C   UNL     1      48.248   9.160  16.043  0.00  0.00    +0.000 A 
ATOM      9  C   UNL     1      48.292   9.254  14.648  0.00  0.00    +0.000 A 
BRANCH   7  10
ATOM     10  C   UNL     1      48.528   7.790  18.147  0.00  0.00    +0.000 C 
ATOM     11  N   UNL     1      47.337   7.375  18.666  0.00  0.00    +0.000 N 
ATOM     12  O   UNL     1      49.483   8.029  18.875  0.00  0.00    +0.000 OA
ATOM     13  H   UNL     1      46.477   7.350  18.137  0.00  0.00    +0.000 HD
ATOM     14  H   UNL     1      47.276   7.336  19.676  0.00  0.00    +0.000 HD
ENDBRANCH   7  10
ENDBRANCH   2   4
BRANCH   2  15
ATOM     15  C   UNL     1      47.656   7.332  11.729  0.00  0.00    +0.000 C 
ATOM     16  C   UNL     1      46.344   7.309  12.014  0.00  0.00    +0.000 C 
BRANCH  16  17
ATOM     17  C   UNL     1      45.366   6.349  11.490  0.00  0.00    +0.000 A 
ATOM     18  C   UNL     1      43.993   6.468  11.702  0.00  0.00    +0.000 A 
ATOM     19  C   UNL     1      43.112   5.582  11.086  0.00  0.00    +0.000 A 
ATOM     20  C   UNL     1      43.598   4.593  10.227  0.00  0.00    +0.000 A 
ATOM     21  C   UNL     1      44.972   4.472   9.953  0.00  0.00    +0.000 A 
ATOM     22  C   UNL     1      45.840   5.347  10.630  0.00  0.00    +0.000 A 
BRANCH  21  23
ATOM     23  C   UNL     1      45.493   3.561   8.905  0.00  0.00    +0.000 A 
ATOM     24  C   UNL     1      46.136   4.086   7.767  0.00  0.00    +0.000 A 
ATOM     25  C   UNL     1      46.752   3.255   6.829  0.00  0.00    +0.000 A 
ATOM     26  C   UNL     1      46.749   1.879   7.017  0.00  0.00    +0.000 A 
ATOM     27  C   UNL     1      46.104   1.332   8.121  0.00  0.00    +0.000 A 
ATOM     28  C   UNL     1      45.471   2.163   9.050  0.00  0.00    +0.000 A 
ENDBRANCH  21  23
ENDBRANCH  16  17
ENDBRANCH   2  15
TORSDOF 5
ENDMDL
MODEL 5
REMARK VINA RESULT:    -7.607      4.037      8.793
REMARK INTER + INTRA:         -11.025
REMARK INTER:                  -9.808
REMARK INTRA:                  -1.217
REMARK UNBOUND:                -1.195
REMARK  Name = 
REMARK  7 active torsions:
REMARK  status: ('A' for Active; 'I' for Inactive)
REMARK    1  A    between atoms: C_1  and  C_2
REMARK    2  A    between atoms: C_2  and  C_3
REMARK    3  A    between atoms: C_2  and  C_4
REMARK    4  A    between atoms: C_2  and  C_18
REMARK    5  A    between atoms: C_5  and  C_6
REMARK    6  A    between atoms: C_10  and  C_11
REMARK    7  A    between atoms: C_21  and  C_22
REMARK                            x       y       z     vdW  Elec       q    Type
REMARK                         _______ _______ _______ _____ _____    ______ ____
ROOT
ATOM      1  C   UNL     1      49.654   7.400  13.289  0.00  0.00    +0.000 C 
ATOM      2  C   UNL     1      48.286   7.178  13.986  0.00  0.00    +0.000 C 
ATOM      3  C   UNL     1      47.634   8.574  14.119  0.00  0.00    +0.000 C 
ENDROOT
BRANCH   2   4
ATOM      4  C   UNL     1      48.530   6.472  15.333  0.00  0.00    +0.000 A 
ATOM      5  C   UNL     1      49.375   6.996  16.324  0.00  0.00    +0.000 A 
ATOM      6  C   UNL     1      49.604   6.302  17.517  0.00  0.00    +0.000 A 
ATOM      7  C   UNL     1      48.982   5.073  17.755  0.00  0.00    +0.000 A 
ATOM      8  C   UNL     1      48.120   4.544  16.794  0.00  0.00    +0.000 A 
ATOM      9  C   UNL     1      47.897   5.239  15.601  0.00  0.00    +0.000 A 
BRANCH   7  10
ATOM     10  C   UNL     1      49.307   4.351  19.016  0.00  0.00    +0.000 C 
ATOM     11  N   UNL     1      48.435   3.390  19.438  0.00  0.00    +0.000 N 
ATOM     12  O   UNL     1      50.307   4.624  19.668  0.00  0.00    +0.000 OA
ATOM     13  H   UNL     1      47.513   3.263  19.045  0.00  0.00    +0.000 HD
ATOM     14  H   UNL     1      48.633   2.967  20.336  0.00  0.00    +0.000 HD
ENDBRANCH   7  10
ENDBRANCH   2   4
BRANCH   2  15
ATOM     15  C   UNL     1      47.313   6.340  13.153  0.00  0.00    +0.000 C 
ATOM     16  C   UNL     1      46.072   6.703  12.791  0.00  0.00    +0.000 C 
BRANCH  16  17
ATOM     17  C   UNL     1      45.123   5.881  12.032  0.00  0.00    +0.000 A 
ATOM     18  C   UNL     1      43.740   6.022  12.137  0.00  0.00    +0.000 A 
ATOM     19  C   UNL     1      42.897   5.284  11.308  0.00  0.00    +0.000 A 
ATOM     20  C   UNL     1      43.435   4.428  10.344  0.00  0.00    +0.000 A 
ATOM     21  C   UNL     1      44.826   4.297  10.177  0.00  0.00    +0.000 A 
ATOM     22  C   UNL     1      45.648   5.014  11.063  0.00  0.00    +0.000 A 
BRANCH  21  23
ATOM     23  C   UNL     1      45.419   3.547   9.043  0.00  0.00    +0.000 A 
ATOM     24  C   UNL     1      46.027   4.239   7.978  0.00  0.00    +0.000 A 
ATOM     25  C   UNL     1      46.708   3.563   6.963  0.00  0.00    +0.000 A 
ATOM     26  C   UNL     1      46.808   2.178   7.000  0.00  0.00    +0.000 A 
ATOM     27  C   UNL     1      46.200   1.468   8.030  0.00  0.00    +0.000 A 
ATOM     28  C   UNL     1      45.501   2.143   9.035  0.00  0.00    +0.000 A 
ENDBRANCH  21  23
ENDBRANCH  16  17
ENDBRANCH   2  15
TORSDOF 5
ENDMDL
MODEL 6
REMARK VINA RESULT:    -7.503      4.346      7.960
REMARK INTER + INTRA:         -10.891
REMARK INTER:                  -9.681
REMARK INTRA:                  -1.210
REMARK UNBOUND:                -1.195
REMARK  Name = 
REMARK  7 active torsions:
REMARK  status: ('A' for Active; 'I' for Inactive)
REMARK    1  A    between atoms: C_1  and  C_2
REMARK    2  A    between atoms: C_2  and  C_3
REMARK    3  A    between atoms: C_2  and  C_4
REMARK    4  A    between atoms: C_2  and  C_18
REMARK    5  A    between atoms: C_5  and  C_6
REMARK    6  A    between atoms: C_10  and  C_11
REMARK    7  A    between atoms: C_21  and  C_22
REMARK                            x       y       z     vdW  Elec       q    Type
REMARK                         _______ _______ _______ _____ _____    ______ ____
ROOT
ATOM      1  C   UNL     1      46.487   9.935  11.768  0.00  0.00    +0.000 C 
ATOM      2  C   UNL     1      47.276   8.711  12.302  0.00  0.00    +0.000 C 
ATOM      3  C   UNL     1      47.154   8.754  13.844  0.00  0.00    +0.000 C 
ENDROOT
BRANCH   2   4
ATOM      4  C   UNL     1      48.726   8.800  11.789  0.00  0.00    +0.000 A 
ATOM      5  C   UNL     1      49.508   7.666  11.518  0.00  0.00    +0.000 A 
ATOM      6  C   UNL     1      50.835   7.790  11.095  0.00  0.00    +0.000 A 
ATOM      7  C   UNL     1      51.410   9.051  10.916  0.00  0.00    +0.000 A 
ATOM      8  C   UNL     1      50.644  10.193  11.157  0.00  0.00    +0.000 A 
ATOM      9  C   UNL     1      49.318  10.065  11.585  0.00  0.00    +0.000 A 
BRANCH   7  10
ATOM     10  C   UNL     1      52.843   9.124  10.520  0.00  0.00    +0.000 C 
ATOM     11  N   UNL     1      53.657   8.095  10.896  0.00  0.00    +0.000 N 
ATOM     12  O   UNL     1      53.286  10.084   9.902  0.00  0.00    +0.000 OA
ATOM     13  H   UNL     1      53.387   7.386  11.562  0.00  0.00    +0.000 HD
ATOM     14  H   UNL     1      54.642   8.202  10.686  0.00  0.00    +0.000 HD
ENDBRANCH   7  10
ENDBRANCH   2   4
BRANCH   2  15
ATOM     15  C   UNL     1      46.675   7.371  11.873  0.00  0.00    +0.000 C 
ATOM     16  C   UNL     1      45.369   7.065  11.847  0.00  0.00    +0.000 C 
BRANCH  16  17
ATOM     17  C   UNL     1      44.796   5.765  11.480  0.00  0.00    +0.000 A 
ATOM     18  C   UNL     1      43.572   5.308  11.966  0.00  0.00    +0.000 A 
ATOM     19  C   UNL     1      43.036   4.112  11.493  0.00  0.00    +0.000 A 
ATOM     20  C   UNL     1      43.704   3.386  10.504  0.00  0.00    +0.000 A 
ATOM     21  C   UNL     1      44.917   3.841   9.957  0.00  0.00    +0.000 A 
ATOM     22  C   UNL     1      45.458   5.022  10.492  0.00  0.00    +0.000 A 
BRANCH  21  23
ATOM     23  C   UNL     1      45.546   3.193   8.780  0.00  0.00    +0.000 A 
ATOM     24  C   UNL     1      46.060   3.978   7.730  0.00  0.00    +0.000 A 
ATOM     25  C   UNL     1      46.773   3.408   6.674  0.00  0.00    +0.000 A 
ATOM     26  C   UNL     1      47.000   2.038   6.652  0.00  0.00    +0.000 A 
ATOM     27  C   UNL     1      46.487   1.235   7.666  0.00  0.00    +0.000 A 
ATOM     28  C   UNL     1      45.756   1.804   8.713  0.00  0.00    +0.000 A 
ENDBRANCH  21  23
ENDBRANCH  16  17
ENDBRANCH   2  15
TORSDOF 5
ENDMDL
MODEL 7
REMARK VINA RESULT:    -7.213      4.395      8.787
REMARK INTER + INTRA:         -10.516
REMARK INTER:                  -9.363
REMARK INTRA:                  -1.153
REMARK UNBOUND:                -1.195
REMARK  Name = 
REMARK  7 active torsions:
REMARK  status: ('A' for Active; 'I' for Inactive)
REMARK    1  A    between atoms: C_1  and  C_2
REMARK    2  A    between atoms: C_2  and  C_3
REMARK    3  A    between atoms: C_2  and  C_4
REMARK    4  A    between atoms: C_2  and  C_18
REMARK    5  A    between atoms: C_5  and  C_6
REMARK    6  A    between atoms: C_10  and  C_11
REMARK    7  A    between atoms: C_21  and  C_22
REMARK                            x       y       z     vdW  Elec       q    Type
REMARK                         _______ _______ _______ _____ _____    ______ ____
ROOT
ATOM      1  C   UNL     1      48.370   4.754  18.972  0.00  0.00    +0.000 C 
ATOM      2  C   UNL     1      48.526   3.927  17.670  0.00  0.00    +0.000 C 
ATOM      3  C   UNL     1      47.387   2.880  17.681  0.00  0.00    +0.000 C 
ENDROOT
BRANCH   2   4
ATOM      4  C   UNL     1      49.938   3.312  17.645  0.00  0.00    +0.000 A 
ATOM      5  C   UNL     1      50.187   1.993  17.234  0.00  0.00    +0.000 A 
ATOM      6  C   UNL     1      51.479   1.459  17.268  0.00  0.00    +0.000 A 
ATOM      7  C   UNL     1      52.558   2.235  17.699  0.00  0.00    +0.000 A 
ATOM      8  C   UNL     1      52.338   3.556  18.091  0.00  0.00    +0.000 A 
ATOM      9  C   UNL     1      51.044   4.086  18.060  0.00  0.00    +0.000 A 
BRANCH   7  10
ATOM     10  C   UNL     1      53.902   1.598  17.770  0.00  0.00    +0.000 C 
ATOM     11  N   UNL     1      54.152   0.762  18.819  0.00  0.00    +0.000 N 
ATOM     12  O   UNL     1      54.764   1.833  16.933  0.00  0.00    +0.000 OA
ATOM     13  H   UNL     1      53.551   0.688  19.627  0.00  0.00    +0.000 HD
ATOM     14  H   UNL     1      55.096   0.403  18.892  0.00  0.00    +0.000 HD
ENDBRANCH   7  10
ENDBRANCH   2   4
BRANCH   2  15
ATOM     15  C   UNL     1      48.319   4.755  16.400  0.00  0.00    +0.000 C 
ATOM     16  C   UNL     1      47.322   4.604  15.514  0.00  0.00    +0.000 C 
BRANCH  16  17
ATOM     17  C   UNL     1      47.150   5.367  14.273  0.00  0.00    +0.000 A 
ATOM     18  C   UNL     1      47.852   6.540  13.997  0.00  0.00    +0.000 A 
ATOM     19  C   UNL     1      47.721   7.156  12.754  0.00  0.00    +0.000 A 
ATOM     20  C   UNL     1      46.914   6.583  11.769  0.00  0.00    +0.000 A 
ATOM     21  C   UNL     1      46.227   5.376  11.996  0.00  0.00    +0.000 A 
ATOM     22  C   UNL     1      46.339   4.806  13.276  0.00  0.00    +0.000 A 
BRANCH  21  23
ATOM     23  C   UNL     1      45.522   4.651  10.911  0.00  0.00    +0.000 A 
ATOM     24  C   UNL     1      45.659   5.071   9.573  0.00  0.00    +0.000 A 
ATOM     25  C   UNL     1      45.116   4.334   8.518  0.00  0.00    +0.000 A 
ATOM     26  C   UNL     1      44.434   3.153   8.779  0.00  0.00    +0.000 A 
ATOM     27  C   UNL     1      44.265   2.726  10.091  0.00  0.00    +0.000 A 
ATOM     28  C   UNL     1      44.793   3.473  11.149  0.00  0.00    +0.000 A 
ENDBRANCH  21  23
ENDBRANCH  16  17
ENDBRANCH   2  15
TORSDOF 5
ENDMDL
MODEL 8
REMARK VINA RESULT:    -7.189      2.802      4.614
REMARK INTER + INTRA:         -10.485
REMARK INTER:                  -9.238
REMARK INTRA:                  -1.247
REMARK UNBOUND:                -1.195
REMARK  Name = 
REMARK  7 active torsions:
REMARK  status: ('A' for Active; 'I' for Inactive)
REMARK    1  A    between atoms: C_1  and  C_2
REMARK    2  A    between atoms: C_2  and  C_3
REMARK    3  A    between atoms: C_2  and  C_4
REMARK    4  A    between atoms: C_2  and  C_18
REMARK    5  A    between atoms: C_5  and  C_6
REMARK    6  A    between atoms: C_10  and  C_11
REMARK    7  A    between atoms: C_21  and  C_22
REMARK                            x       y       z     vdW  Elec       q    Type
REMARK                         _______ _______ _______ _____ _____    ______ ____
ROOT
ATOM      1  C   UNL     1      46.567   8.592  12.932  0.00  0.00    +0.000 C 
ATOM      2  C   UNL     1      47.469   7.336  12.808  0.00  0.00    +0.000 C 
ATOM      3  C   UNL     1      48.637   7.730  11.873  0.00  0.00    +0.000 C 
ENDROOT
BRANCH   2   4
ATOM      4  C   UNL     1      46.615   6.167  12.282  0.00  0.00    +0.000 A 
ATOM      5  C   UNL     1      45.995   6.186  11.022  0.00  0.00    +0.000 A 
ATOM      6  C   UNL     1      45.191   5.122  10.599  0.00  0.00    +0.000 A 
ATOM      7  C   UNL     1      44.999   4.006  11.418  0.00  0.00    +0.000 A 
ATOM      8  C   UNL     1      45.624   3.956  12.665  0.00  0.00    +0.000 A 
ATOM      9  C   UNL     1      46.424   5.024  13.086  0.00  0.00    +0.000 A 
BRANCH   7  10
ATOM     10  C   UNL     1      44.088   2.930  10.942  0.00  0.00    +0.000 C 
ATOM     11  N   UNL     1      44.526   2.134   9.923  0.00  0.00    +0.000 N 
ATOM     12  O   UNL     1      42.974   2.776  11.426  0.00  0.00    +0.000 OA
ATOM     13  H   UNL     1      45.345   2.339   9.369  0.00  0.00    +0.000 HD
ATOM     14  H   UNL     1      43.861   1.461   9.561  0.00  0.00    +0.000 HD
ENDBRANCH   7  10
ENDBRANCH   2   4
BRANCH   2  15
ATOM     15  C   UNL     1      48.116   6.925  14.133  0.00  0.00    +0.000 C 
ATOM     16  C   UNL     1      48.355   7.733  15.177  0.00  0.00    +0.000 C 
BRANCH  16  17
ATOM     17  C   UNL     1      49.016   7.349  16.430  0.00  0.00    +0.000 A 
ATOM     18  C   UNL     1      48.913   8.092  17.605  0.00  0.00    +0.000 A 
ATOM     19  C   UNL     1      49.477   7.613  18.785  0.00  0.00    +0.000 A 
ATOM     20  C   UNL     1      50.118   6.372  18.804  0.00  0.00    +0.000 A 
ATOM     21  C   UNL     1      50.200   5.574  17.649  0.00  0.00    +0.000 A 
ATOM     22  C   UNL     1      49.667   6.107  16.463  0.00  0.00    +0.000 A 
BRANCH  21  23
ATOM     23  C   UNL     1      50.703   4.179  17.686  0.00  0.00    +0.000 A 
ATOM     24  C   UNL     1      49.875   3.118  17.272  0.00  0.00    +0.000 A 
ATOM     25  C   UNL     1      50.359   1.811  17.170  0.00  0.00    +0.000 A 
ATOM     26  C   UNL     1      51.688   1.542  17.468  0.00  0.00    +0.000 A 
ATOM     27  C   UNL     1      52.523   2.567  17.899  0.00  0.00    +0.000 A 
ATOM     28  C   UNL     1      52.033   3.871  18.019  0.00  0.00    +0.000 A 
ENDBRANCH  21  23
ENDBRANCH  16  17
ENDBRANCH   2  15
TORSDOF 5
ENDMDL
MODEL 9
REMARK VINA RESULT:    -7.061      3.280      4.526
REMARK INTER + INTRA:         -10.319
REMARK INTER:                  -9.194
REMARK INTRA:                  -1.125
REMARK UNBOUND:                -1.195
REMARK  Name = 
REMARK  7 active torsions:
REMARK  status: ('A' for Active; 'I' for Inactive)
REMARK    1  A    between atoms: C_1  and  C_2
REMARK    2  A    between atoms: C_2  and  C_3
REMARK    3  A    between atoms: C_2  and  C_4
REMARK    4  A    between atoms: C_2  and  C_18
REMARK    5  A    between atoms: C_5  and  C_6
REMARK    6  A    between atoms: C_10  and  C_11
REMARK    7  A    between atoms: C_21  and  C_22
REMARK                            x       y       z     vdW  Elec       q    Type
REMARK                         _______ _______ _______ _____ _____    ______ ____
ROOT
ATOM      1  C   UNL     1      44.957   4.121  12.340  0.00  0.00    +0.000 C 
ATOM      2  C   UNL     1      44.572   4.839  11.019  0.00  0.00    +0.000 C 
ATOM      3  C   UNL     1      43.028   4.945  11.016  0.00  0.00    +0.000 C 
ENDROOT
BRANCH   2   4
ATOM      4  C   UNL     1      45.145   4.033   9.838  0.00  0.00    +0.000 A 
ATOM      5  C   UNL     1      45.066   2.633   9.762  0.00  0.00    +0.000 A 
ATOM      6  C   UNL     1      45.637   1.936   8.693  0.00  0.00    +0.000 A 
ATOM      7  C   UNL     1      46.290   2.621   7.665  0.00  0.00    +0.000 A 
ATOM      8  C   UNL     1      46.362   4.014   7.708  0.00  0.00    +0.000 A 
ATOM      9  C   UNL     1      45.792   4.708   8.781  0.00  0.00    +0.000 A 
BRANCH   7  10
ATOM     10  C   UNL     1      46.930   1.825   6.582  0.00  0.00    +0.000 C 
ATOM     11  N   UNL     1      47.325   2.490   5.457  0.00  0.00    +0.000 N 
ATOM     12  O   UNL     1      47.076   0.614   6.682  0.00  0.00    +0.000 OA
ATOM     13  H   UNL     1      47.057   3.440   5.249  0.00  0.00    +0.000 HD
ATOM     14  H   UNL     1      47.685   1.919   4.702  0.00  0.00    +0.000 HD
ENDBRANCH   7  10
ENDBRANCH   2   4
BRANCH   2  15
ATOM     15  C   UNL     1      45.089   6.277  10.941  0.00  0.00    +0.000 C 
ATOM     16  C   UNL     1      45.137   7.153  11.956  0.00  0.00    +0.000 C 
BRANCH  16  17
ATOM     17  C   UNL     1      45.590   8.546  11.870  0.00  0.00    +0.000 A 
ATOM     18  C   UNL     1      44.722   9.619  11.672  0.00  0.00    +0.000 A 
ATOM     19  C   UNL     1      45.205  10.925  11.708  0.00  0.00    +0.000 A 
ATOM     20  C   UNL     1      46.554  11.166  11.978  0.00  0.00    +0.000 A 
ATOM     21  C   UNL     1      47.450  10.111  12.230  0.00  0.00    +0.000 A 
ATOM     22  C   UNL     1      46.943   8.804  12.135  0.00  0.00    +0.000 A 
BRANCH  21  23
ATOM     23  C   UNL     1      48.835  10.346  12.705  0.00  0.00    +0.000 A 
ATOM     24  C   UNL     1      49.281   9.759  13.905  0.00  0.00    +0.000 A 
ATOM     25  C   UNL     1      50.615   9.852  14.312  0.00  0.00    +0.000 A 
ATOM     26  C   UNL     1      51.534  10.526  13.518  0.00  0.00    +0.000 A 
ATOM     27  C   UNL     1      51.117  11.133  12.338  0.00  0.00    +0.000 A 
ATOM     28  C   UNL     1      49.778  11.055  11.941  0.00  0.00    +0.000 A 
ENDBRANCH  21  23
ENDBRANCH  16  17
ENDBRANCH   2  15
TORSDOF 5
ENDMDL
