MODEL 1
REMARK VINA RESULT:    -7.734      0.000      0.000
REMARK INTER + INTRA:         -10.702
REMARK INTER:                  -9.543
REMARK INTRA:                  -1.160
REMARK UNBOUND:                -1.160
REMARK  Name = 
REMARK  4 active torsions:
REMARK  status: ('A' for Active; 'I' for Inactive)
REMARK    1  A    between atoms: C_2  and  C_3
REMARK    2  A    between atoms: N_7  and  C_8
REMARK    3  A    between atoms: C_8  and  C_9
REMARK    4  A    between atoms: C_13  and  C_14
REMARK                            x       y       z     vdW  Elec       q    Type
REMARK                         _______ _______ _______ _____ _____    ______ ____
ROOT
ATOM      1  C   UNL     1      43.820   4.921  11.338  0.00  0.00    +0.000 C 
ATOM      2  C   UNL     1      42.377   5.162  11.732  0.00  0.00    +0.000 C 
ATOM      3  C   UNL     1      43.055   6.106  10.792  0.00  0.00    +0.000 C 
ENDROOT
BRANCH   1   8
ATOM      4  C   UNL     1      46.650   2.686   7.530  0.00  0.00    +0.000 A 
ATOM      5  C   UNL     1      46.453   4.042   7.792  0.00  0.00    +0.000 A 
ATOM      6  C   UNL     1      45.617   4.430   8.847  0.00  0.00    +0.000 A 
ATOM      7  C   UNL     1      45.001   3.450   9.614  0.00  0.00    +0.000 A 
ATOM      8  N   UNL     1      44.010   3.691  10.561  0.00  0.00    +0.000 N 
ATOM      9  N   UNL     1      45.239   2.136   9.411  0.00  0.00    +0.000 NA
ATOM     10  C   UNL     1      46.042   1.781   8.382  0.00  0.00    +0.000 A 
ATOM     11  H   UNL     1      43.881   2.812  11.055  0.00  0.00    +0.000 HD
BRANCH   4  13
ATOM     12  N   UNL     1      48.037   1.846   5.514  0.00  0.00    +0.000 NA
ATOM     13  C   UNL     1      47.406   2.225   6.404  0.00  0.00    +0.000 C 
ENDBRANCH   4  13
ENDBRANCH   1   8
BRANCH   1  14
ATOM     14  C   UNL     1      44.968   5.150  12.305  0.00  0.00    +0.000 A 
ATOM     15  C   UNL     1      45.488   4.084  13.055  0.00  0.00    +0.000 A 
ATOM     16  C   UNL     1      46.793   4.129  13.539  0.00  0.00    +0.000 A 
ATOM     17  C   UNL     1      47.585   5.255  13.309  0.00  0.00    +0.000 A 
ATOM     18  C   UNL     1      47.066   6.390  12.668  0.00  0.00    +0.000 A 
ATOM     19  C   UNL     1      45.734   6.329  12.223  0.00  0.00    +0.000 A 
BRANCH  18  20
ATOM     20  C   UNL     1      47.907   7.552  12.328  0.00  0.00    +0.000 A 
ATOM     21  C   UNL     1      49.273   7.411  12.035  0.00  0.00    +0.000 A 
ATOM     22  C   UNL     1      50.034   8.511  11.643  0.00  0.00    +0.000 A 
ATOM     23  C   UNL     1      49.407   9.739  11.547  0.00  0.00    +0.000 A 
ATOM     24  N   UNL     1      48.098   9.932  11.812  0.00  0.00    +0.000 NA
ATOM     25  C   UNL     1      47.390   8.841  12.195  0.00  0.00    +0.000 A 
ENDBRANCH  18  20
ENDBRANCH   1  14
TORSDOF 4
ENDMDL
MODEL 2
REMARK VINA RESULT:    -7.606      1.972      3.301
REMARK INTER + INTRA:         -10.544
REMARK INTER:                  -9.915
REMARK INTRA:                  -0.629
REMARK UNBOUND:                -1.160
REMARK  Name = 
REMARK  4 active torsions:
REMARK  status: ('A' for Active; 'I' for Inactive)
REMARK    1  A    between atoms: C_2  and  C_3
REMARK    2  A    between atoms: N_7  and  C_8
REMARK    3  A    between atoms: C_8  and  C_9
REMARK    4  A    between atoms: C_13  and  C_14
REMARK                            x       y       z     vdW  Elec       q    Type
REMARK                         _______ _______ _______ _____ _____    ______ ____
ROOT
ATOM      1  C   UNL     1      43.980   4.937  11.434  0.00  0.00    +0.000 C 
ATOM      2  C   UNL     1      42.821   4.871  12.407  0.00  0.00    +0.000 C 
ATOM      3  C   UNL     1      42.785   5.850  11.277  0.00  0.00    +0.000 C 
ENDROOT
BRANCH   1   8
ATOM      4  C   UNL     1      46.582   2.774   7.427  0.00  0.00    +0.000 A 
ATOM      5  C   UNL     1      46.380   4.126   7.711  0.00  0.00    +0.000 A 
ATOM      6  C   UNL     1      45.611   4.492   8.823  0.00  0.00    +0.000 A 
ATOM      7  C   UNL     1      45.066   3.497   9.624  0.00  0.00    +0.000 A 
ATOM      8  N   UNL     1      44.138   3.715  10.637  0.00  0.00    +0.000 N 
ATOM      9  N   UNL     1      45.312   2.189   9.395  0.00  0.00    +0.000 NA
ATOM     10  C   UNL     1      46.049   1.854   8.312  0.00  0.00    +0.000 A 
ATOM     11  H   UNL     1      44.058   2.831  11.133  0.00  0.00    +0.000 HD
BRANCH   4  13
ATOM     12  N   UNL     1      47.811   1.951   5.304  0.00  0.00    +0.000 NA
ATOM     13  C   UNL     1      47.267   2.333   6.249  0.00  0.00    +0.000 C 
ENDBRANCH   4  13
ENDBRANCH   1   8
BRANCH   1  14
ATOM     14  C   UNL     1      45.326   5.523  11.824  0.00  0.00    +0.000 A 
ATOM     15  C   UNL     1      45.697   6.803  11.385  0.00  0.00    +0.000 A 
ATOM     16  C   UNL     1      46.635   7.551  12.093  0.00  0.00    +0.000 A 
ATOM     17  C   UNL     1      47.241   7.015  13.230  0.00  0.00    +0.000 A 
ATOM     18  C   UNL     1      46.988   5.696  13.635  0.00  0.00    +0.000 A 
ATOM     19  C   UNL     1      46.063   4.954  12.880  0.00  0.00    +0.000 A 
BRANCH  18  20
ATOM     20  C   UNL     1      47.538   5.140  14.885  0.00  0.00    +0.000 A 
ATOM     21  C   UNL     1      47.205   3.850  15.327  0.00  0.00    +0.000 A 
ATOM     22  C   UNL     1      47.794   3.316  16.471  0.00  0.00    +0.000 A 
ATOM     23  C   UNL     1      48.716   4.088  17.154  0.00  0.00    +0.000 A 
ATOM     24  N   UNL     1      49.076   5.331  16.773  0.00  0.00    +0.000 NA
ATOM     25  C   UNL     1      48.480   5.820  15.658  0.00  0.00    +0.000 A 
ENDBRANCH  18  20
ENDBRANCH   1  14
TORSDOF 4
ENDMDL
MODEL 3
REMARK VINA RESULT:    -6.363      3.420      8.014
REMARK INTER + INTRA:          -9.011
REMARK INTER:                  -8.109
REMARK INTRA:                  -0.902
REMARK UNBOUND:                -1.160
REMARK  Name = 
REMARK  4 active torsions:
REMARK  status: ('A' for Active; 'I' for Inactive)
REMARK    1  A    between atoms: C_2  and  C_3
REMARK    2  A    between atoms: N_7  and  C_8
REMARK    3  A    between atoms: C_8  and  C_9
REMARK    4  A    between atoms: C_13  and  C_14
REMARK                            x       y       z     vdW  Elec       q    Type
REMARK                         _______ _______ _______ _____ _____    ______ ____
ROOT
ATOM      1  C   UNL     1      48.782   7.690  12.608  0.00  0.00    +0.000 C 
ATOM      2  C   UNL     1      49.678   7.766  11.390  0.00  0.00    +0.000 C 
ATOM      3  C   UNL     1      49.382   9.007  12.169  0.00  0.00    +0.000 C 
ENDROOT
BRANCH   1   8
ATOM      4  C   UNL     1      49.018   7.169  17.821  0.00  0.00    +0.000 A 
ATOM      5  C   UNL     1      48.678   8.294  17.069  0.00  0.00    +0.000 A 
ATOM      6  C   UNL     1      48.717   8.230  15.671  0.00  0.00    +0.000 A 
ATOM      7  C   UNL     1      49.094   7.041  15.060  0.00  0.00    +0.000 A 
ATOM      8  N   UNL     1      49.355   6.897  13.701  0.00  0.00    +0.000 N 
ATOM      9  N   UNL     1      49.360   5.929  15.778  0.00  0.00    +0.000 NA
ATOM     10  C   UNL     1      49.325   6.012  17.128  0.00  0.00    +0.000 A 
ATOM     11  H   UNL     1      49.447   5.897  13.543  0.00  0.00    +0.000 HD
BRANCH   4  13
ATOM     12  N   UNL     1      49.158   7.195  20.405  0.00  0.00    +0.000 NA
ATOM     13  C   UNL     1      49.099   7.199  19.251  0.00  0.00    +0.000 C 
ENDBRANCH   4  13
ENDBRANCH   1   8
BRANCH   1  14
ATOM     14  C   UNL     1      47.283   7.473  12.493  0.00  0.00    +0.000 A 
ATOM     15  C   UNL     1      46.394   8.542  12.687  0.00  0.00    +0.000 A 
ATOM     16  C   UNL     1      45.122   8.518  12.119  0.00  0.00    +0.000 A 
ATOM     17  C   UNL     1      44.709   7.409  11.379  0.00  0.00    +0.000 A 
ATOM     18  C   UNL     1      45.521   6.270  11.261  0.00  0.00    +0.000 A 
ATOM     19  C   UNL     1      46.784   6.310  11.875  0.00  0.00    +0.000 A 
BRANCH  18  20
ATOM     20  C   UNL     1      45.149   5.128  10.406  0.00  0.00    +0.000 A 
ATOM     21  C   UNL     1      45.664   4.983   9.108  0.00  0.00    +0.000 A 
ATOM     22  C   UNL     1      45.358   3.858   8.344  0.00  0.00    +0.000 A 
ATOM     23  C   UNL     1      44.541   2.890   8.900  0.00  0.00    +0.000 A 
ATOM     24  N   UNL     1      44.022   2.977  10.142  0.00  0.00    +0.000 NA
ATOM     25  C   UNL     1      44.337   4.086  10.855  0.00  0.00    +0.000 A 
ENDBRANCH  18  20
ENDBRANCH   1  14
TORSDOF 4
ENDMDL
MODEL 4
REMARK VINA RESULT:    -5.908      3.490      7.672
REMARK INTER + INTRA:          -8.449
REMARK INTER:                  -9.007
REMARK INTRA:                   0.558
REMARK UNBOUND:                -1.160
REMARK  Name = 
REMARK  4 active torsions:
REMARK  status: ('A' for Active; 'I' for Inactive)
REMARK    1  A    between atoms: C_2  and  C_3
REMARK    2  A    between atoms: N_7  and  C_8
REMARK    3  A    between atoms: C_8  and  C_9
REMARK    4  A    between atoms: C_13  and  C_14
REMARK                            x       y       z     vdW  Elec       q    Type
REMARK                         _______ _______ _______ _____ _____    ______ ____
ROOT
ATOM      1  C   UNL     1      46.291   5.216  13.253  0.00  0.00    +0.000 C 
ATOM      2  C   UNL     1      47.537   5.949  12.802  0.00  0.00    +0.000 C 
ATOM      3  C   UNL     1      46.428   6.708  13.457  0.00  0.00    +0.000 C 
ENDROOT
BRANCH   1   8
ATOM      4  C   UNL     1      48.325   4.642  18.052  0.00  0.00    +0.000 A 
ATOM      5  C   UNL     1      48.586   5.632  17.104  0.00  0.00    +0.000 A 
ATOM      6  C   UNL     1      47.958   5.577  15.854  0.00  0.00    +0.000 A 
ATOM      7  C   UNL     1      47.083   4.533  15.584  0.00  0.00    +0.000 A 
ATOM      8  N   UNL     1      46.543   4.255  14.332  0.00  0.00    +0.000 N 
ATOM      9  N   UNL     1      46.773   3.608  16.518  0.00  0.00    +0.000 NA
ATOM     10  C   UNL     1      47.396   3.673  17.717  0.00  0.00    +0.000 A 
ATOM     11  H   UNL     1      45.832   3.546  14.490  0.00  0.00    +0.000 HD
BRANCH   4  13
ATOM     12  N   UNL     1      49.563   4.563  20.323  0.00  0.00    +0.000 NA
ATOM     13  C   UNL     1      49.013   4.582  19.308  0.00  0.00    +0.000 C 
ENDBRANCH   4  13
ENDBRANCH   1   8
BRANCH   1  14
ATOM     14  C   UNL     1      45.268   4.684  12.264  0.00  0.00    +0.000 A 
ATOM     15  C   UNL     1      43.985   5.249  12.198  0.00  0.00    +0.000 A 
ATOM     16  C   UNL     1      43.228   5.154  11.032  0.00  0.00    +0.000 A 
ATOM     17  C   UNL     1      43.731   4.462   9.928  0.00  0.00    +0.000 A 
ATOM     18  C   UNL     1      44.956   3.783   9.992  0.00  0.00    +0.000 A 
ATOM     19  C   UNL     1      45.680   3.867  11.194  0.00  0.00    +0.000 A 
BRANCH  18  20
ATOM     20  C   UNL     1      45.553   3.129   8.813  0.00  0.00    +0.000 A 
ATOM     21  C   UNL     1      45.997   3.871   7.707  0.00  0.00    +0.000 A 
ATOM     22  C   UNL     1      46.626   3.241   6.635  0.00  0.00    +0.000 A 
ATOM     23  C   UNL     1      46.803   1.870   6.693  0.00  0.00    +0.000 A 
ATOM     24  N   UNL     1      46.400   1.109   7.731  0.00  0.00    +0.000 NA
ATOM     25  C   UNL     1      45.788   1.755   8.755  0.00  0.00    +0.000 A 
ENDBRANCH  18  20
ENDBRANCH   1  14
TORSDOF 4
ENDMDL
MODEL 5
REMARK VINA RESULT:    -5.558      1.899      6.602
REMARK INTER + INTRA:          -8.017
REMARK INTER:                  -8.377
REMARK INTRA:                   0.360
REMARK UNBOUND:                -1.160
REMARK  Name = 
REMARK  4 active torsions:
REMARK  status: ('A' for Active; 'I' for Inactive)
REMARK    1  A    between atoms: C_2  and  C_3
REMARK    2  A    between atoms: N_7  and  C_8
REMARK    3  A    between atoms: C_8  and  C_9
REMARK    4  A    between atoms: C_13  and  C_14
REMARK                            x       y       z     vdW  Elec       q    Type
REMARK                         _______ _______ _______ _____ _____    ______ ____
ROOT
ATOM      1  C   UNL     1      45.178   5.722  12.197  0.00  0.00    +0.000 C 
ATOM      2  C   UNL     1      45.023   6.929  11.295  0.00  0.00    +0.000 C 
ATOM      3  C   UNL     1      43.989   6.646  12.336  0.00  0.00    +0.000 C 
ENDROOT
BRANCH   1   8
ATOM      4  C   UNL     1      49.906   7.904  12.822  0.00  0.00    +0.000 A 
ATOM      5  C   UNL     1      49.177   7.717  11.646  0.00  0.00    +0.000 A 
ATOM      6  C   UNL     1      47.937   7.068  11.696  0.00  0.00    +0.000 A 
ATOM      7  C   UNL     1      47.456   6.625  12.921  0.00  0.00    +0.000 A 
ATOM      8  N   UNL     1      46.342   5.809  13.086  0.00  0.00    +0.000 N 
ATOM      9  N   UNL     1      48.123   6.861  14.071  0.00  0.00    +0.000 NA
ATOM     10  C   UNL     1      49.323   7.481  14.003  0.00  0.00    +0.000 A 
ATOM     11  H   UNL     1      46.157   5.794  14.085  0.00  0.00    +0.000 HD
BRANCH   4  13
ATOM     12  N   UNL     1      52.290   8.908  12.855  0.00  0.00    +0.000 NA
ATOM     13  C   UNL     1      51.224   8.464  12.825  0.00  0.00    +0.000 C 
ENDBRANCH   4  13
ENDBRANCH   1   8
BRANCH   1  14
ATOM     14  C   UNL     1      44.972   4.306  11.688  0.00  0.00    +0.000 A 
ATOM     15  C   UNL     1      43.863   3.555  12.107  0.00  0.00    +0.000 A 
ATOM     16  C   UNL     1      43.378   2.511  11.323  0.00  0.00    +0.000 A 
ATOM     17  C   UNL     1      44.015   2.181  10.126  0.00  0.00    +0.000 A 
ATOM     18  C   UNL     1      45.196   2.828   9.729  0.00  0.00    +0.000 A 
ATOM     19  C   UNL     1      45.682   3.853  10.559  0.00  0.00    +0.000 A 
BRANCH  18  20
ATOM     20  C   UNL     1      45.833   2.566   8.426  0.00  0.00    +0.000 A 
ATOM     21  C   UNL     1      45.993   3.580   7.468  0.00  0.00    +0.000 A 
ATOM     22  C   UNL     1      46.664   3.329   6.273  0.00  0.00    +0.000 A 
ATOM     23  C   UNL     1      47.169   2.060   6.059  0.00  0.00    +0.000 A 
ATOM     24  N   UNL     1      47.048   1.050   6.945  0.00  0.00    +0.000 NA
ATOM     25  C   UNL     1      46.386   1.328   8.095  0.00  0.00    +0.000 A 
ENDBRANCH  18  20
ENDBRANCH   1  14
TORSDOF 4
ENDMDL
MODEL 6
REMARK VINA RESULT:    -5.517      5.528      8.436
REMARK INTER + INTRA:          -7.967
REMARK INTER:                  -7.732
REMARK INTRA:                  -0.235
REMARK UNBOUND:                -1.160
REMARK  Name = 
REMARK  4 active torsions:
REMARK  status: ('A' for Active; 'I' for Inactive)
REMARK    1  A    between atoms: C_2  and  C_3
REMARK    2  A    between atoms: N_7  and  C_8
REMARK    3  A    between atoms: C_8  and  C_9
REMARK    4  A    between atoms: C_13  and  C_14
REMARK                            x       y       z     vdW  Elec       q    Type
REMARK                         _______ _______ _______ _____ _____    ______ ____
ROOT
ATOM      1  C   UNL     1      48.357   3.883  16.891  0.00  0.00    +0.000 C 
ATOM      2  C   UNL     1      47.345   3.157  17.753  0.00  0.00    +0.000 C 
ATOM      3  C   UNL     1      47.954   2.460  16.579  0.00  0.00    +0.000 C 
ENDROOT
BRANCH   1   8
ATOM      4  C   UNL     1      53.210   2.203  17.952  0.00  0.00    +0.000 A 
ATOM      5  C   UNL     1      52.099   1.465  17.541  0.00  0.00    +0.000 A 
ATOM      6  C   UNL     1      50.871   2.110  17.349  0.00  0.00    +0.000 A 
ATOM      7  C   UNL     1      50.787   3.478  17.573  0.00  0.00    +0.000 A 
ATOM      8  N   UNL     1      49.600   4.204  17.603  0.00  0.00    +0.000 N 
ATOM      9  N   UNL     1      51.871   4.211  17.906  0.00  0.00    +0.000 NA
ATOM     10  C   UNL     1      53.046   3.569  18.095  0.00  0.00    +0.000 A 
ATOM     11  H   UNL     1      49.875   5.182  17.626  0.00  0.00    +0.000 HD
BRANCH   4  13
ATOM     12  N   UNL     1      55.468   1.067  18.508  0.00  0.00    +0.000 NA
ATOM     13  C   UNL     1      54.465   1.587  18.267  0.00  0.00    +0.000 C 
ENDBRANCH   4  13
ENDBRANCH   1   8
BRANCH   1  14
ATOM     14  C   UNL     1      47.954   5.002  15.946  0.00  0.00    +0.000 A 
ATOM     15  C   UNL     1      48.732   6.166  15.851  0.00  0.00    +0.000 A 
ATOM     16  C   UNL     1      48.699   6.948  14.699  0.00  0.00    +0.000 A 
ATOM     17  C   UNL     1      47.861   6.595  13.639  0.00  0.00    +0.000 A 
ATOM     18  C   UNL     1      46.980   5.508  13.740  0.00  0.00    +0.000 A 
ATOM     19  C   UNL     1      47.011   4.759  14.929  0.00  0.00    +0.000 A 
BRANCH  18  20
ATOM     20  C   UNL     1      46.158   5.057  12.602  0.00  0.00    +0.000 A 
ATOM     21  C   UNL     1      46.002   5.844  11.450  0.00  0.00    +0.000 A 
ATOM     22  C   UNL     1      45.282   5.367  10.356  0.00  0.00    +0.000 A 
ATOM     23  C   UNL     1      44.732   4.101  10.436  0.00  0.00    +0.000 A 
ATOM     24  N   UNL     1      44.853   3.301  11.516  0.00  0.00    +0.000 NA
ATOM     25  C   UNL     1      45.556   3.799  12.563  0.00  0.00    +0.000 A 
ENDBRANCH  18  20
ENDBRANCH   1  14
TORSDOF 4
ENDMDL
MODEL 7
REMARK VINA RESULT:    -5.299      3.162      5.777
REMARK INTER + INTRA:          -7.698
REMARK INTER:                  -7.486
REMARK INTRA:                  -0.212
REMARK UNBOUND:                -1.160
REMARK  Name = 
REMARK  4 active torsions:
REMARK  status: ('A' for Active; 'I' for Inactive)
REMARK    1  A    between atoms: C_2  and  C_3
REMARK    2  A    between atoms: N_7  and  C_8
REMARK    3  A    between atoms: C_8  and  C_9
REMARK    4  A    between atoms: C_13  and  C_14
REMARK                            x       y       z     vdW  Elec       q    Type
REMARK                         _______ _______ _______ _____ _____    ______ ____
ROOT
ATOM      1  C   UNL     1      47.351   8.390  12.667  0.00  0.00    +0.000 C 
ATOM      2  C   UNL     1      46.075   9.135  12.999  0.00  0.00    +0.000 C 
ATOM      3  C   UNL     1      47.150   9.821  12.219  0.00  0.00    +0.000 C 
ENDROOT
BRANCH   1   8
ATOM      4  C   UNL     1      44.370   4.173  11.756  0.00  0.00    +0.000 A 
ATOM      5  C   UNL     1      44.561   4.868  12.951  0.00  0.00    +0.000 A 
ATOM      6  C   UNL     1      45.442   5.956  12.987  0.00  0.00    +0.000 A 
ATOM      7  C   UNL     1      46.108   6.323  11.825  0.00  0.00    +0.000 A 
ATOM      8  N   UNL     1      47.140   7.254  11.764  0.00  0.00    +0.000 N 
ATOM      9  N   UNL     1      45.879   5.699  10.649  0.00  0.00    +0.000 NA
ATOM     10  C   UNL     1      45.031   4.644  10.636  0.00  0.00    +0.000 A 
ATOM     11  H   UNL     1      47.306   7.417  10.774  0.00  0.00    +0.000 HD
BRANCH   4  13
ATOM     12  N   UNL     1      42.911   2.039  11.642  0.00  0.00    +0.000 NA
ATOM     13  C   UNL     1      43.566   2.990  11.677  0.00  0.00    +0.000 C 
ENDBRANCH   4  13
ENDBRANCH   1   8
BRANCH   1  14
ATOM     14  C   UNL     1      48.397   8.075  13.722  0.00  0.00    +0.000 A 
ATOM     15  C   UNL     1      49.165   9.103  14.290  0.00  0.00    +0.000 A 
ATOM     16  C   UNL     1      49.736   8.946  15.551  0.00  0.00    +0.000 A 
ATOM     17  C   UNL     1      49.577   7.746  16.246  0.00  0.00    +0.000 A 
ATOM     18  C   UNL     1      48.919   6.652  15.664  0.00  0.00    +0.000 A 
ATOM     19  C   UNL     1      48.384   6.828  14.376  0.00  0.00    +0.000 A 
BRANCH  18  20
ATOM     20  C   UNL     1      48.653   5.410  16.412  0.00  0.00    +0.000 A 
ATOM     21  C   UNL     1      47.578   4.568  16.084  0.00  0.00    +0.000 A 
ATOM     22  C   UNL     1      47.388   3.362  16.755  0.00  0.00    +0.000 A 
ATOM     23  C   UNL     1      48.287   3.016  17.747  0.00  0.00    +0.000 A 
ATOM     24  N   UNL     1      49.339   3.784  18.101  0.00  0.00    +0.000 NA
ATOM     25  C   UNL     1      49.490   4.952  17.430  0.00  0.00    +0.000 A 
ENDBRANCH  18  20
ENDBRANCH   1  14
TORSDOF 4
ENDMDL
MODEL 8
REMARK VINA RESULT:    -5.161      2.149      3.537
REMARK INTER + INTRA:          -7.527
REMARK INTER:                  -6.646
REMARK INTRA:                  -0.881
REMARK UNBOUND:                -1.160
REMARK  Name = 
REMARK  4 active torsions:
REMARK  status: ('A' for Active; 'I' for Inactive)
REMARK    1  A    between atoms: C_2  and  C_3
REMARK    2  A    between atoms: N_7  and  C_8
REMARK    3  A    between atoms: C_8  and  C_9
REMARK    4  A    between atoms: C_13  and  C_14
REMARK                            x       y       z     vdW  Elec       q    Type
REMARK                         _______ _______ _______ _____ _____    ______ ____
ROOT
ATOM      1  C   UNL     1      45.318   8.424  12.129  0.00  0.00    +0.000 C 
ATOM      2  C   UNL     1      44.536   9.676  12.471  0.00  0.00    +0.000 C 
ATOM      3  C   UNL     1      45.149   9.532  11.115  0.00  0.00    +0.000 C 
ENDROOT
BRANCH   1   8
ATOM      4  C   UNL     1      44.835   3.638  10.040  0.00  0.00    +0.000 A 
ATOM      5  C   UNL     1      45.551   4.735   9.557  0.00  0.00    +0.000 A 
ATOM      6  C   UNL     1      45.514   5.948  10.257  0.00  0.00    +0.000 A 
ATOM      7  C   UNL     1      44.764   6.031  11.423  0.00  0.00    +0.000 A 
ATOM      8  N   UNL     1      44.491   7.212  12.106  0.00  0.00    +0.000 N 
ATOM      9  N   UNL     1      44.125   4.957  11.933  0.00  0.00    +0.000 NA
ATOM     10  C   UNL     1      44.164   3.797  11.239  0.00  0.00    +0.000 A 
ATOM     11  H   UNL     1      44.067   6.930  12.986  0.00  0.00    +0.000 HD
BRANCH   4  13
ATOM     12  N   UNL     1      44.682   1.395   8.760  0.00  0.00    +0.000 NA
ATOM     13  C   UNL     1      44.746   2.404   9.318  0.00  0.00    +0.000 C 
ENDBRANCH   4  13
ENDBRANCH   1   8
BRANCH   1  14
ATOM     14  C   UNL     1      46.692   8.148  12.716  0.00  0.00    +0.000 A 
ATOM     15  C   UNL     1      46.885   7.072  13.597  0.00  0.00    +0.000 A 
ATOM     16  C   UNL     1      48.144   6.497  13.747  0.00  0.00    +0.000 A 
ATOM     17  C   UNL     1      49.236   7.012  13.045  0.00  0.00    +0.000 A 
ATOM     18  C   UNL     1      49.111   8.159  12.248  0.00  0.00    +0.000 A 
ATOM     19  C   UNL     1      47.834   8.739  12.144  0.00  0.00    +0.000 A 
BRANCH  18  20
ATOM     20  C   UNL     1      50.222   8.664  11.421  0.00  0.00    +0.000 A 
ATOM     21  C   UNL     1      50.332  10.022  11.086  0.00  0.00    +0.000 A 
ATOM     22  C   UNL     1      51.431  10.491  10.367  0.00  0.00    +0.000 A 
ATOM     23  C   UNL     1      52.407   9.584   9.999  0.00  0.00    +0.000 A 
ATOM     24  N   UNL     1      52.355   8.269  10.297  0.00  0.00    +0.000 NA
ATOM     25  C   UNL     1      51.270   7.848  10.993  0.00  0.00    +0.000 A 
ENDBRANCH  18  20
ENDBRANCH   1  14
TORSDOF 4
ENDMDL
MODEL 9
REMARK VINA RESULT:    -5.148      3.202      5.696
REMARK INTER + INTRA:          -7.512
REMARK INTER:                  -6.691
REMARK INTRA:                  -0.820
REMARK UNBOUND:                -1.160
REMARK  Name = 
REMARK  4 active torsions:
REMARK  status: ('A' for Active; 'I' for Inactive)
REMARK    1  A    between atoms: C_2  and  C_3
REMARK    2  A    between atoms: N_7  and  C_8
REMARK    3  A    between atoms: C_8  and  C_9
REMARK    4  A    between atoms: C_13  and  C_14
REMARK                            x       y       z     vdW  Elec       q    Type
REMARK                         _______ _______ _______ _____ _____    ______ ____
ROOT
ATOM      1  C   UNL     1      48.397   7.644  14.502  0.00  0.00    +0.000 C 
ATOM      2  C   UNL     1      49.236   8.032  15.702  0.00  0.00    +0.000 C 
ATOM      3  C   UNL     1      47.887   8.648  15.511  0.00  0.00    +0.000 C 
ENDROOT
BRANCH   1   8
ATOM      4  C   UNL     1      45.053   4.178  12.428  0.00  0.00    +0.000 A 
ATOM      5  C   UNL     1      44.949   5.569  12.482  0.00  0.00    +0.000 A 
ATOM      6  C   UNL     1      45.946   6.313  13.125  0.00  0.00    +0.000 A 
ATOM      7  C   UNL     1      47.022   5.646  13.696  0.00  0.00    +0.000 A 
ATOM      8  N   UNL     1      47.975   6.239  14.518  0.00  0.00    +0.000 N 
ATOM      9  N   UNL     1      47.165   4.308  13.589  0.00  0.00    +0.000 NA
ATOM     10  C   UNL     1      46.187   3.605  12.972  0.00  0.00    +0.000 A 
ATOM     11  H   UNL     1      48.705   5.543  14.640  0.00  0.00    +0.000 HD
BRANCH   4  13
ATOM     12  N   UNL     1      43.171   2.687  11.462  0.00  0.00    +0.000 NA
ATOM     13  C   UNL     1      44.017   3.353  11.879  0.00  0.00    +0.000 C 
ENDBRANCH   4  13
ENDBRANCH   1   8
BRANCH   1  14
ATOM     14  C   UNL     1      48.743   8.103  13.096  0.00  0.00    +0.000 A 
ATOM     15  C   UNL     1      48.126   9.238  12.547  0.00  0.00    +0.000 A 
ATOM     16  C   UNL     1      48.746   9.959  11.529  0.00  0.00    +0.000 A 
ATOM     17  C   UNL     1      49.974   9.534  11.021  0.00  0.00    +0.000 A 
ATOM     18  C   UNL     1      50.568   8.340  11.457  0.00  0.00    +0.000 A 
ATOM     19  C   UNL     1      49.901   7.615  12.461  0.00  0.00    +0.000 A 
BRANCH  18  20
ATOM     20  C   UNL     1      51.908   7.921  11.008  0.00  0.00    +0.000 A 
ATOM     21  C   UNL     1      52.083   7.087   9.892  0.00  0.00    +0.000 A 
ATOM     22  C   UNL     1      53.361   6.764   9.440  0.00  0.00    +0.000 A 
ATOM     23  C   UNL     1      54.447   7.289  10.116  0.00  0.00    +0.000 A 
ATOM     24  N   UNL     1      54.338   8.097  11.191  0.00  0.00    +0.000 NA
ATOM     25  C   UNL     1      53.080   8.387  11.606  0.00  0.00    +0.000 A 
ENDBRANCH  18  20
ENDBRANCH   1  14
TORSDOF 4
ENDMDL
