MODEL 1
REMARK VINA RESULT:    -8.451      0.000      0.000
REMARK INTER + INTRA:         -10.627
REMARK INTER:                  -9.934
REMARK INTRA:                  -0.693
REMARK UNBOUND:                -0.693
REMARK  Name = 
REMARK  3 active torsions:
REMARK  status: ('A' for Active; 'I' for Inactive)
REMARK    1  A    between atoms: C_2  and  C_4
REMARK    2  A    between atoms: N_8  and  C_9
REMARK    3  A    between atoms: C_9  and  C_10
REMARK                            x       y       z     vdW  Elec       q    Type
REMARK                         _______ _______ _______ _____ _____    ______ ____
ROOT
ATOM      1  C   UNL     1      46.516   2.668   7.507  0.00  0.00    +0.000 A 
ATOM      2  C   UNL     1      46.215   4.017   7.663  0.00  0.00    +0.000 A 
ATOM      3  C   UNL     1      45.352   4.416   8.688  0.00  0.00    +0.000 A 
ATOM      4  C   UNL     1      44.809   3.460   9.534  0.00  0.00    +0.000 A 
ATOM      5  N   UNL     1      43.885   3.758  10.541  0.00  0.00    +0.000 N 
ATOM      6  N   UNL     1      45.069   2.145   9.375  0.00  0.00    +0.000 NA
ATOM      7  C   UNL     1      45.909   1.772   8.369  0.00  0.00    +0.000 A 
ATOM      8  H   UNL     1      43.710   2.882  11.029  0.00  0.00    +0.000 HD
ENDROOT
BRANCH   1  10
ATOM      9  N   UNL     1      47.691   3.018   5.416  0.00  0.00    +0.000 N 
ATOM     10  C   UNL     1      47.418   2.165   6.450  0.00  0.00    +0.000 C 
ATOM     11  O   UNL     1      47.925   1.055   6.514  0.00  0.00    +0.000 OA
ATOM     12  H   UNL     1      48.391   2.710   4.752  0.00  0.00    +0.000 HD
ATOM     13  H   UNL     1      47.497   4.010   5.461  0.00  0.00    +0.000 HD
ENDBRANCH   1  10
BRANCH   5  14
ATOM     14  C   UNL     1      43.860   4.981  11.355  0.00  0.00    +0.000 C 
ATOM     15  C   UNL     1      42.531   5.210  12.073  0.00  0.00    +0.000 C 
ATOM     16  C   UNL     1      42.996   6.194  11.056  0.00  0.00    +0.000 C 
BRANCH  14  17
ATOM     17  C   UNL     1      45.153   5.258  12.124  0.00  0.00    +0.000 A 
ATOM     18  C   UNL     1      45.963   6.365  11.804  0.00  0.00    +0.000 A 
ATOM     19  C   UNL     1      47.093   6.685  12.562  0.00  0.00    +0.000 A 
ATOM     20  C   UNL     1      47.436   5.890  13.645  0.00  0.00    +0.000 A 
ATOM     21  F   UNL     1      48.502   6.210  14.391  0.00  0.00    +0.000 F 
ATOM     22  C   UNL     1      46.683   4.770  13.972  0.00  0.00    +0.000 A 
ATOM     23  C   UNL     1      45.555   4.454  13.210  0.00  0.00    +0.000 A 
ENDBRANCH  14  17
ENDBRANCH   5  14
TORSDOF 3
ENDMDL
MODEL 2
REMARK VINA RESULT:    -6.839      4.032      6.425
REMARK INTER + INTRA:          -8.731
REMARK INTER:                  -8.348
REMARK INTRA:                  -0.383
REMARK UNBOUND:                -0.693
REMARK  Name = 
REMARK  3 active torsions:
REMARK  status: ('A' for Active; 'I' for Inactive)
REMARK    1  A    between atoms: C_2  and  C_4
REMARK    2  A    between atoms: N_8  and  C_9
REMARK    3  A    between atoms: C_9  and  C_10
REMARK                            x       y       z     vdW  Elec       q    Type
REMARK                         _______ _______ _______ _____ _____    ______ ____
ROOT
ATOM      1  C   UNL     1      48.178   6.603  13.808  0.00  0.00    +0.000 A 
ATOM      2  C   UNL     1      47.333   5.542  14.121  0.00  0.00    +0.000 A 
ATOM      3  C   UNL     1      46.324   5.179  13.224  0.00  0.00    +0.000 A 
ATOM      4  C   UNL     1      46.180   5.880  12.036  0.00  0.00    +0.000 A 
ATOM      5  N   UNL     1      45.160   5.633  11.112  0.00  0.00    +0.000 N 
ATOM      6  N   UNL     1      46.975   6.929  11.734  0.00  0.00    +0.000 NA
ATOM      7  C   UNL     1      47.951   7.274  12.620  0.00  0.00    +0.000 A 
ATOM      8  H   UNL     1      45.338   6.252  10.324  0.00  0.00    +0.000 HD
ENDROOT
BRANCH   1  10
ATOM      9  N   UNL     1      50.434   7.440  14.101  0.00  0.00    +0.000 N 
ATOM     10  C   UNL     1      49.268   7.048  14.700  0.00  0.00    +0.000 C 
ATOM     11  O   UNL     1      49.124   7.099  15.912  0.00  0.00    +0.000 OA
ATOM     12  H   UNL     1      51.138   7.843  14.707  0.00  0.00    +0.000 HD
ATOM     13  H   UNL     1      50.497   7.647  13.113  0.00  0.00    +0.000 HD
ENDBRANCH   1  10
BRANCH   5  14
ATOM     14  C   UNL     1      44.579   4.320  10.800  0.00  0.00    +0.000 C 
ATOM     15  C   UNL     1      43.066   4.256  11.003  0.00  0.00    +0.000 C 
ATOM     16  C   UNL     1      43.955   3.390  11.827  0.00  0.00    +0.000 C 
BRANCH  14  17
ATOM     17  C   UNL     1      45.170   3.643   9.561  0.00  0.00    +0.000 A 
ATOM     18  C   UNL     1      45.710   4.406   8.508  0.00  0.00    +0.000 A 
ATOM     19  C   UNL     1      46.341   3.800   7.417  0.00  0.00    +0.000 A 
ATOM     20  C   UNL     1      46.426   2.417   7.361  0.00  0.00    +0.000 A 
ATOM     21  F   UNL     1      47.055   1.834   6.332  0.00  0.00    +0.000 F 
ATOM     22  C   UNL     1      45.876   1.630   8.362  0.00  0.00    +0.000 A 
ATOM     23  C   UNL     1      45.245   2.241   9.450  0.00  0.00    +0.000 A 
ENDBRANCH  14  17
ENDBRANCH   5  14
TORSDOF 3
ENDMDL
MODEL 3
REMARK VINA RESULT:    -6.699      3.953      6.395
REMARK INTER + INTRA:          -8.567
REMARK INTER:                  -8.761
REMARK INTRA:                   0.194
REMARK UNBOUND:                -0.693
REMARK  Name = 
REMARK  3 active torsions:
REMARK  status: ('A' for Active; 'I' for Inactive)
REMARK    1  A    between atoms: C_2  and  C_4
REMARK    2  A    between atoms: N_8  and  C_9
REMARK    3  A    between atoms: C_9  and  C_10
REMARK                            x       y       z     vdW  Elec       q    Type
REMARK                         _______ _______ _______ _____ _____    ______ ____
ROOT
ATOM      1  C   UNL     1      47.880   5.851  14.599  0.00  0.00    +0.000 A 
ATOM      2  C   UNL     1      47.477   6.135  13.298  0.00  0.00    +0.000 A 
ATOM      3  C   UNL     1      46.682   5.214  12.609  0.00  0.00    +0.000 A 
ATOM      4  C   UNL     1      46.307   4.033  13.231  0.00  0.00    +0.000 A 
ATOM      5  N   UNL     1      45.572   3.026  12.597  0.00  0.00    +0.000 N 
ATOM      6  N   UNL     1      46.716   3.732  14.482  0.00  0.00    +0.000 NA
ATOM      7  C   UNL     1      47.495   4.637  15.140  0.00  0.00    +0.000 A 
ATOM      8  H   UNL     1      45.400   2.316  13.306  0.00  0.00    +0.000 HD
ENDROOT
BRANCH   1  10
ATOM      9  N   UNL     1      48.148   7.953  15.777  0.00  0.00    +0.000 N 
ATOM     10  C   UNL     1      48.720   6.770  15.396  0.00  0.00    +0.000 C 
ATOM     11  O   UNL     1      49.858   6.474  15.728  0.00  0.00    +0.000 OA
ATOM     12  H   UNL     1      48.688   8.530  16.410  0.00  0.00    +0.000 HD
ATOM     13  H   UNL     1      47.150   8.114  15.738  0.00  0.00    +0.000 HD
ENDBRANCH   1  10
BRANCH   5  14
ATOM     14  C   UNL     1      44.515   3.229  11.598  0.00  0.00    +0.000 C 
ATOM     15  C   UNL     1      43.406   4.171  12.063  0.00  0.00    +0.000 C 
ATOM     16  C   UNL     1      43.081   2.751  11.755  0.00  0.00    +0.000 C 
BRANCH  14  17
ATOM     17  C   UNL     1      45.018   3.362  10.159  0.00  0.00    +0.000 A 
ATOM     18  C   UNL     1      45.329   4.624   9.615  0.00  0.00    +0.000 A 
ATOM     19  C   UNL     1      45.882   4.750   8.337  0.00  0.00    +0.000 A 
ATOM     20  C   UNL     1      46.120   3.613   7.581  0.00  0.00    +0.000 A 
ATOM     21  F   UNL     1      46.678   3.728   6.368  0.00  0.00    +0.000 F 
ATOM     22  C   UNL     1      45.797   2.354   8.069  0.00  0.00    +0.000 A 
ATOM     23  C   UNL     1      45.242   2.233   9.346  0.00  0.00    +0.000 A 
ENDBRANCH  14  17
ENDBRANCH   5  14
TORSDOF 3
ENDMDL
MODEL 4
REMARK VINA RESULT:    -5.657      2.108      2.663
REMARK INTER + INTRA:          -7.343
REMARK INTER:                  -7.436
REMARK INTRA:                   0.093
REMARK UNBOUND:                -0.693
REMARK  Name = 
REMARK  3 active torsions:
REMARK  status: ('A' for Active; 'I' for Inactive)
REMARK    1  A    between atoms: C_2  and  C_4
REMARK    2  A    between atoms: N_8  and  C_9
REMARK    3  A    between atoms: C_9  and  C_10
REMARK                            x       y       z     vdW  Elec       q    Type
REMARK                         _______ _______ _______ _____ _____    ______ ____
ROOT
ATOM      1  C   UNL     1      46.344   3.560   7.280  0.00  0.00    +0.000 A 
ATOM      2  C   UNL     1      46.741   4.604   8.109  0.00  0.00    +0.000 A 
ATOM      3  C   UNL     1      45.882   5.042   9.122  0.00  0.00    +0.000 A 
ATOM      4  C   UNL     1      44.648   4.430   9.285  0.00  0.00    +0.000 A 
ATOM      5  N   UNL     1      43.699   4.844  10.224  0.00  0.00    +0.000 N 
ATOM      6  N   UNL     1      44.239   3.435   8.468  0.00  0.00    +0.000 NA
ATOM      7  C   UNL     1      45.085   3.023   7.483  0.00  0.00    +0.000 A 
ATOM      8  H   UNL     1      42.928   4.183  10.155  0.00  0.00    +0.000 HD
ENDROOT
BRANCH   1  10
ATOM      9  N   UNL     1      48.458   2.646   6.525  0.00  0.00    +0.000 N 
ATOM     10  C   UNL     1      47.191   3.039   6.187  0.00  0.00    +0.000 C 
ATOM     11  O   UNL     1      46.772   2.931   5.045  0.00  0.00    +0.000 OA
ATOM     12  H   UNL     1      48.997   2.193   5.797  0.00  0.00    +0.000 HD
ATOM     13  H   UNL     1      48.743   2.487   7.482  0.00  0.00    +0.000 HD
ENDBRANCH   1  10
BRANCH   5  14
ATOM     14  C   UNL     1      43.985   5.382  11.561  0.00  0.00    +0.000 C 
ATOM     15  C   UNL     1      44.657   4.377  12.494  0.00  0.00    +0.000 C 
ATOM     16  C   UNL     1      43.311   4.913  12.839  0.00  0.00    +0.000 C 
BRANCH  14  17
ATOM     17  C   UNL     1      44.495   6.825  11.568  0.00  0.00    +0.000 A 
ATOM     18  C   UNL     1      43.724   7.868  11.017  0.00  0.00    +0.000 A 
ATOM     19  C   UNL     1      44.134   9.202  11.105  0.00  0.00    +0.000 A 
ATOM     20  C   UNL     1      45.330   9.508  11.736  0.00  0.00    +0.000 A 
ATOM     21  F   UNL     1      45.711  10.788  11.848  0.00  0.00    +0.000 F 
ATOM     22  C   UNL     1      46.133   8.506  12.262  0.00  0.00    +0.000 A 
ATOM     23  C   UNL     1      45.720   7.174  12.170  0.00  0.00    +0.000 A 
ENDBRANCH  14  17
ENDBRANCH   5  14
TORSDOF 3
ENDMDL
