MODEL 1
REMARK VINA RESULT:    -8.203      0.000      0.000
REMARK INTER + INTRA:         -12.592
REMARK INTER:                 -11.560
REMARK INTRA:                  -1.031
REMARK UNBOUND:                -1.031
REMARK  Name = 
REMARK  7 active torsions:
REMARK  status: ('A' for Active; 'I' for Inactive)
REMARK    1  A    between atoms: C_2  and  C_3
REMARK    2  A    between atoms: C_7  and  N_8
REMARK    3  A    between atoms: N_8  and  C_9
REMARK    4  A    between atoms: C_9  and  C_10
REMARK    5  A    between atoms: C_13  and  C_14
REMARK    6  A    between atoms: C_14  and  N_15
REMARK    7  A    between atoms: C_16  and  C_18
REMARK                            x       y       z     vdW  Elec       q    Type
REMARK                         _______ _______ _______ _____ _____    ______ ____
ROOT
ATOM      1  C   UNL     1      44.996   4.461  12.030  0.00  0.00    +0.000 A 
ATOM      2  C   UNL     1      45.000   5.810  11.643  0.00  0.00    +0.000 A 
ATOM      3  C   UNL     1      45.929   6.712  12.187  0.00  0.00    +0.000 A 
ATOM      4  C   UNL     1      46.895   6.281  13.106  0.00  0.00    +0.000 A 
ATOM      5  C   UNL     1      46.892   4.932  13.489  0.00  0.00    +0.000 A 
ATOM      6  C   UNL     1      45.963   4.033  12.950  0.00  0.00    +0.000 A 
ENDROOT
BRANCH   1   7
ATOM      7  C   UNL     1      43.981   3.482  11.473  0.00  0.00    +0.000 C 
BRANCH   7   8
ATOM      8  N   UNL     1      43.833   3.679  10.035  0.00  0.00    +0.000 N 
ATOM      9  H   UNL     1      42.951   3.304   9.697  0.00  0.00    +0.000 HD
BRANCH   8  14
ATOM     10  C   UNL     1      46.229   1.730   7.985  0.00  0.00    +0.000 A 
ATOM     11  C   UNL     1      46.888   2.728   7.269  0.00  0.00    +0.000 A 
ATOM     12  C   UNL     1      46.547   4.061   7.481  0.00  0.00    +0.000 A 
ATOM     13  C   UNL     1      45.555   4.397   8.416  0.00  0.00    +0.000 A 
ATOM     14  C   UNL     1      44.899   3.414   9.167  0.00  0.00    +0.000 A 
ATOM     15  C   UNL     1      45.236   2.075   8.913  0.00  0.00    +0.000 A 
BRANCH  10  17
ATOM     16  N   UNL     1      46.832  -0.766   7.603  0.00  0.00    +0.000 NA
ATOM     17  C   UNL     1      46.562   0.354   7.772  0.00  0.00    +0.000 C 
ENDBRANCH  10  17
ENDBRANCH   8  14
ENDBRANCH   7   8
ENDBRANCH   1   7
BRANCH   4  18
ATOM     18  C   UNL     1      47.915   7.232  13.688  0.00  0.00    +0.000 C 
BRANCH  18  19
ATOM     19  N   UNL     1      47.917   7.206  15.129  0.00  0.00    +0.000 N 
ATOM     20  C   UNL     1      49.052   6.913  15.844  0.00  0.00    +0.000 C 
ATOM     21  O   UNL     1      50.129   6.678  15.301  0.00  0.00    +0.000 OA
ATOM     22  H   UNL     1      47.015   7.109  15.584  0.00  0.00    +0.000 HD
BRANCH  20  23
ATOM     23  C   UNL     1      48.926   6.962  17.308  0.00  0.00    +0.000 A 
ATOM     24  C   UNL     1      48.800   8.185  17.955  0.00  0.00    +0.000 A 
ATOM     25  S   UNL     1      48.615   8.045  19.646  0.00  0.00    +0.000 S 
ATOM     26  C   UNL     1      48.750   6.350  19.577  0.00  0.00    +0.000 A 
ATOM     27  N   UNL     1      48.705   5.596  20.708  0.00  0.00    +0.000 NA
ATOM     28  C   UNL     1      48.847   4.327  20.510  0.00  0.00    +0.000 A 
ATOM     29  N   UNL     1      49.021   3.744  19.282  0.00  0.00    +0.000 N 
ATOM     30  C   UNL     1      49.031   4.461  18.110  0.00  0.00    +0.000 A 
ATOM     31  O   UNL     1      49.123   3.900  17.022  0.00  0.00    +0.000 OA
ATOM     32  C   UNL     1      48.903   5.895  18.279  0.00  0.00    +0.000 A 
ATOM     33  H   UNL     1      49.108   2.743  19.191  0.00  0.00    +0.000 HD
ENDBRANCH  20  23
ENDBRANCH  18  19
ENDBRANCH   4  18
TORSDOF 7
ENDMDL
MODEL 2
REMARK VINA RESULT:    -7.862      1.380      2.090
REMARK INTER + INTRA:         -12.111
REMARK INTER:                 -10.888
REMARK INTRA:                  -1.223
REMARK UNBOUND:                -1.031
REMARK  Name = 
REMARK  7 active torsions:
REMARK  status: ('A' for Active; 'I' for Inactive)
REMARK    1  A    between atoms: C_2  and  C_3
REMARK    2  A    between atoms: C_7  and  N_8
REMARK    3  A    between atoms: N_8  and  C_9
REMARK    4  A    between atoms: C_9  and  C_10
REMARK    5  A    between atoms: C_13  and  C_14
REMARK    6  A    between atoms: C_14  and  N_15
REMARK    7  A    between atoms: C_16  and  C_18
REMARK                            x       y       z     vdW  Elec       q    Type
REMARK                         _______ _______ _______ _____ _____    ______ ____
ROOT
ATOM      1  C   UNL     1      44.970   4.454  12.074  0.00  0.00    +0.000 A 
ATOM      2  C   UNL     1      44.907   5.828  11.799  0.00  0.00    +0.000 A 
ATOM      3  C   UNL     1      45.825   6.721  12.378  0.00  0.00    +0.000 A 
ATOM      4  C   UNL     1      46.844   6.256  13.220  0.00  0.00    +0.000 A 
ATOM      5  C   UNL     1      46.907   4.882  13.491  0.00  0.00    +0.000 A 
ATOM      6  C   UNL     1      45.990   3.992  12.917  0.00  0.00    +0.000 A 
ENDROOT
BRANCH   1   7
ATOM      7  C   UNL     1      43.969   3.482  11.477  0.00  0.00    +0.000 C 
BRANCH   7   8
ATOM      8  N   UNL     1      43.834   3.720  10.045  0.00  0.00    +0.000 N 
ATOM      9  H   UNL     1      42.950   3.364   9.690  0.00  0.00    +0.000 HD
BRANCH   8  14
ATOM     10  C   UNL     1      46.243   1.797   7.986  0.00  0.00    +0.000 A 
ATOM     11  C   UNL     1      46.900   2.804   7.279  0.00  0.00    +0.000 A 
ATOM     12  C   UNL     1      46.551   4.134   7.501  0.00  0.00    +0.000 A 
ATOM     13  C   UNL     1      45.557   4.458   8.435  0.00  0.00    +0.000 A 
ATOM     14  C   UNL     1      44.902   3.466   9.177  0.00  0.00    +0.000 A 
ATOM     15  C   UNL     1      45.246   2.130   8.913  0.00  0.00    +0.000 A 
BRANCH  10  17
ATOM     16  N   UNL     1      46.860  -0.693   7.586  0.00  0.00    +0.000 NA
ATOM     17  C   UNL     1      46.582   0.424   7.762  0.00  0.00    +0.000 C 
ENDBRANCH  10  17
ENDBRANCH   8  14
ENDBRANCH   7   8
ENDBRANCH   1   7
BRANCH   4  18
ATOM     18  C   UNL     1      47.852   7.198  13.837  0.00  0.00    +0.000 C 
BRANCH  18  19
ATOM     19  N   UNL     1      47.948   7.024  15.265  0.00  0.00    +0.000 N 
ATOM     20  C   UNL     1      49.145   6.742  15.878  0.00  0.00    +0.000 C 
ATOM     21  O   UNL     1      50.197   6.644  15.252  0.00  0.00    +0.000 OA
ATOM     22  H   UNL     1      47.087   6.815  15.758  0.00  0.00    +0.000 HD
BRANCH  20  23
ATOM     23  C   UNL     1      49.110   6.631  17.344  0.00  0.00    +0.000 A 
ATOM     24  C   UNL     1      49.635   5.508  17.970  0.00  0.00    +0.000 A 
ATOM     25  S   UNL     1      49.552   5.575  19.673  0.00  0.00    +0.000 S 
ATOM     26  C   UNL     1      48.765   7.083  19.631  0.00  0.00    +0.000 A 
ATOM     27  N   UNL     1      48.375   7.704  20.777  0.00  0.00    +0.000 NA
ATOM     28  C   UNL     1      47.765   8.828  20.595  0.00  0.00    +0.000 A 
ATOM     29  N   UNL     1      47.518   9.392  19.371  0.00  0.00    +0.000 N 
ATOM     30  C   UNL     1      47.929   8.822  18.190  0.00  0.00    +0.000 A 
ATOM     31  O   UNL     1      47.749   9.386  17.115  0.00  0.00    +0.000 OA
ATOM     32  C   UNL     1      48.595   7.543  18.337  0.00  0.00    +0.000 A 
ATOM     33  H   UNL     1      47.052  10.284  19.294  0.00  0.00    +0.000 HD
ENDBRANCH  20  23
ENDBRANCH  18  19
ENDBRANCH   4  18
TORSDOF 7
ENDMDL
MODEL 3
REMARK VINA RESULT:    -7.757      1.619      2.160
REMARK INTER + INTRA:         -11.963
REMARK INTER:                 -10.796
REMARK INTRA:                  -1.167
REMARK UNBOUND:                -1.031
REMARK  Name = 
REMARK  7 active torsions:
REMARK  status: ('A' for Active; 'I' for Inactive)
REMARK    1  A    between atoms: C_2  and  C_3
REMARK    2  A    between atoms: C_7  and  N_8
REMARK    3  A    between atoms: N_8  and  C_9
REMARK    4  A    between atoms: C_9  and  C_10
REMARK    5  A    between atoms: C_13  and  C_14
REMARK    6  A    between atoms: C_14  and  N_15
REMARK    7  A    between atoms: C_16  and  C_18
REMARK                            x       y       z     vdW  Elec       q    Type
REMARK                         _______ _______ _______ _____ _____    ______ ____
ROOT
ATOM      1  C   UNL     1      45.397   6.605  11.372  0.00  0.00    +0.000 A 
ATOM      2  C   UNL     1      46.714   6.201  11.638  0.00  0.00    +0.000 A 
ATOM      3  C   UNL     1      47.525   6.928  12.525  0.00  0.00    +0.000 A 
ATOM      4  C   UNL     1      47.028   8.057  13.190  0.00  0.00    +0.000 A 
ATOM      5  C   UNL     1      45.711   8.457  12.927  0.00  0.00    +0.000 A 
ATOM      6  C   UNL     1      44.903   7.735  12.039  0.00  0.00    +0.000 A 
ENDROOT
BRANCH   1   7
ATOM      7  C   UNL     1      44.519   5.846  10.395  0.00  0.00    +0.000 C 
BRANCH   7   8
ATOM      8  N   UNL     1      45.300   5.443   9.231  0.00  0.00    +0.000 N 
ATOM      9  H   UNL     1      45.126   6.053   8.437  0.00  0.00    +0.000 HD
BRANCH   8  14
ATOM     10  C   UNL     1      46.571   2.377   7.580  0.00  0.00    +0.000 A 
ATOM     11  C   UNL     1      45.819   1.376   8.194  0.00  0.00    +0.000 A 
ATOM     12  C   UNL     1      44.870   1.723   9.152  0.00  0.00    +0.000 A 
ATOM     13  C   UNL     1      44.664   3.069   9.488  0.00  0.00    +0.000 A 
ATOM     14  C   UNL     1      45.388   4.095   8.865  0.00  0.00    +0.000 A 
ATOM     15  C   UNL     1      46.362   3.719   7.927  0.00  0.00    +0.000 A 
BRANCH  10  17
ATOM     16  N   UNL     1      48.356   1.759   5.800  0.00  0.00    +0.000 NA
ATOM     17  C   UNL     1      47.558   2.035   6.601  0.00  0.00    +0.000 C 
ENDBRANCH  10  17
ENDBRANCH   8  14
ENDBRANCH   7   8
ENDBRANCH   1   7
BRANCH   4  18
ATOM     18  C   UNL     1      47.879   8.841  14.163  0.00  0.00    +0.000 C 
BRANCH  18  19
ATOM     19  N   UNL     1      48.168   8.086  15.357  0.00  0.00    +0.000 N 
ATOM     20  C   UNL     1      49.414   7.559  15.594  0.00  0.00    +0.000 C 
ATOM     21  O   UNL     1      50.353   7.719  14.818  0.00  0.00    +0.000 OA
ATOM     22  H   UNL     1      47.373   7.701  15.856  0.00  0.00    +0.000 HD
BRANCH  20  23
ATOM     23  C   UNL     1      49.584   6.848  16.869  0.00  0.00    +0.000 A 
ATOM     24  C   UNL     1      50.355   7.406  17.880  0.00  0.00    +0.000 A 
ATOM     25  S   UNL     1      50.399   6.464  19.303  0.00  0.00    +0.000 S 
ATOM     26  C   UNL     1      49.432   5.254  18.598  0.00  0.00    +0.000 A 
ATOM     27  N   UNL     1      49.109   4.125  19.285  0.00  0.00    +0.000 NA
ATOM     28  C   UNL     1      48.393   3.281  18.619  0.00  0.00    +0.000 A 
ATOM     29  N   UNL     1      47.963   3.468  17.331  0.00  0.00    +0.000 N 
ATOM     30  C   UNL     1      48.231   4.609  16.614  0.00  0.00    +0.000 A 
ATOM     31  O   UNL     1      47.776   4.772  15.486  0.00  0.00    +0.000 OA
ATOM     32  C   UNL     1      49.056   5.578  17.307  0.00  0.00    +0.000 A 
ATOM     33  H   UNL     1      47.390   2.777  16.870  0.00  0.00    +0.000 HD
ENDBRANCH  20  23
ENDBRANCH  18  19
ENDBRANCH   4  18
TORSDOF 7
ENDMDL
MODEL 4
REMARK VINA RESULT:    -7.429      3.285      8.779
REMARK INTER + INTRA:         -11.500
REMARK INTER:                 -10.011
REMARK INTRA:                  -1.489
REMARK UNBOUND:                -1.031
REMARK  Name = 
REMARK  7 active torsions:
REMARK  status: ('A' for Active; 'I' for Inactive)
REMARK    1  A    between atoms: C_2  and  C_3
REMARK    2  A    between atoms: C_7  and  N_8
REMARK    3  A    between atoms: N_8  and  C_9
REMARK    4  A    between atoms: C_9  and  C_10
REMARK    5  A    between atoms: C_13  and  C_14
REMARK    6  A    between atoms: C_14  and  N_15
REMARK    7  A    between atoms: C_16  and  C_18
REMARK                            x       y       z     vdW  Elec       q    Type
REMARK                         _______ _______ _______ _____ _____    ______ ____
ROOT
ATOM      1  C   UNL     1      49.537   8.437  15.802  0.00  0.00    +0.000 A 
ATOM      2  C   UNL     1      50.249   7.760  14.802  0.00  0.00    +0.000 A 
ATOM      3  C   UNL     1      49.693   7.568  13.526  0.00  0.00    +0.000 A 
ATOM      4  C   UNL     1      48.424   8.076  13.213  0.00  0.00    +0.000 A 
ATOM      5  C   UNL     1      47.716   8.756  14.213  0.00  0.00    +0.000 A 
ATOM      6  C   UNL     1      48.269   8.944  15.486  0.00  0.00    +0.000 A 
ENDROOT
BRANCH   1   7
ATOM      7  C   UNL     1      50.114   8.627  17.193  0.00  0.00    +0.000 C 
BRANCH   7   8
ATOM      8  N   UNL     1      50.354   7.330  17.815  0.00  0.00    +0.000 N 
ATOM      9  H   UNL     1      51.267   6.960  17.562  0.00  0.00    +0.000 HD
BRANCH   8  14
ATOM     10  C   UNL     1      48.736   4.034  17.307  0.00  0.00    +0.000 A 
ATOM     11  C   UNL     1      47.512   4.201  17.954  0.00  0.00    +0.000 A 
ATOM     12  C   UNL     1      47.215   5.424  18.549  0.00  0.00    +0.000 A 
ATOM     13  C   UNL     1      48.134   6.482  18.489  0.00  0.00    +0.000 A 
ATOM     14  C   UNL     1      49.358   6.347  17.820  0.00  0.00    +0.000 A 
ATOM     15  C   UNL     1      49.651   5.096  17.256  0.00  0.00    +0.000 A 
BRANCH  10  17
ATOM     16  N   UNL     1      49.322   1.760  16.200  0.00  0.00    +0.000 NA
ATOM     17  C   UNL     1      49.061   2.780  16.698  0.00  0.00    +0.000 C 
ENDBRANCH  10  17
ENDBRANCH   8  14
ENDBRANCH   7   8
ENDBRANCH   1   7
BRANCH   4  18
ATOM     18  C   UNL     1      47.817   7.897  11.841  0.00  0.00    +0.000 C 
BRANCH  18  19
ATOM     19  N   UNL     1      47.055   6.676  11.744  0.00  0.00    +0.000 N 
ATOM     20  C   UNL     1      45.682   6.681  11.738  0.00  0.00    +0.000 C 
ATOM     21  O   UNL     1      45.028   7.720  11.793  0.00  0.00    +0.000 OA
ATOM     22  H   UNL     1      47.539   5.817  11.983  0.00  0.00    +0.000 HD
BRANCH  20  23
ATOM     23  C   UNL     1      45.031   5.371  11.591  0.00  0.00    +0.000 A 
ATOM     24  C   UNL     1      44.336   4.816  12.658  0.00  0.00    +0.000 A 
ATOM     25  S   UNL     1      43.607   3.317  12.289  0.00  0.00    +0.000 S 
ATOM     26  C   UNL     1      44.239   3.334  10.710  0.00  0.00    +0.000 A 
ATOM     27  N   UNL     1      44.011   2.303   9.852  0.00  0.00    +0.000 NA
ATOM     28  C   UNL     1      44.573   2.437   8.696  0.00  0.00    +0.000 A 
ATOM     29  N   UNL     1      45.334   3.511   8.317  0.00  0.00    +0.000 N 
ATOM     30  C   UNL     1      45.557   4.593   9.136  0.00  0.00    +0.000 A 
ATOM     31  O   UNL     1      46.189   5.568   8.742  0.00  0.00    +0.000 OA
ATOM     32  C   UNL     1      44.970   4.481  10.457  0.00  0.00    +0.000 A 
ATOM     33  H   UNL     1      45.732   3.566   7.392  0.00  0.00    +0.000 HD
ENDBRANCH  20  23
ENDBRANCH  18  19
ENDBRANCH   4  18
TORSDOF 7
ENDMDL
MODEL 5
REMARK VINA RESULT:    -7.165      3.264      4.874
REMARK INTER + INTRA:         -11.128
REMARK INTER:                 -10.151
REMARK INTRA:                  -0.977
REMARK UNBOUND:                -1.031
REMARK  Name = 
REMARK  7 active torsions:
REMARK  status: ('A' for Active; 'I' for Inactive)
REMARK    1  A    between atoms: C_2  and  C_3
REMARK    2  A    between atoms: C_7  and  N_8
REMARK    3  A    between atoms: N_8  and  C_9
REMARK    4  A    between atoms: C_9  and  C_10
REMARK    5  A    between atoms: C_13  and  C_14
REMARK    6  A    between atoms: C_14  and  N_15
REMARK    7  A    between atoms: C_16  and  C_18
REMARK                            x       y       z     vdW  Elec       q    Type
REMARK                         _______ _______ _______ _____ _____    ______ ____
ROOT
ATOM      1  C   UNL     1      47.548   6.018  13.755  0.00  0.00    +0.000 A 
ATOM      2  C   UNL     1      46.953   4.749  13.821  0.00  0.00    +0.000 A 
ATOM      3  C   UNL     1      47.063   3.962  14.978  0.00  0.00    +0.000 A 
ATOM      4  C   UNL     1      47.745   4.437  16.107  0.00  0.00    +0.000 A 
ATOM      5  C   UNL     1      48.336   5.707  16.040  0.00  0.00    +0.000 A 
ATOM      6  C   UNL     1      48.229   6.491  14.885  0.00  0.00    +0.000 A 
ENDROOT
BRANCH   1   7
ATOM      7  C   UNL     1      47.460   6.868  12.501  0.00  0.00    +0.000 C 
BRANCH   7   8
ATOM      8  N   UNL     1      46.066   7.184  12.208  0.00  0.00    +0.000 N 
ATOM      9  H   UNL     1      45.576   7.507  13.038  0.00  0.00    +0.000 HD
BRANCH   8  14
ATOM     10  C   UNL     1      45.174   4.844   9.475  0.00  0.00    +0.000 A 
ATOM     11  C   UNL     1      43.913   4.397   9.866  0.00  0.00    +0.000 A 
ATOM     12  C   UNL     1      43.346   4.889  11.039  0.00  0.00    +0.000 A 
ATOM     13  C   UNL     1      44.034   5.836  11.813  0.00  0.00    +0.000 A 
ATOM     14  C   UNL     1      45.290   6.321  11.426  0.00  0.00    +0.000 A 
ATOM     15  C   UNL     1      45.857   5.785  10.258  0.00  0.00    +0.000 A 
BRANCH  10  17
ATOM     16  N   UNL     1      46.264   3.925   7.305  0.00  0.00    +0.000 NA
ATOM     17  C   UNL     1      45.775   4.340   8.277  0.00  0.00    +0.000 C 
ENDBRANCH  10  17
ENDBRANCH   8  14
ENDBRANCH   7   8
ENDBRANCH   1   7
BRANCH   4  18
ATOM     18  C   UNL     1      47.859   3.613  17.368  0.00  0.00    +0.000 C 
BRANCH  18  19
ATOM     19  N   UNL     1      49.232   3.328  17.705  0.00  0.00    +0.000 N 
ATOM     20  C   UNL     1      49.954   2.369  17.037  0.00  0.00    +0.000 C 
ATOM     21  O   UNL     1      49.482   1.719  16.108  0.00  0.00    +0.000 OA
ATOM     22  H   UNL     1      49.547   3.627  18.621  0.00  0.00    +0.000 HD
BRANCH  20  23
ATOM     23  C   UNL     1      51.355   2.210  17.452  0.00  0.00    +0.000 A 
ATOM     24  C   UNL     1      51.886   0.940  17.637  0.00  0.00    +0.000 A 
ATOM     25  S   UNL     1      53.537   0.948  18.070  0.00  0.00    +0.000 S 
ATOM     26  C   UNL     1      53.585   2.648  18.077  0.00  0.00    +0.000 A 
ATOM     27  N   UNL     1      54.723   3.318  18.403  0.00  0.00    +0.000 NA
ATOM     28  C   UNL     1      54.608   4.604  18.394  0.00  0.00    +0.000 A 
ATOM     29  N   UNL     1      53.460   5.283  18.078  0.00  0.00    +0.000 N 
ATOM     30  C   UNL     1      52.299   4.650  17.703  0.00  0.00    +0.000 A 
ATOM     31  O   UNL     1      51.308   5.289  17.363  0.00  0.00    +0.000 OA
ATOM     32  C   UNL     1      52.367   3.202  17.724  0.00  0.00    +0.000 A 
ATOM     33  H   UNL     1      53.438   6.291  18.071  0.00  0.00    +0.000 HD
ENDBRANCH  20  23
ENDBRANCH  18  19
ENDBRANCH   4  18
TORSDOF 7
ENDMDL
MODEL 6
REMARK VINA RESULT:    -7.132      1.991      2.427
REMARK INTER + INTRA:         -11.081
REMARK INTER:                 -10.247
REMARK INTRA:                  -0.834
REMARK UNBOUND:                -1.031
REMARK  Name = 
REMARK  7 active torsions:
REMARK  status: ('A' for Active; 'I' for Inactive)
REMARK    1  A    between atoms: C_2  and  C_3
REMARK    2  A    between atoms: C_7  and  N_8
REMARK    3  A    between atoms: N_8  and  C_9
REMARK    4  A    between atoms: C_9  and  C_10
REMARK    5  A    between atoms: C_13  and  C_14
REMARK    6  A    between atoms: C_14  and  N_15
REMARK    7  A    between atoms: C_16  and  C_18
REMARK                            x       y       z     vdW  Elec       q    Type
REMARK                         _______ _______ _______ _____ _____    ______ ____
ROOT
ATOM      1  C   UNL     1      44.749   5.636  11.823  0.00  0.00    +0.000 A 
ATOM      2  C   UNL     1      44.969   7.000  11.581  0.00  0.00    +0.000 A 
ATOM      3  C   UNL     1      46.075   7.661  12.141  0.00  0.00    +0.000 A 
ATOM      4  C   UNL     1      47.002   6.967  12.930  0.00  0.00    +0.000 A 
ATOM      5  C   UNL     1      46.782   5.602  13.167  0.00  0.00    +0.000 A 
ATOM      6  C   UNL     1      45.678   4.944  12.612  0.00  0.00    +0.000 A 
ENDROOT
BRANCH   1   7
ATOM      7  C   UNL     1      43.544   4.915  11.247  0.00  0.00    +0.000 C 
BRANCH   7   8
ATOM      8  N   UNL     1      43.936   3.599  10.758  0.00  0.00    +0.000 N 
ATOM      9  H   UNL     1      44.147   2.965  11.524  0.00  0.00    +0.000 HD
BRANCH   8  14
ATOM     10  C   UNL     1      46.069   1.978   8.196  0.00  0.00    +0.000 A 
ATOM     11  C   UNL     1      46.483   3.063   7.424  0.00  0.00    +0.000 A 
ATOM     12  C   UNL     1      46.064   4.346   7.767  0.00  0.00    +0.000 A 
ATOM     13  C   UNL     1      45.242   4.545   8.886  0.00  0.00    +0.000 A 
ATOM     14  C   UNL     1      44.836   3.474   9.694  0.00  0.00    +0.000 A 
ATOM     15  C   UNL     1      45.243   2.186   9.310  0.00  0.00    +0.000 A 
BRANCH  10  17
ATOM     16  N   UNL     1      46.819  -0.429   7.575  0.00  0.00    +0.000 NA
ATOM     17  C   UNL     1      46.483   0.651   7.851  0.00  0.00    +0.000 C 
ENDBRANCH  10  17
ENDBRANCH   8  14
ENDBRANCH   7   8
ENDBRANCH   1   7
BRANCH   4  18
ATOM     18  C   UNL     1      48.208   7.656  13.526  0.00  0.00    +0.000 C 
BRANCH  18  19
ATOM     19  N   UNL     1      48.857   6.841  14.523  0.00  0.00    +0.000 N 
ATOM     20  C   UNL     1      48.822   7.169  15.856  0.00  0.00    +0.000 C 
ATOM     21  O   UNL     1      48.223   8.156  16.275  0.00  0.00    +0.000 OA
ATOM     22  H   UNL     1      49.578   6.208  14.194  0.00  0.00    +0.000 HD
BRANCH  20  23
ATOM     23  C   UNL     1      49.488   6.230  16.770  0.00  0.00    +0.000 A 
ATOM     24  C   UNL     1      48.736   5.464  17.652  0.00  0.00    +0.000 A 
ATOM     25  S   UNL     1      49.673   4.397  18.599  0.00  0.00    +0.000 S 
ATOM     26  C   UNL     1      51.119   4.959  17.901  0.00  0.00    +0.000 A 
ATOM     27  N   UNL     1      52.326   4.470  18.297  0.00  0.00    +0.000 NA
ATOM     28  C   UNL     1      53.340   5.006  17.703  0.00  0.00    +0.000 A 
ATOM     29  N   UNL     1      53.257   5.979  16.742  0.00  0.00    +0.000 N 
ATOM     30  C   UNL     1      52.060   6.474  16.283  0.00  0.00    +0.000 A 
ATOM     31  O   UNL     1      52.019   7.299  15.375  0.00  0.00    +0.000 OA
ATOM     32  C   UNL     1      50.889   5.925  16.938  0.00  0.00    +0.000 A 
ATOM     33  H   UNL     1      54.087   6.346  16.302  0.00  0.00    +0.000 HD
ENDBRANCH  20  23
ENDBRANCH  18  19
ENDBRANCH   4  18
TORSDOF 7
ENDMDL
MODEL 7
REMARK VINA RESULT:    -7.043      3.687      4.994
REMARK INTER + INTRA:         -10.956
REMARK INTER:                 -10.017
REMARK INTRA:                  -0.939
REMARK UNBOUND:                -1.031
REMARK  Name = 
REMARK  7 active torsions:
REMARK  status: ('A' for Active; 'I' for Inactive)
REMARK    1  A    between atoms: C_2  and  C_3
REMARK    2  A    between atoms: C_7  and  N_8
REMARK    3  A    between atoms: N_8  and  C_9
REMARK    4  A    between atoms: C_9  and  C_10
REMARK    5  A    between atoms: C_13  and  C_14
REMARK    6  A    between atoms: C_14  and  N_15
REMARK    7  A    between atoms: C_16  and  C_18
REMARK                            x       y       z     vdW  Elec       q    Type
REMARK                         _______ _______ _______ _____ _____    ______ ____
ROOT
ATOM      1  C   UNL     1      44.909   5.413  11.583  0.00  0.00    +0.000 A 
ATOM      2  C   UNL     1      45.565   6.634  11.366  0.00  0.00    +0.000 A 
ATOM      3  C   UNL     1      46.648   7.022  12.173  0.00  0.00    +0.000 A 
ATOM      4  C   UNL     1      47.118   6.186  13.194  0.00  0.00    +0.000 A 
ATOM      5  C   UNL     1      46.463   4.964  13.406  0.00  0.00    +0.000 A 
ATOM      6  C   UNL     1      45.381   4.579  12.605  0.00  0.00    +0.000 A 
ENDROOT
BRANCH   1   7
ATOM      7  C   UNL     1      43.720   4.994  10.738  0.00  0.00    +0.000 C 
BRANCH   7   8
ATOM      8  N   UNL     1      43.929   3.648  10.216  0.00  0.00    +0.000 N 
ATOM      9  H   UNL     1      43.915   2.954  10.959  0.00  0.00    +0.000 HD
BRANCH   8  14
ATOM     10  C   UNL     1      46.212   1.736   8.008  0.00  0.00    +0.000 A 
ATOM     11  C   UNL     1      46.777   2.740   7.224  0.00  0.00    +0.000 A 
ATOM     12  C   UNL     1      46.409   4.066   7.441  0.00  0.00    +0.000 A 
ATOM     13  C   UNL     1      45.487   4.388   8.448  0.00  0.00    +0.000 A 
ATOM     14  C   UNL     1      44.928   3.399   9.268  0.00  0.00    +0.000 A 
ATOM     15  C   UNL     1      45.287   2.067   9.009  0.00  0.00    +0.000 A 
BRANCH  10  17
ATOM     16  N   UNL     1      46.859  -0.747   7.613  0.00  0.00    +0.000 NA
ATOM     17  C   UNL     1      46.571   0.367   7.791  0.00  0.00    +0.000 C 
ENDBRANCH  10  17
ENDBRANCH   8  14
ENDBRANCH   7   8
ENDBRANCH   1   7
BRANCH   4  18
ATOM     18  C   UNL     1      48.294   6.577  14.059  0.00  0.00    +0.000 C 
BRANCH  18  19
ATOM     19  N   UNL     1      49.429   6.989  13.272  0.00  0.00    +0.000 N 
ATOM     20  C   UNL     1      49.950   8.257  13.365  0.00  0.00    +0.000 C 
ATOM     21  O   UNL     1      49.494   9.100  14.134  0.00  0.00    +0.000 OA
ATOM     22  H   UNL     1      49.637   6.436  12.448  0.00  0.00    +0.000 HD
BRANCH  20  23
ATOM     23  C   UNL     1      51.134   8.532  12.539  0.00  0.00    +0.000 A 
ATOM     24  C   UNL     1      50.984   8.879  11.202  0.00  0.00    +0.000 A 
ATOM     25  S   UNL     1      52.463   9.210  10.415  0.00  0.00    +0.000 S 
ATOM     26  C   UNL     1      53.355   8.848  11.817  0.00  0.00    +0.000 A 
ATOM     27  N   UNL     1      54.714   8.904  11.818  0.00  0.00    +0.000 NA
ATOM     28  C   UNL     1      55.261   8.578  12.942  0.00  0.00    +0.000 A 
ATOM     29  N   UNL     1      54.572   8.210  14.068  0.00  0.00    +0.000 N 
ATOM     30  C   UNL     1      53.200   8.179  14.126  0.00  0.00    +0.000 A 
ATOM     31  O   UNL     1      52.613   7.908  15.169  0.00  0.00    +0.000 OA
ATOM     32  C   UNL     1      52.536   8.510  12.880  0.00  0.00    +0.000 A 
ATOM     33  H   UNL     1      55.058   7.984  14.923  0.00  0.00    +0.000 HD
ENDBRANCH  20  23
ENDBRANCH  18  19
ENDBRANCH   4  18
TORSDOF 7
ENDMDL
MODEL 8
REMARK VINA RESULT:    -6.898      3.341      5.403
REMARK INTER + INTRA:         -10.753
REMARK INTER:                  -9.786
REMARK INTRA:                  -0.967
REMARK UNBOUND:                -1.031
REMARK  Name = 
REMARK  7 active torsions:
REMARK  status: ('A' for Active; 'I' for Inactive)
REMARK    1  A    between atoms: C_2  and  C_3
REMARK    2  A    between atoms: C_7  and  N_8
REMARK    3  A    between atoms: N_8  and  C_9
REMARK    4  A    between atoms: C_9  and  C_10
REMARK    5  A    between atoms: C_13  and  C_14
REMARK    6  A    between atoms: C_14  and  N_15
REMARK    7  A    between atoms: C_16  and  C_18
REMARK                            x       y       z     vdW  Elec       q    Type
REMARK                         _______ _______ _______ _____ _____    ______ ____
ROOT
ATOM      1  C   UNL     1      44.809   5.226  11.835  0.00  0.00    +0.000 A 
ATOM      2  C   UNL     1      45.527   4.235  12.521  0.00  0.00    +0.000 A 
ATOM      3  C   UNL     1      46.618   4.573  13.339  0.00  0.00    +0.000 A 
ATOM      4  C   UNL     1      46.996   5.911  13.514  0.00  0.00    +0.000 A 
ATOM      5  C   UNL     1      46.275   6.900  12.830  0.00  0.00    +0.000 A 
ATOM      6  C   UNL     1      45.190   6.563  12.011  0.00  0.00    +0.000 A 
ENDROOT
BRANCH   1   7
ATOM      7  C   UNL     1      43.646   4.874  10.926  0.00  0.00    +0.000 C 
BRANCH   7   8
ATOM      8  N   UNL     1      43.858   3.559  10.331  0.00  0.00    +0.000 N 
ATOM      9  H   UNL     1      43.869   2.828  11.039  0.00  0.00    +0.000 HD
BRANCH   8  14
ATOM     10  C   UNL     1      46.151   1.788   8.018  0.00  0.00    +0.000 A 
ATOM     11  C   UNL     1      46.650   2.831   7.239  0.00  0.00    +0.000 A 
ATOM     12  C   UNL     1      46.235   4.135   7.495  0.00  0.00    +0.000 A 
ATOM     13  C   UNL     1      45.331   4.398   8.535  0.00  0.00    +0.000 A 
ATOM     14  C   UNL     1      44.837   3.371   9.349  0.00  0.00    +0.000 A 
ATOM     15  C   UNL     1      45.243   2.060   9.052  0.00  0.00    +0.000 A 
BRANCH  10  17
ATOM     16  N   UNL     1      46.898  -0.655   7.553  0.00  0.00    +0.000 NA
ATOM     17  C   UNL     1      46.560   0.440   7.762  0.00  0.00    +0.000 C 
ENDBRANCH  10  17
ENDBRANCH   8  14
ENDBRANCH   7   8
ENDBRANCH   1   7
BRANCH   4  18
ATOM     18  C   UNL     1      48.155   6.296  14.405  0.00  0.00    +0.000 C 
BRANCH  18  19
ATOM     19  N   UNL     1      49.124   7.105  13.709  0.00  0.00    +0.000 N 
ATOM     20  C   UNL     1      49.570   8.298  14.223  0.00  0.00    +0.000 C 
ATOM     21  O   UNL     1      49.187   8.731  15.307  0.00  0.00    +0.000 OA
ATOM     22  H   UNL     1      49.236   6.930  12.716  0.00  0.00    +0.000 HD
BRANCH  20  23
ATOM     23  C   UNL     1      50.590   9.002  13.432  0.00  0.00    +0.000 A 
ATOM     24  C   UNL     1      51.932   8.900  13.777  0.00  0.00    +0.000 A 
ATOM     25  S   UNL     1      52.974   9.742  12.719  0.00  0.00    +0.000 S 
ATOM     26  C   UNL     1      51.664  10.315  11.796  0.00  0.00    +0.000 A 
ATOM     27  N   UNL     1      51.864  11.137  10.730  0.00  0.00    +0.000 NA
ATOM     28  C   UNL     1      50.780  11.516  10.138  0.00  0.00    +0.000 A 
ATOM     29  N   UNL     1      49.515  11.139  10.509  0.00  0.00    +0.000 N 
ATOM     30  C   UNL     1      49.269  10.279  11.552  0.00  0.00    +0.000 A 
ATOM     31  O   UNL     1      48.129   9.911  11.816  0.00  0.00    +0.000 OA
ATOM     32  C   UNL     1      50.452   9.845  12.269  0.00  0.00    +0.000 A 
ATOM     33  H   UNL     1      48.708  11.455   9.994  0.00  0.00    +0.000 HD
ENDBRANCH  20  23
ENDBRANCH  18  19
ENDBRANCH   4  18
TORSDOF 7
ENDMDL
MODEL 9
REMARK VINA RESULT:    -6.853      3.352      4.711
REMARK INTER + INTRA:         -10.689
REMARK INTER:                  -9.749
REMARK INTRA:                  -0.940
REMARK UNBOUND:                -1.031
REMARK  Name = 
REMARK  7 active torsions:
REMARK  status: ('A' for Active; 'I' for Inactive)
REMARK    1  A    between atoms: C_2  and  C_3
REMARK    2  A    between atoms: C_7  and  N_8
REMARK    3  A    between atoms: N_8  and  C_9
REMARK    4  A    between atoms: C_9  and  C_10
REMARK    5  A    between atoms: C_13  and  C_14
REMARK    6  A    between atoms: C_14  and  N_15
REMARK    7  A    between atoms: C_16  and  C_18
REMARK                            x       y       z     vdW  Elec       q    Type
REMARK                         _______ _______ _______ _____ _____    ______ ____
ROOT
ATOM      1  C   UNL     1      47.358   6.224  13.610  0.00  0.00    +0.000 A 
ATOM      2  C   UNL     1      46.804   4.999  14.013  0.00  0.00    +0.000 A 
ATOM      3  C   UNL     1      47.179   4.404  15.228  0.00  0.00    +0.000 A 
ATOM      4  C   UNL     1      48.094   5.033  16.083  0.00  0.00    +0.000 A 
ATOM      5  C   UNL     1      48.645   6.258  15.681  0.00  0.00    +0.000 A 
ATOM      6  C   UNL     1      48.274   6.850  14.467  0.00  0.00    +0.000 A 
ENDROOT
BRANCH   1   7
ATOM      7  C   UNL     1      46.983   6.865  12.287  0.00  0.00    +0.000 C 
BRANCH   7   8
ATOM      8  N   UNL     1      45.544   6.760  12.072  0.00  0.00    +0.000 N 
ATOM      9  H   UNL     1      45.029   6.872  12.941  0.00  0.00    +0.000 HD
BRANCH   8  14
ATOM     10  C   UNL     1      45.245   4.405   9.224  0.00  0.00    +0.000 A 
ATOM     11  C   UNL     1      44.191   3.586   9.625  0.00  0.00    +0.000 A 
ATOM     12  C   UNL     1      43.562   3.828  10.844  0.00  0.00    +0.000 A 
ATOM     13  C   UNL     1      43.980   4.894  11.656  0.00  0.00    +0.000 A 
ATOM     14  C   UNL     1      45.018   5.748  11.261  0.00  0.00    +0.000 A 
ATOM     15  C   UNL     1      45.659   5.465  10.044  0.00  0.00    +0.000 A 
BRANCH  10  17
ATOM     16  N   UNL     1      46.445   3.963   6.965  0.00  0.00    +0.000 NA
ATOM     17  C   UNL     1      45.908   4.164   7.978  0.00  0.00    +0.000 C 
ENDBRANCH  10  17
ENDBRANCH   8  14
ENDBRANCH   7   8
ENDBRANCH   1   7
BRANCH   4  18
ATOM     18  C   UNL     1      48.496   4.418  17.403  0.00  0.00    +0.000 C 
BRANCH  18  19
ATOM     19  N   UNL     1      49.882   4.020  17.413  0.00  0.00    +0.000 N 
ATOM     20  C   UNL     1      50.688   4.237  18.504  0.00  0.00    +0.000 C 
ATOM     21  O   UNL     1      50.271   4.760  19.535  0.00  0.00    +0.000 OA
ATOM     22  H   UNL     1      50.316   3.860  16.510  0.00  0.00    +0.000 HD
BRANCH  20  23
ATOM     23  C   UNL     1      52.068   3.744  18.397  0.00  0.00    +0.000 A 
ATOM     24  C   UNL     1      53.130   4.565  18.756  0.00  0.00    +0.000 A 
ATOM     25  S   UNL     1      54.654   3.809  18.613  0.00  0.00    +0.000 S 
ATOM     26  C   UNL     1      53.951   2.379  18.017  0.00  0.00    +0.000 A 
ATOM     27  N   UNL     1      54.720   1.315  17.659  0.00  0.00    +0.000 NA
ATOM     28  C   UNL     1      54.056   0.307  17.198  0.00  0.00    +0.000 A 
ATOM     29  N   UNL     1      52.693   0.263  17.071  0.00  0.00    +0.000 N 
ATOM     30  C   UNL     1      51.874   1.297  17.457  0.00  0.00    +0.000 A 
ATOM     31  O   UNL     1      50.652   1.199  17.390  0.00  0.00    +0.000 OA
ATOM     32  C   UNL     1      52.572   2.466  17.957  0.00  0.00    +0.000 A 
ATOM     33  H   UNL     1      52.230  -0.562  16.720  0.00  0.00    +0.000 HD
ENDBRANCH  20  23
ENDBRANCH  18  19
ENDBRANCH   4  18
TORSDOF 7
ENDMDL
