MODEL 1
REMARK VINA RESULT:    -8.472      0.000      0.000
REMARK INTER + INTRA:         -13.765
REMARK INTER:                 -12.930
REMARK INTRA:                  -0.835
REMARK UNBOUND:                -0.835
REMARK  Name = 
REMARK  10 active torsions:
REMARK  status: ('A' for Active; 'I' for Inactive)
REMARK    1  A    between atoms: C_1  and  C_2
REMARK    2  A    between atoms: C_2  and  C_3
REMARK    3  A    between atoms: C_3  and  N_4
REMARK    4  A    between atoms: C_3  and  C_21
REMARK    5  A    between atoms: N_4  and  C_5
REMARK    6  A    between atoms: C_5  and  C_6
REMARK    7  A    between atoms: C_9  and  C_10
REMARK    8  A    between atoms: C_10  and  N_11
REMARK    9  A    between atoms: N_11  and  C_12
REMARK   10  A    between atoms: C_12  and  C_13
REMARK                            x       y       z     vdW  Elec       q    Type
REMARK                         _______ _______ _______ _____ _____    ______ ____
ROOT
ATOM      1  C   UNL     1      48.754   6.236  14.785  0.00  0.00    +0.000 C 
ENDROOT
BRANCH   1   2
ATOM      2  C   UNL     1      47.732   5.975  13.705  0.00  0.00    +0.000 A 
ATOM      3  C   UNL     1      46.761   4.976  13.852  0.00  0.00    +0.000 A 
ATOM      4  C   UNL     1      45.813   4.762  12.851  0.00  0.00    +0.000 A 
ATOM      5  C   UNL     1      45.804   5.551  11.691  0.00  0.00    +0.000 A 
ATOM      6  C   UNL     1      46.763   6.559  11.551  0.00  0.00    +0.000 A 
ATOM      7  C   UNL     1      47.720   6.765  12.545  0.00  0.00    +0.000 A 
BRANCH   5   8
ATOM      8  C   UNL     1      44.783   5.305  10.609  0.00  0.00    +0.000 C 
BRANCH   8   9
ATOM      9  N   UNL     1      45.440   5.044   9.334  0.00  0.00    +0.000 NA
ATOM     10  H   UNL     1      46.421   4.825   9.505  0.00  0.00    +0.000 HD
BRANCH   9  11
ATOM     11  C   UNL     1      44.812   3.940   8.622  0.00  0.00    +0.000 C 
BRANCH  11  12
ATOM     12  C   UNL     1      45.868   3.044   8.024  0.00  0.00    +0.000 A 
ATOM     13  C   UNL     1      46.839   3.552   7.158  0.00  0.00    +0.000 A 
ATOM     14  C   UNL     1      47.769   2.676   6.621  0.00  0.00    +0.000 A 
ATOM     15  N   UNL     1      47.798   1.351   6.884  0.00  0.00    +0.000 NA
ATOM     16  C   UNL     1      46.852   0.882   7.722  0.00  0.00    +0.000 A 
ATOM     17  C   UNL     1      45.884   1.676   8.313  0.00  0.00    +0.000 A 
ENDBRANCH  11  12
ENDBRANCH   9  11
ENDBRANCH   8   9
ENDBRANCH   5   8
ENDBRANCH   1   2
BRANCH   1  18
ATOM     18  N   UNL     1      48.174   6.134  16.121  0.00  0.00    +0.000 NA
ATOM     19  H   UNL     1      48.609   6.821  16.734  0.00  0.00    +0.000 HD
BRANCH  18  20
ATOM     20  C   UNL     1      48.263   4.808  16.745  0.00  0.00    +0.000 C 
BRANCH  20  21
ATOM     21  C   UNL     1      49.633   4.661  17.391  0.00  0.00    +0.000 A 
ATOM     22  C   UNL     1      50.305   5.680  18.053  0.00  0.00    +0.000 A 
ATOM     23  S   UNL     1      51.849   5.226  18.614  0.00  0.00    +0.000 S 
ATOM     24  C   UNL     1      51.664   3.645  18.012  0.00  0.00    +0.000 A 
ATOM     25  N   UNL     1      52.648   2.722  18.172  0.00  0.00    +0.000 NA
ATOM     26  C   UNL     1      52.378   1.571  17.652  0.00  0.00    +0.000 A 
ATOM     27  N   UNL     1      51.216   1.260  16.991  0.00  0.00    +0.000 N 
ATOM     28  C   UNL     1      50.177   2.154  16.829  0.00  0.00    +0.000 A 
ATOM     29  O   UNL     1      49.128   1.808  16.293  0.00  0.00    +0.000 OA
ATOM     30  C   UNL     1      50.444   3.467  17.385  0.00  0.00    +0.000 A 
ATOM     31  H   UNL     1      51.063   0.332  16.624  0.00  0.00    +0.000 HD
ENDBRANCH  20  21
BRANCH  20  33
ATOM     32  C   UNL     1      46.799   5.494  18.761  0.00  0.00    +0.000 C 
ATOM     33  C   UNL     1      47.105   4.443  17.704  0.00  0.00    +0.000 C 
ENDBRANCH  20  33
ENDBRANCH  18  20
ENDBRANCH   1  18
TORSDOF 9
ENDMDL
MODEL 2
REMARK VINA RESULT:    -8.025      2.248      3.314
REMARK INTER + INTRA:         -13.082
REMARK INTER:                 -11.903
REMARK INTRA:                  -1.179
REMARK UNBOUND:                -0.835
REMARK  Name = 
REMARK  10 active torsions:
REMARK  status: ('A' for Active; 'I' for Inactive)
REMARK    1  A    between atoms: C_1  and  C_2
REMARK    2  A    between atoms: C_2  and  C_3
REMARK    3  A    between atoms: C_3  and  N_4
REMARK    4  A    between atoms: C_3  and  C_21
REMARK    5  A    between atoms: N_4  and  C_5
REMARK    6  A    between atoms: C_5  and  C_6
REMARK    7  A    between atoms: C_9  and  C_10
REMARK    8  A    between atoms: C_10  and  N_11
REMARK    9  A    between atoms: N_11  and  C_12
REMARK   10  A    between atoms: C_12  and  C_13
REMARK                            x       y       z     vdW  Elec       q    Type
REMARK                         _______ _______ _______ _____ _____    ______ ____
ROOT
ATOM      1  C   UNL     1      47.478   5.411  14.552  0.00  0.00    +0.000 C 
ENDROOT
BRANCH   1   2
ATOM      2  C   UNL     1      46.464   5.132  13.469  0.00  0.00    +0.000 A 
ATOM      3  C   UNL     1      45.831   6.176  12.782  0.00  0.00    +0.000 A 
ATOM      4  C   UNL     1      44.910   5.898  11.771  0.00  0.00    +0.000 A 
ATOM      5  C   UNL     1      44.615   4.574  11.414  0.00  0.00    +0.000 A 
ATOM      6  C   UNL     1      45.258   3.531  12.089  0.00  0.00    +0.000 A 
ATOM      7  C   UNL     1      46.169   3.808  13.109  0.00  0.00    +0.000 A 
BRANCH   5   8
ATOM      8  C   UNL     1      43.609   4.282  10.328  0.00  0.00    +0.000 C 
BRANCH   8   9
ATOM      9  N   UNL     1      44.140   3.301   9.390  0.00  0.00    +0.000 NA
ATOM     10  H   UNL     1      43.367   2.763   8.998  0.00  0.00    +0.000 HD
BRANCH   9  11
ATOM     11  C   UNL     1      44.885   3.936   8.312  0.00  0.00    +0.000 C 
BRANCH  11  12
ATOM     12  C   UNL     1      45.929   2.989   7.778  0.00  0.00    +0.000 A 
ATOM     13  C   UNL     1      46.870   3.408   6.834  0.00  0.00    +0.000 A 
ATOM     14  C   UNL     1      47.791   2.486   6.363  0.00  0.00    +0.000 A 
ATOM     15  N   UNL     1      47.838   1.196   6.761  0.00  0.00    +0.000 NA
ATOM     16  C   UNL     1      46.921   0.811   7.673  0.00  0.00    +0.000 A 
ATOM     17  C   UNL     1      45.965   1.658   8.207  0.00  0.00    +0.000 A 
ENDBRANCH  11  12
ENDBRANCH   9  11
ENDBRANCH   8   9
ENDBRANCH   5   8
ENDBRANCH   1   2
BRANCH   1  18
ATOM     18  N   UNL     1      47.123   4.764  15.812  0.00  0.00    +0.000 NA
ATOM     19  H   UNL     1      46.459   5.347  16.317  0.00  0.00    +0.000 HD
BRANCH  18  20
ATOM     20  C   UNL     1      48.252   4.445  16.695  0.00  0.00    +0.000 C 
BRANCH  20  21
ATOM     21  C   UNL     1      48.306   5.476  17.812  0.00  0.00    +0.000 A 
ATOM     22  C   UNL     1      47.431   5.518  18.889  0.00  0.00    +0.000 A 
ATOM     23  S   UNL     1      47.706   6.828  19.943  0.00  0.00    +0.000 S 
ATOM     24  C   UNL     1      49.021   7.374  19.010  0.00  0.00    +0.000 A 
ATOM     25  N   UNL     1      49.722   8.478  19.377  0.00  0.00    +0.000 NA
ATOM     26  C   UNL     1      50.681   8.783  18.569  0.00  0.00    +0.000 A 
ATOM     27  N   UNL     1      51.003   8.086  17.431  0.00  0.00    +0.000 N 
ATOM     28  C   UNL     1      50.340   6.943  17.033  0.00  0.00    +0.000 A 
ATOM     29  O   UNL     1      50.711   6.313  16.047  0.00  0.00    +0.000 OA
ATOM     30  C   UNL     1      49.243   6.571  17.905  0.00  0.00    +0.000 A 
ATOM     31  H   UNL     1      51.780   8.372  16.853  0.00  0.00    +0.000 HD
ENDBRANCH  20  21
BRANCH  20  33
ATOM     32  C   UNL     1      49.700   2.418  17.382  0.00  0.00    +0.000 C 
ATOM     33  C   UNL     1      48.300   2.990  17.217  0.00  0.00    +0.000 C 
ENDBRANCH  20  33
ENDBRANCH  18  20
ENDBRANCH   1  18
TORSDOF 9
ENDMDL
MODEL 3
REMARK VINA RESULT:    -7.942      2.193      3.179
REMARK INTER + INTRA:         -12.956
REMARK INTER:                 -11.762
REMARK INTRA:                  -1.194
REMARK UNBOUND:                -0.835
REMARK  Name = 
REMARK  10 active torsions:
REMARK  status: ('A' for Active; 'I' for Inactive)
REMARK    1  A    between atoms: C_1  and  C_2
REMARK    2  A    between atoms: C_2  and  C_3
REMARK    3  A    between atoms: C_3  and  N_4
REMARK    4  A    between atoms: C_3  and  C_21
REMARK    5  A    between atoms: N_4  and  C_5
REMARK    6  A    between atoms: C_5  and  C_6
REMARK    7  A    between atoms: C_9  and  C_10
REMARK    8  A    between atoms: C_10  and  N_11
REMARK    9  A    between atoms: N_11  and  C_12
REMARK   10  A    between atoms: C_12  and  C_13
REMARK                            x       y       z     vdW  Elec       q    Type
REMARK                         _______ _______ _______ _____ _____    ______ ____
ROOT
ATOM      1  C   UNL     1      47.475   5.729  14.535  0.00  0.00    +0.000 C 
ENDROOT
BRANCH   1   2
ATOM      2  C   UNL     1      46.429   5.173  13.600  0.00  0.00    +0.000 A 
ATOM      3  C   UNL     1      45.454   6.002  13.028  0.00  0.00    +0.000 A 
ATOM      4  C   UNL     1      44.506   5.473  12.151  0.00  0.00    +0.000 A 
ATOM      5  C   UNL     1      44.522   4.111  11.813  0.00  0.00    +0.000 A 
ATOM      6  C   UNL     1      45.505   3.287  12.371  0.00  0.00    +0.000 A 
ATOM      7  C   UNL     1      46.444   3.812  13.259  0.00  0.00    +0.000 A 
BRANCH   5   8
ATOM      8  C   UNL     1      43.487   3.546  10.873  0.00  0.00    +0.000 C 
BRANCH   8   9
ATOM      9  N   UNL     1      44.120   2.722   9.851  0.00  0.00    +0.000 NA
ATOM     10  H   UNL     1      43.429   2.080   9.466  0.00  0.00    +0.000 HD
BRANCH   9  11
ATOM     11  C   UNL     1      44.679   3.534   8.778  0.00  0.00    +0.000 C 
BRANCH  11  12
ATOM     12  C   UNL     1      45.794   2.785   8.092  0.00  0.00    +0.000 A 
ATOM     13  C   UNL     1      46.681   3.439   7.233  0.00  0.00    +0.000 A 
ATOM     14  C   UNL     1      47.672   2.693   6.613  0.00  0.00    +0.000 A 
ATOM     15  N   UNL     1      47.836   1.364   6.787  0.00  0.00    +0.000 NA
ATOM     16  C   UNL     1      46.969   0.752   7.620  0.00  0.00    +0.000 A 
ATOM     17  C   UNL     1      45.951   1.410   8.289  0.00  0.00    +0.000 A 
ENDBRANCH  11  12
ENDBRANCH   9  11
ENDBRANCH   8   9
ENDBRANCH   5   8
ENDBRANCH   1   2
BRANCH   1  18
ATOM     18  N   UNL     1      47.360   5.168  15.878  0.00  0.00    +0.000 NA
ATOM     19  H   UNL     1      47.151   5.912  16.541  0.00  0.00    +0.000 HD
BRANCH  18  20
ATOM     20  C   UNL     1      48.532   4.419  16.350  0.00  0.00    +0.000 C 
BRANCH  20  21
ATOM     21  C   UNL     1      49.282   5.272  17.362  0.00  0.00    +0.000 A 
ATOM     22  C   UNL     1      50.628   5.603  17.272  0.00  0.00    +0.000 A 
ATOM     23  S   UNL     1      51.196   6.517  18.592  0.00  0.00    +0.000 S 
ATOM     24  C   UNL     1      49.658   6.524  19.321  0.00  0.00    +0.000 A 
ATOM     25  N   UNL     1      49.453   7.160  20.504  0.00  0.00    +0.000 NA
ATOM     26  C   UNL     1      48.243   7.069  20.946  0.00  0.00    +0.000 A 
ATOM     27  N   UNL     1      47.223   6.403  20.314  0.00  0.00    +0.000 N 
ATOM     28  C   UNL     1      47.375   5.768  19.099  0.00  0.00    +0.000 A 
ATOM     29  O   UNL     1      46.415   5.247  18.537  0.00  0.00    +0.000 OA
ATOM     30  C   UNL     1      48.724   5.831  18.571  0.00  0.00    +0.000 A 
ATOM     31  H   UNL     1      46.293   6.388  20.709  0.00  0.00    +0.000 HD
ENDBRANCH  20  21
BRANCH  20  33
ATOM     32  C   UNL     1      49.477   2.103  16.997  0.00  0.00    +0.000 C 
ATOM     33  C   UNL     1      48.247   2.988  16.863  0.00  0.00    +0.000 C 
ENDBRANCH  20  33
ENDBRANCH  18  20
ENDBRANCH   1  18
TORSDOF 9
ENDMDL
MODEL 4
REMARK VINA RESULT:    -7.852      1.556      2.229
REMARK INTER + INTRA:         -12.818
REMARK INTER:                 -11.429
REMARK INTRA:                  -1.389
REMARK UNBOUND:                -0.835
REMARK  Name = 
REMARK  10 active torsions:
REMARK  status: ('A' for Active; 'I' for Inactive)
REMARK    1  A    between atoms: C_1  and  C_2
REMARK    2  A    between atoms: C_2  and  C_3
REMARK    3  A    between atoms: C_3  and  N_4
REMARK    4  A    between atoms: C_3  and  C_21
REMARK    5  A    between atoms: N_4  and  C_5
REMARK    6  A    between atoms: C_5  and  C_6
REMARK    7  A    between atoms: C_9  and  C_10
REMARK    8  A    between atoms: C_10  and  N_11
REMARK    9  A    between atoms: N_11  and  C_12
REMARK   10  A    between atoms: C_12  and  C_13
REMARK                            x       y       z     vdW  Elec       q    Type
REMARK                         _______ _______ _______ _____ _____    ______ ____
ROOT
ATOM      1  C   UNL     1      48.126   6.768  13.730  0.00  0.00    +0.000 C 
ENDROOT
BRANCH   1   2
ATOM      2  C   UNL     1      46.940   6.279  12.934  0.00  0.00    +0.000 A 
ATOM      3  C   UNL     1      46.739   6.687  11.609  0.00  0.00    +0.000 A 
ATOM      4  C   UNL     1      45.647   6.210  10.882  0.00  0.00    +0.000 A 
ATOM      5  C   UNL     1      44.744   5.303  11.457  0.00  0.00    +0.000 A 
ATOM      6  C   UNL     1      44.954   4.882  12.774  0.00  0.00    +0.000 A 
ATOM      7  C   UNL     1      46.037   5.369  13.506  0.00  0.00    +0.000 A 
BRANCH   5   8
ATOM      8  C   UNL     1      43.561   4.801  10.668  0.00  0.00    +0.000 C 
BRANCH   8   9
ATOM      9  N   UNL     1      43.984   4.324   9.358  0.00  0.00    +0.000 NA
ATOM     10  H   UNL     1      44.777   4.881   9.041  0.00  0.00    +0.000 HD
BRANCH   9  11
ATOM     11  C   UNL     1      44.363   2.918   9.394  0.00  0.00    +0.000 C 
BRANCH  11  12
ATOM     12  C   UNL     1      45.511   2.667   8.450  0.00  0.00    +0.000 A 
ATOM     13  C   UNL     1      46.032   1.383   8.271  0.00  0.00    +0.000 A 
ATOM     14  C   UNL     1      47.103   1.219   7.406  0.00  0.00    +0.000 A 
ATOM     15  N   UNL     1      47.680   2.228   6.718  0.00  0.00    +0.000 NA
ATOM     16  C   UNL     1      47.161   3.460   6.905  0.00  0.00    +0.000 A 
ATOM     17  C   UNL     1      46.091   3.725   7.742  0.00  0.00    +0.000 A 
ENDBRANCH  11  12
ENDBRANCH   9  11
ENDBRANCH   8   9
ENDBRANCH   5   8
ENDBRANCH   1   2
BRANCH   1  18
ATOM     18  N   UNL     1      48.294   6.019  14.973  0.00  0.00    +0.000 NA
ATOM     19  H   UNL     1      47.424   5.543  15.203  0.00  0.00    +0.000 HD
BRANCH  18  20
ATOM     20  C   UNL     1      48.729   6.811  16.130  0.00  0.00    +0.000 C 
BRANCH  20  21
ATOM     21  C   UNL     1      50.165   6.439  16.466  0.00  0.00    +0.000 A 
ATOM     22  C   UNL     1      51.273   7.224  16.176  0.00  0.00    +0.000 A 
ATOM     23  S   UNL     1      52.753   6.507  16.620  0.00  0.00    +0.000 S 
ATOM     24  C   UNL     1      51.966   5.132  17.239  0.00  0.00    +0.000 A 
ATOM     25  N   UNL     1      52.677   4.113  17.789  0.00  0.00    +0.000 NA
ATOM     26  C   UNL     1      51.950   3.129  18.203  0.00  0.00    +0.000 A 
ATOM     27  N   UNL     1      50.581   3.072  18.117  0.00  0.00    +0.000 N 
ATOM     28  C   UNL     1      49.814   4.092  17.594  0.00  0.00    +0.000 A 
ATOM     29  O   UNL     1      48.589   4.026  17.604  0.00  0.00    +0.000 OA
ATOM     30  C   UNL     1      50.592   5.214  17.102  0.00  0.00    +0.000 A 
ATOM     31  H   UNL     1      50.075   2.276  18.478  0.00  0.00    +0.000 HD
ENDBRANCH  20  21
BRANCH  20  33
ATOM     32  C   UNL     1      48.350   9.065  17.336  0.00  0.00    +0.000 C 
ATOM     33  C   UNL     1      48.518   8.339  16.009  0.00  0.00    +0.000 C 
ENDBRANCH  20  33
ENDBRANCH  18  20
ENDBRANCH   1  18
TORSDOF 9
ENDMDL
MODEL 5
REMARK VINA RESULT:    -7.722      2.135      3.203
REMARK INTER + INTRA:         -12.621
REMARK INTER:                 -11.575
REMARK INTRA:                  -1.045
REMARK UNBOUND:                -0.835
REMARK  Name = 
REMARK  10 active torsions:
REMARK  status: ('A' for Active; 'I' for Inactive)
REMARK    1  A    between atoms: C_1  and  C_2
REMARK    2  A    between atoms: C_2  and  C_3
REMARK    3  A    between atoms: C_3  and  N_4
REMARK    4  A    between atoms: C_3  and  C_21
REMARK    5  A    between atoms: N_4  and  C_5
REMARK    6  A    between atoms: C_5  and  C_6
REMARK    7  A    between atoms: C_9  and  C_10
REMARK    8  A    between atoms: C_10  and  N_11
REMARK    9  A    between atoms: N_11  and  C_12
REMARK   10  A    between atoms: C_12  and  C_13
REMARK                            x       y       z     vdW  Elec       q    Type
REMARK                         _______ _______ _______ _____ _____    ______ ____
ROOT
ATOM      1  C   UNL     1      48.210   6.662  13.501  0.00  0.00    +0.000 C 
ENDROOT
BRANCH   1   2
ATOM      2  C   UNL     1      47.045   6.025  12.782  0.00  0.00    +0.000 A 
ATOM      3  C   UNL     1      46.430   6.659  11.695  0.00  0.00    +0.000 A 
ATOM      4  C   UNL     1      45.366   6.046  11.031  0.00  0.00    +0.000 A 
ATOM      5  C   UNL     1      44.906   4.781  11.429  0.00  0.00    +0.000 A 
ATOM      6  C   UNL     1      45.530   4.141  12.504  0.00  0.00    +0.000 A 
ATOM      7  C   UNL     1      46.585   4.759  13.177  0.00  0.00    +0.000 A 
BRANCH   5   8
ATOM      8  C   UNL     1      43.749   4.131  10.713  0.00  0.00    +0.000 C 
BRANCH   8   9
ATOM      9  N   UNL     1      44.227   3.121   9.778  0.00  0.00    +0.000 NA
ATOM     10  H   UNL     1      43.464   2.482   9.558  0.00  0.00    +0.000 HD
BRANCH   9  11
ATOM     11  C   UNL     1      44.727   3.721   8.549  0.00  0.00    +0.000 C 
BRANCH  11  12
ATOM     12  C   UNL     1      45.804   2.852   7.950  0.00  0.00    +0.000 A 
ATOM     13  C   UNL     1      45.898   1.495   8.269  0.00  0.00    +0.000 A 
ATOM     14  C   UNL     1      46.923   0.752   7.705  0.00  0.00    +0.000 A 
ATOM     15  N   UNL     1      47.845   1.259   6.858  0.00  0.00    +0.000 NA
ATOM     16  C   UNL     1      47.736   2.571   6.563  0.00  0.00    +0.000 A 
ATOM     17  C   UNL     1      46.746   3.395   7.070  0.00  0.00    +0.000 A 
ENDBRANCH  11  12
ENDBRANCH   9  11
ENDBRANCH   8   9
ENDBRANCH   5   8
ENDBRANCH   1   2
BRANCH   1  18
ATOM     18  N   UNL     1      47.903   6.936  14.902  0.00  0.00    +0.000 NA
ATOM     19  H   UNL     1      47.015   7.430  14.964  0.00  0.00    +0.000 HD
BRANCH  18  20
ATOM     20  C   UNL     1      48.927   7.693  15.633  0.00  0.00    +0.000 C 
BRANCH  20  21
ATOM     21  C   UNL     1      48.666   7.553  17.125  0.00  0.00    +0.000 A 
ATOM     22  C   UNL     1      48.415   8.614  17.985  0.00  0.00    +0.000 A 
ATOM     23  S   UNL     1      48.225   8.144  19.612  0.00  0.00    +0.000 S 
ATOM     24  C   UNL     1      48.449   6.503  19.222  0.00  0.00    +0.000 A 
ATOM     25  N   UNL     1      48.397   5.547  20.186  0.00  0.00    +0.000 NA
ATOM     26  C   UNL     1      48.599   4.349  19.749  0.00  0.00    +0.000 A 
ATOM     27  N   UNL     1      48.846   4.021  18.439  0.00  0.00    +0.000 N 
ATOM     28  C   UNL     1      48.880   4.952  17.421  0.00  0.00    +0.000 A 
ATOM     29  O   UNL     1      49.033   4.602  16.255  0.00  0.00    +0.000 OA
ATOM     30  C   UNL     1      48.672   6.316  17.870  0.00  0.00    +0.000 A 
ATOM     31  H   UNL     1      48.978   3.058  18.164  0.00  0.00    +0.000 HD
ENDBRANCH  20  21
BRANCH  20  33
ATOM     32  C   UNL     1      51.287   8.600  15.097  0.00  0.00    +0.000 C 
ATOM     33  C   UNL     1      50.392   7.378  15.247  0.00  0.00    +0.000 C 
ENDBRANCH  20  33
ENDBRANCH  18  20
ENDBRANCH   1  18
TORSDOF 9
ENDMDL
MODEL 6
REMARK VINA RESULT:    -7.685      2.606      3.833
REMARK INTER + INTRA:         -12.564
REMARK INTER:                 -11.313
REMARK INTRA:                  -1.250
REMARK UNBOUND:                -0.835
REMARK  Name = 
REMARK  10 active torsions:
REMARK  status: ('A' for Active; 'I' for Inactive)
REMARK    1  A    between atoms: C_1  and  C_2
REMARK    2  A    between atoms: C_2  and  C_3
REMARK    3  A    between atoms: C_3  and  N_4
REMARK    4  A    between atoms: C_3  and  C_21
REMARK    5  A    between atoms: N_4  and  C_5
REMARK    6  A    between atoms: C_5  and  C_6
REMARK    7  A    between atoms: C_9  and  C_10
REMARK    8  A    between atoms: C_10  and  N_11
REMARK    9  A    between atoms: N_11  and  C_12
REMARK   10  A    between atoms: C_12  and  C_13
REMARK                            x       y       z     vdW  Elec       q    Type
REMARK                         _______ _______ _______ _____ _____    ______ ____
ROOT
ATOM      1  C   UNL     1      48.221   6.536  13.597  0.00  0.00    +0.000 C 
ENDROOT
BRANCH   1   2
ATOM      2  C   UNL     1      47.026   6.081  12.793  0.00  0.00    +0.000 A 
ATOM      3  C   UNL     1      46.761   6.614  11.525  0.00  0.00    +0.000 A 
ATOM      4  C   UNL     1      45.662   6.168  10.789  0.00  0.00    +0.000 A 
ATOM      5  C   UNL     1      44.817   5.169  11.296  0.00  0.00    +0.000 A 
ATOM      6  C   UNL     1      45.091   4.626  12.556  0.00  0.00    +0.000 A 
ATOM      7  C   UNL     1      46.181   5.081  13.298  0.00  0.00    +0.000 A 
BRANCH   5   8
ATOM      8  C   UNL     1      43.625   4.701  10.499  0.00  0.00    +0.000 C 
BRANCH   8   9
ATOM      9  N   UNL     1      44.036   4.277   9.166  0.00  0.00    +0.000 NA
ATOM     10  H   UNL     1      44.843   4.829   8.876  0.00  0.00    +0.000 HD
BRANCH   9  11
ATOM     11  C   UNL     1      44.378   2.862   9.135  0.00  0.00    +0.000 C 
BRANCH  11  12
ATOM     12  C   UNL     1      45.589   2.643   8.263  0.00  0.00    +0.000 A 
ATOM     13  C   UNL     1      46.165   1.377   8.131  0.00  0.00    +0.000 A 
ATOM     14  C   UNL     1      47.290   1.242   7.334  0.00  0.00    +0.000 A 
ATOM     15  N   UNL     1      47.873   2.264   6.671  0.00  0.00    +0.000 NA
ATOM     16  C   UNL     1      47.301   3.478   6.811  0.00  0.00    +0.000 A 
ATOM     17  C   UNL     1      46.174   3.714   7.580  0.00  0.00    +0.000 A 
ENDBRANCH  11  12
ENDBRANCH   9  11
ENDBRANCH   8   9
ENDBRANCH   5   8
ENDBRANCH   1   2
BRANCH   1  18
ATOM     18  N   UNL     1      48.291   5.870  14.894  0.00  0.00    +0.000 NA
ATOM     19  H   UNL     1      47.355   5.596  15.186  0.00  0.00    +0.000 HD
BRANCH  18  20
ATOM     20  C   UNL     1      48.921   6.649  15.968  0.00  0.00    +0.000 C 
BRANCH  20  21
ATOM     21  C   UNL     1      48.758   5.897  17.280  0.00  0.00    +0.000 A 
ATOM     22  C   UNL     1      49.004   4.541  17.447  0.00  0.00    +0.000 A 
ATOM     23  S   UNL     1      48.670   3.975  19.019  0.00  0.00    +0.000 S 
ATOM     24  C   UNL     1      48.205   5.527  19.539  0.00  0.00    +0.000 A 
ATOM     25  N   UNL     1      47.804   5.739  20.820  0.00  0.00    +0.000 NA
ATOM     26  C   UNL     1      47.466   6.961  21.069  0.00  0.00    +0.000 A 
ATOM     27  N   UNL     1      47.495   7.986  20.156  0.00  0.00    +0.000 N 
ATOM     28  C   UNL     1      47.922   7.826  18.854  0.00  0.00    +0.000 A 
ATOM     29  O   UNL     1      47.998   8.788  18.095  0.00  0.00    +0.000 OA
ATOM     30  C   UNL     1      48.297   6.464  18.526  0.00  0.00    +0.000 A 
ATOM     31  H   UNL     1      47.233   8.924  20.425  0.00  0.00    +0.000 HD
ENDBRANCH  20  21
BRANCH  20  33
ATOM     32  C   UNL     1      50.584   8.591  15.590  0.00  0.00    +0.000 C 
ATOM     33  C   UNL     1      50.381   7.087  15.704  0.00  0.00    +0.000 C 
ENDBRANCH  20  33
ENDBRANCH  18  20
ENDBRANCH   1  18
TORSDOF 9
ENDMDL
MODEL 7
REMARK VINA RESULT:    -7.167      2.099      2.787
REMARK INTER + INTRA:         -11.773
REMARK INTER:                 -10.822
REMARK INTRA:                  -0.952
REMARK UNBOUND:                -0.835
REMARK  Name = 
REMARK  10 active torsions:
REMARK  status: ('A' for Active; 'I' for Inactive)
REMARK    1  A    between atoms: C_1  and  C_2
REMARK    2  A    between atoms: C_2  and  C_3
REMARK    3  A    between atoms: C_3  and  N_4
REMARK    4  A    between atoms: C_3  and  C_21
REMARK    5  A    between atoms: N_4  and  C_5
REMARK    6  A    between atoms: C_5  and  C_6
REMARK    7  A    between atoms: C_9  and  C_10
REMARK    8  A    between atoms: C_10  and  N_11
REMARK    9  A    between atoms: N_11  and  C_12
REMARK   10  A    between atoms: C_12  and  C_13
REMARK                            x       y       z     vdW  Elec       q    Type
REMARK                         _______ _______ _______ _____ _____    ______ ____
ROOT
ATOM      1  C   UNL     1      47.389   4.847  15.195  0.00  0.00    +0.000 C 
ENDROOT
BRANCH   1   2
ATOM      2  C   UNL     1      46.631   4.996  13.897  0.00  0.00    +0.000 A 
ATOM      3  C   UNL     1      46.536   6.236  13.252  0.00  0.00    +0.000 A 
ATOM      4  C   UNL     1      45.846   6.351  12.044  0.00  0.00    +0.000 A 
ATOM      5  C   UNL     1      45.253   5.228  11.447  0.00  0.00    +0.000 A 
ATOM      6  C   UNL     1      45.362   3.987  12.083  0.00  0.00    +0.000 A 
ATOM      7  C   UNL     1      46.039   3.874  13.298  0.00  0.00    +0.000 A 
BRANCH   5   8
ATOM      8  C   UNL     1      44.501   5.364  10.147  0.00  0.00    +0.000 C 
BRANCH   8   9
ATOM      9  N   UNL     1      45.335   4.947   9.027  0.00  0.00    +0.000 NA
ATOM     10  H   UNL     1      46.257   4.688   9.377  0.00  0.00    +0.000 HD
BRANCH   9  11
ATOM     11  C   UNL     1      44.752   3.819   8.313  0.00  0.00    +0.000 C 
BRANCH  11  12
ATOM     12  C   UNL     1      45.842   2.910   7.805  0.00  0.00    +0.000 A 
ATOM     13  C   UNL     1      45.912   1.573   8.204  0.00  0.00    +0.000 A 
ATOM     14  C   UNL     1      46.950   0.792   7.722  0.00  0.00    +0.000 A 
ATOM     15  N   UNL     1      47.907   1.244   6.882  0.00  0.00    +0.000 NA
ATOM     16  C   UNL     1      47.822   2.537   6.509  0.00  0.00    +0.000 A 
ATOM     17  C   UNL     1      46.821   3.396   6.932  0.00  0.00    +0.000 A 
ENDBRANCH  11  12
ENDBRANCH   9  11
ENDBRANCH   8   9
ENDBRANCH   5   8
ENDBRANCH   1   2
BRANCH   1  18
ATOM     18  N   UNL     1      48.019   6.098  15.605  0.00  0.00    +0.000 NA
ATOM     19  H   UNL     1      48.432   6.553  14.793  0.00  0.00    +0.000 HD
BRANCH  18  20
ATOM     20  C   UNL     1      49.036   5.975  16.656  0.00  0.00    +0.000 C 
BRANCH  20  21
ATOM     21  C   UNL     1      50.324   6.622  16.170  0.00  0.00    +0.000 A 
ATOM     22  C   UNL     1      50.385   7.686  15.280  0.00  0.00    +0.000 A 
ATOM     23  S   UNL     1      51.974   8.150  14.878  0.00  0.00    +0.000 S 
ATOM     24  C   UNL     1      52.639   6.960  15.897  0.00  0.00    +0.000 A 
ATOM     25  N   UNL     1      53.985   6.824  16.021  0.00  0.00    +0.000 NA
ATOM     26  C   UNL     1      54.346   5.872  16.815  0.00  0.00    +0.000 A 
ATOM     27  N   UNL     1      53.486   5.048  17.496  0.00  0.00    +0.000 N 
ATOM     28  C   UNL     1      52.113   5.165  17.426  0.00  0.00    +0.000 A 
ATOM     29  O   UNL     1      51.386   4.451  18.109  0.00  0.00    +0.000 OA
ATOM     30  C   UNL     1      51.662   6.214  16.531  0.00  0.00    +0.000 A 
ATOM     31  H   UNL     1      53.839   4.333  18.116  0.00  0.00    +0.000 HD
ENDBRANCH  20  21
BRANCH  20  33
ATOM     32  C   UNL     1      48.179   7.926  18.118  0.00  0.00    +0.000 C 
ATOM     33  C   UNL     1      48.608   6.467  18.059  0.00  0.00    +0.000 C 
ENDBRANCH  20  33
ENDBRANCH  18  20
ENDBRANCH   1  18
TORSDOF 9
ENDMDL
MODEL 8
REMARK VINA RESULT:    -7.065      3.192      8.561
REMARK INTER + INTRA:         -11.617
REMARK INTER:                 -10.011
REMARK INTRA:                  -1.606
REMARK UNBOUND:                -0.835
REMARK  Name = 
REMARK  10 active torsions:
REMARK  status: ('A' for Active; 'I' for Inactive)
REMARK    1  A    between atoms: C_1  and  C_2
REMARK    2  A    between atoms: C_2  and  C_3
REMARK    3  A    between atoms: C_3  and  N_4
REMARK    4  A    between atoms: C_3  and  C_21
REMARK    5  A    between atoms: N_4  and  C_5
REMARK    6  A    between atoms: C_5  and  C_6
REMARK    7  A    between atoms: C_9  and  C_10
REMARK    8  A    between atoms: C_10  and  N_11
REMARK    9  A    between atoms: N_11  and  C_12
REMARK   10  A    between atoms: C_12  and  C_13
REMARK                            x       y       z     vdW  Elec       q    Type
REMARK                         _______ _______ _______ _____ _____    ______ ____
ROOT
ATOM      1  C   UNL     1      48.605   7.692  12.328  0.00  0.00    +0.000 C 
ENDROOT
BRANCH   1   2
ATOM      2  C   UNL     1      49.143   7.516  13.728  0.00  0.00    +0.000 A 
ATOM      3  C   UNL     1      48.349   6.974  14.747  0.00  0.00    +0.000 A 
ATOM      4  C   UNL     1      48.870   6.802  16.031  0.00  0.00    +0.000 A 
ATOM      5  C   UNL     1      50.198   7.150  16.317  0.00  0.00    +0.000 A 
ATOM      6  C   UNL     1      50.996   7.676  15.296  0.00  0.00    +0.000 A 
ATOM      7  C   UNL     1      50.472   7.862  14.017  0.00  0.00    +0.000 A 
BRANCH   5   8
ATOM      8  C   UNL     1      50.750   6.971  17.710  0.00  0.00    +0.000 C 
BRANCH   8   9
ATOM      9  N   UNL     1      49.855   6.147  18.513  0.00  0.00    +0.000 NA
ATOM     10  H   UNL     1      49.026   5.923  17.963  0.00  0.00    +0.000 HD
BRANCH   9  11
ATOM     11  C   UNL     1      50.501   4.915  18.943  0.00  0.00    +0.000 C 
BRANCH  11  12
ATOM     12  C   UNL     1      50.109   3.780  18.030  0.00  0.00    +0.000 A 
ATOM     13  C   UNL     1      51.043   2.824  17.624  0.00  0.00    +0.000 A 
ATOM     14  C   UNL     1      50.629   1.818  16.766  0.00  0.00    +0.000 A 
ATOM     15  N   UNL     1      49.369   1.700  16.293  0.00  0.00    +0.000 NA
ATOM     16  C   UNL     1      48.483   2.633  16.698  0.00  0.00    +0.000 A 
ATOM     17  C   UNL     1      48.798   3.672  17.556  0.00  0.00    +0.000 A 
ENDBRANCH  11  12
ENDBRANCH   9  11
ENDBRANCH   8   9
ENDBRANCH   5   8
ENDBRANCH   1   2
BRANCH   1  18
ATOM     18  N   UNL     1      47.728   6.591  11.939  0.00  0.00    +0.000 NA
ATOM     19  H   UNL     1      48.161   6.063  11.184  0.00  0.00    +0.000 HD
BRANCH  18  20
ATOM     20  C   UNL     1      46.371   6.981  11.537  0.00  0.00    +0.000 C 
BRANCH  20  21
ATOM     21  C   UNL     1      45.445   5.788  11.717  0.00  0.00    +0.000 A 
ATOM     22  C   UNL     1      44.784   5.473  12.897  0.00  0.00    +0.000 A 
ATOM     23  S   UNL     1      43.868   4.039  12.806  0.00  0.00    +0.000 S 
ATOM     24  C   UNL     1      44.303   3.799  11.178  0.00  0.00    +0.000 A 
ATOM     25  N   UNL     1      43.837   2.728  10.486  0.00  0.00    +0.000 NA
ATOM     26  C   UNL     1      44.261   2.665   9.267  0.00  0.00    +0.000 A 
ATOM     27  N   UNL     1      45.105   3.574   8.681  0.00  0.00    +0.000 N 
ATOM     28  C   UNL     1      45.581   4.693   9.333  0.00  0.00    +0.000 A 
ATOM     29  O   UNL     1      46.276   5.516   8.744  0.00  0.00    +0.000 OA
ATOM     30  C   UNL     1      45.142   4.796  10.712  0.00  0.00    +0.000 A 
ATOM     31  H   UNL     1      45.383   3.472   7.715  0.00  0.00    +0.000 HD
ENDBRANCH  20  21
BRANCH  20  33
ATOM     32  C   UNL     1      44.678   8.932  11.445  0.00  0.00    +0.000 C 
ATOM     33  C   UNL     1      45.824   8.270  12.196  0.00  0.00    +0.000 C 
ENDBRANCH  20  33
ENDBRANCH  18  20
ENDBRANCH   1  18
TORSDOF 9
ENDMDL
MODEL 9
REMARK VINA RESULT:    -6.951      3.159      4.649
REMARK INTER + INTRA:         -11.443
REMARK INTER:                  -9.793
REMARK INTRA:                  -1.650
REMARK UNBOUND:                -0.835
REMARK  Name = 
REMARK  10 active torsions:
REMARK  status: ('A' for Active; 'I' for Inactive)
REMARK    1  A    between atoms: C_1  and  C_2
REMARK    2  A    between atoms: C_2  and  C_3
REMARK    3  A    between atoms: C_3  and  N_4
REMARK    4  A    between atoms: C_3  and  C_21
REMARK    5  A    between atoms: N_4  and  C_5
REMARK    6  A    between atoms: C_5  and  C_6
REMARK    7  A    between atoms: C_9  and  C_10
REMARK    8  A    between atoms: C_10  and  N_11
REMARK    9  A    between atoms: N_11  and  C_12
REMARK   10  A    between atoms: C_12  and  C_13
REMARK                            x       y       z     vdW  Elec       q    Type
REMARK                         _______ _______ _______ _____ _____    ______ ____
ROOT
ATOM      1  C   UNL     1      48.617   7.582  13.169  0.00  0.00    +0.000 C 
ENDROOT
BRANCH   1   2
ATOM      2  C   UNL     1      47.387   6.706  13.154  0.00  0.00    +0.000 A 
ATOM      3  C   UNL     1      46.133   7.224  12.803  0.00  0.00    +0.000 A 
ATOM      4  C   UNL     1      45.010   6.395  12.776  0.00  0.00    +0.000 A 
ATOM      5  C   UNL     1      45.120   5.030  13.081  0.00  0.00    +0.000 A 
ATOM      6  C   UNL     1      46.374   4.510  13.415  0.00  0.00    +0.000 A 
ATOM      7  C   UNL     1      47.494   5.340  13.456  0.00  0.00    +0.000 A 
BRANCH   5   8
ATOM      8  C   UNL     1      43.900   4.144  13.061  0.00  0.00    +0.000 C 
BRANCH   8   9
ATOM      9  N   UNL     1      44.190   2.890  12.375  0.00  0.00    +0.000 NA
ATOM     10  H   UNL     1      43.943   2.112  12.986  0.00  0.00    +0.000 HD
BRANCH   9  11
ATOM     11  C   UNL     1      43.451   2.778  11.125  0.00  0.00    +0.000 C 
BRANCH  11  12
ATOM     12  C   UNL     1      44.376   3.006   9.956  0.00  0.00    +0.000 A 
ATOM     13  C   UNL     1      44.914   1.934   9.241  0.00  0.00    +0.000 A 
ATOM     14  C   UNL     1      45.777   2.206   8.191  0.00  0.00    +0.000 A 
ATOM     15  N   UNL     1      46.133   3.452   7.810  0.00  0.00    +0.000 NA
ATOM     16  C   UNL     1      45.602   4.473   8.513  0.00  0.00    +0.000 A 
ATOM     17  C   UNL     1      44.728   4.305   9.574  0.00  0.00    +0.000 A 
ENDBRANCH  11  12
ENDBRANCH   9  11
ENDBRANCH   8   9
ENDBRANCH   5   8
ENDBRANCH   1   2
BRANCH   1  18
ATOM     18  N   UNL     1      49.728   6.948  13.872  0.00  0.00    +0.000 NA
ATOM     19  H   UNL     1      49.461   6.006  14.150  0.00  0.00    +0.000 HD
BRANCH  18  20
ATOM     20  C   UNL     1      50.223   7.674  15.049  0.00  0.00    +0.000 C 
BRANCH  20  21
ATOM     21  C   UNL     1      49.529   7.129  16.288  0.00  0.00    +0.000 A 
ATOM     22  C   UNL     1      49.511   5.791  16.658  0.00  0.00    +0.000 A 
ATOM     23  S   UNL     1      48.597   5.483  18.063  0.00  0.00    +0.000 S 
ATOM     24  C   UNL     1      48.211   7.131  18.240  0.00  0.00    +0.000 A 
ATOM     25  N   UNL     1      47.442   7.556  19.276  0.00  0.00    +0.000 NA
ATOM     26  C   UNL     1      47.218   8.828  19.276  0.00  0.00    +0.000 A 
ATOM     27  N   UNL     1      47.693   9.710  18.338  0.00  0.00    +0.000 N 
ATOM     28  C   UNL     1      48.500   9.331  17.286  0.00  0.00    +0.000 A 
ATOM     29  O   UNL     1      48.960  10.167  16.513  0.00  0.00    +0.000 OA
ATOM     30  C   UNL     1      48.766   7.906  17.237  0.00  0.00    +0.000 A 
ATOM     31  H   UNL     1      47.492  10.697  18.409  0.00  0.00    +0.000 HD
ENDBRANCH  20  21
BRANCH  20  33
ATOM     32  C   UNL     1      52.356   9.130  15.143  0.00  0.00    +0.000 C 
ATOM     33  C   UNL     1      51.762   7.730  15.199  0.00  0.00    +0.000 C 
ENDBRANCH  20  33
ENDBRANCH  18  20
ENDBRANCH   1  18
TORSDOF 9
ENDMDL
