MODEL 1
REMARK VINA RESULT:    -7.780      0.000      0.000
REMARK INTER + INTRA:          -9.914
REMARK INTER:                  -9.600
REMARK INTRA:                  -0.315
REMARK UNBOUND:                -0.315
REMARK  Name = 
REMARK  5 active torsions:
REMARK  status: ('A' for Active; 'I' for Inactive)
REMARK    1  A    between atoms: N_1  and  C_2
REMARK    2  A    between atoms: C_2  and  C_3
REMARK    3  A    between atoms: C_6  and  C_7
REMARK    4  A    between atoms: C_7  and  N_8
REMARK    5  A    between atoms: C_13  and  N_14
REMARK                            x       y       z     vdW  Elec       q    Type
REMARK                         _______ _______ _______ _____ _____    ______ ____
ROOT
ATOM      1  C   UNL     1      43.799   4.295  10.228  0.00  0.00    +0.000 C 
ENDROOT
BRANCH   1   2
ATOM      2  N   UNL     1      44.046   3.895  11.593  0.00  0.00    +0.000 N 
ATOM      3  C   UNL     1      45.152   4.453  12.222  0.00  0.00    +0.000 A 
ATOM      4  N   UNL     1      45.609   5.661  11.861  0.00  0.00    +0.000 NA
ATOM      5  C   UNL     1      46.609   6.168  12.609  0.00  0.00    +0.000 A 
ATOM      6  C   UNL     1      47.166   5.511  13.676  0.00  0.00    +0.000 A 
ATOM      7  C   UNL     1      46.670   4.256  13.924  0.00  0.00    +0.000 A 
ATOM      8  N   UNL     1      45.676   3.719  13.211  0.00  0.00    +0.000 NA
ATOM      9  H   UNL     1      44.106   2.894  11.757  0.00  0.00    +0.000 HD
BRANCH   7  10
ATOM     10  N   UNL     1      47.142   3.514  15.009  0.00  0.00    +0.000 N 
ATOM     11  H   UNL     1      47.239   4.058  15.854  0.00  0.00    +0.000 HD
ATOM     12  H   UNL     1      48.011   3.067  14.725  0.00  0.00    +0.000 HD
ENDBRANCH   7  10
ENDBRANCH   1   2
BRANCH   1  16
ATOM     13  C   UNL     1      46.594   2.333   7.523  0.00  0.00    +0.000 A 
ATOM     14  C   UNL     1      45.830   1.581   8.425  0.00  0.00    +0.000 A 
ATOM     15  C   UNL     1      44.931   2.204   9.300  0.00  0.00    +0.000 A 
ATOM     16  C   UNL     1      44.771   3.598   9.292  0.00  0.00    +0.000 A 
ATOM     17  C   UNL     1      45.541   4.348   8.392  0.00  0.00    +0.000 A 
ATOM     18  C   UNL     1      46.438   3.725   7.515  0.00  0.00    +0.000 A 
BRANCH  13  19
ATOM     19  C   UNL     1      47.577   1.658   6.599  0.00  0.00    +0.000 C 
BRANCH  19  20
ATOM     20  N   UNL     1      48.684   2.540   6.258  0.00  0.00    +0.000 NA
ATOM     21  H   UNL     1      49.561   2.046   6.394  0.00  0.00    +0.000 HD
ATOM     22  H   UNL     1      48.686   3.325   6.908  0.00  0.00    +0.000 HD
ENDBRANCH  19  20
ENDBRANCH  13  19
ENDBRANCH   1  16
TORSDOF 5
ENDMDL
MODEL 2
REMARK VINA RESULT:    -7.465      1.396      2.264
REMARK INTER + INTRA:          -9.525
REMARK INTER:                  -9.397
REMARK INTRA:                  -0.128
REMARK UNBOUND:                -0.315
REMARK  Name = 
REMARK  5 active torsions:
REMARK  status: ('A' for Active; 'I' for Inactive)
REMARK    1  A    between atoms: N_1  and  C_2
REMARK    2  A    between atoms: C_2  and  C_3
REMARK    3  A    between atoms: C_6  and  C_7
REMARK    4  A    between atoms: C_7  and  N_8
REMARK    5  A    between atoms: C_13  and  N_14
REMARK                            x       y       z     vdW  Elec       q    Type
REMARK                         _______ _______ _______ _____ _____    ______ ____
ROOT
ATOM      1  C   UNL     1      43.807   4.175  10.243  0.00  0.00    +0.000 C 
ENDROOT
BRANCH   1   2
ATOM      2  N   UNL     1      44.031   5.601  10.284  0.00  0.00    +0.000 N 
ATOM      3  C   UNL     1      44.822   6.083  11.320  0.00  0.00    +0.000 A 
ATOM      4  N   UNL     1      45.768   5.314  11.877  0.00  0.00    +0.000 NA
ATOM      5  C   UNL     1      46.561   5.909  12.789  0.00  0.00    +0.000 A 
ATOM      6  C   UNL     1      46.432   7.222  13.165  0.00  0.00    +0.000 A 
ATOM      7  C   UNL     1      45.394   7.906  12.582  0.00  0.00    +0.000 A 
ATOM      8  N   UNL     1      44.589   7.354  11.670  0.00  0.00    +0.000 NA
ATOM      9  H   UNL     1      43.197   6.181  10.275  0.00  0.00    +0.000 HD
BRANCH   7  10
ATOM     10  N   UNL     1      45.194   9.258  12.867  0.00  0.00    +0.000 N 
ATOM     11  H   UNL     1      44.862   9.790  12.075  0.00  0.00    +0.000 HD
ATOM     12  H   UNL     1      46.060   9.625  13.255  0.00  0.00    +0.000 HD
ENDBRANCH   7  10
ENDBRANCH   1   2
BRANCH   1  16
ATOM     13  C   UNL     1      46.619   2.325   7.477  0.00  0.00    +0.000 A 
ATOM     14  C   UNL     1      45.908   1.544   8.398  0.00  0.00    +0.000 A 
ATOM     15  C   UNL     1      45.004   2.131   9.292  0.00  0.00    +0.000 A 
ATOM     16  C   UNL     1      44.785   3.517   9.286  0.00  0.00    +0.000 A 
ATOM     17  C   UNL     1      45.503   4.296   8.368  0.00  0.00    +0.000 A 
ATOM     18  C   UNL     1      46.405   3.709   7.472  0.00  0.00    +0.000 A 
BRANCH  13  19
ATOM     19  C   UNL     1      47.607   1.690   6.532  0.00  0.00    +0.000 C 
BRANCH  19  20
ATOM     20  N   UNL     1      48.676   2.612   6.175  0.00  0.00    +0.000 NA
ATOM     21  H   UNL     1      49.134   2.939   7.021  0.00  0.00    +0.000 HD
ATOM     22  H   UNL     1      48.263   3.431   5.730  0.00  0.00    +0.000 HD
ENDBRANCH  19  20
ENDBRANCH  13  19
ENDBRANCH   1  16
TORSDOF 5
ENDMDL
MODEL 3
REMARK VINA RESULT:    -7.313      2.071      5.936
REMARK INTER + INTRA:          -9.337
REMARK INTER:                  -9.056
REMARK INTRA:                  -0.281
REMARK UNBOUND:                -0.315
REMARK  Name = 
REMARK  5 active torsions:
REMARK  status: ('A' for Active; 'I' for Inactive)
REMARK    1  A    between atoms: N_1  and  C_2
REMARK    2  A    between atoms: C_2  and  C_3
REMARK    3  A    between atoms: C_6  and  C_7
REMARK    4  A    between atoms: C_7  and  N_8
REMARK    5  A    between atoms: C_13  and  N_14
REMARK                            x       y       z     vdW  Elec       q    Type
REMARK                         _______ _______ _______ _____ _____    ______ ____
ROOT
ATOM      1  C   UNL     1      43.820   4.298  10.224  0.00  0.00    +0.000 C 
ENDROOT
BRANCH   1   2
ATOM      2  N   UNL     1      44.184   4.398   8.829  0.00  0.00    +0.000 N 
ATOM      3  C   UNL     1      45.109   3.477   8.353  0.00  0.00    +0.000 A 
ATOM      4  N   UNL     1      45.221   2.264   8.914  0.00  0.00    +0.000 NA
ATOM      5  C   UNL     1      46.059   1.401   8.306  0.00  0.00    +0.000 A 
ATOM      6  C   UNL     1      46.785   1.712   7.185  0.00  0.00    +0.000 A 
ATOM      7  C   UNL     1      46.647   2.998   6.727  0.00  0.00    +0.000 A 
ATOM      8  N   UNL     1      45.823   3.882   7.296  0.00  0.00    +0.000 NA
ATOM      9  H   UNL     1      44.512   5.309   8.522  0.00  0.00    +0.000 HD
BRANCH   7  10
ATOM     10  N   UNL     1      47.315   3.409   5.571  0.00  0.00    +0.000 N 
ATOM     11  H   UNL     1      48.304   3.560   5.713  0.00  0.00    +0.000 HD
ATOM     12  H   UNL     1      46.837   4.231   5.212  0.00  0.00    +0.000 HD
ENDBRANCH   7  10
ENDBRANCH   1   2
BRANCH   1  16
ATOM     13  C   UNL     1      46.971   5.918  12.758  0.00  0.00    +0.000 A 
ATOM     14  C   UNL     1      46.613   6.564  11.567  0.00  0.00    +0.000 A 
ATOM     15  C   UNL     1      45.603   6.048  10.746  0.00  0.00    +0.000 A 
ATOM     16  C   UNL     1      44.922   4.873  11.096  0.00  0.00    +0.000 A 
ATOM     17  C   UNL     1      45.288   4.226  12.286  0.00  0.00    +0.000 A 
ATOM     18  C   UNL     1      46.295   4.742  13.109  0.00  0.00    +0.000 A 
BRANCH  13  19
ATOM     19  C   UNL     1      48.075   6.466  13.628  0.00  0.00    +0.000 C 
BRANCH  19  20
ATOM     20  N   UNL     1      49.329   6.577  12.895  0.00  0.00    +0.000 NA
ATOM     21  H   UNL     1      49.850   5.710  12.988  0.00  0.00    +0.000 HD
ATOM     22  H   UNL     1      49.894   7.307  13.328  0.00  0.00    +0.000 HD
ENDBRANCH  19  20
ENDBRANCH  13  19
ENDBRANCH   1  16
TORSDOF 5
ENDMDL
MODEL 4
REMARK VINA RESULT:    -6.390      2.124      6.453
REMARK INTER + INTRA:          -8.199
REMARK INTER:                  -7.885
REMARK INTRA:                  -0.314
REMARK UNBOUND:                -0.315
REMARK  Name = 
REMARK  5 active torsions:
REMARK  status: ('A' for Active; 'I' for Inactive)
REMARK    1  A    between atoms: N_1  and  C_2
REMARK    2  A    between atoms: C_2  and  C_3
REMARK    3  A    between atoms: C_6  and  C_7
REMARK    4  A    between atoms: C_7  and  N_8
REMARK    5  A    between atoms: C_13  and  N_14
REMARK                            x       y       z     vdW  Elec       q    Type
REMARK                         _______ _______ _______ _____ _____    ______ ____
ROOT
ATOM      1  C   UNL     1      44.252   4.961  11.042  0.00  0.00    +0.000 C 
ENDROOT
BRANCH   1   2
ATOM      2  N   UNL     1      44.558   5.094   9.637  0.00  0.00    +0.000 N 
ATOM      3  C   UNL     1      45.188   4.017   9.026  0.00  0.00    +0.000 A 
ATOM      4  N   UNL     1      45.012   2.769   9.484  0.00  0.00    +0.000 NA
ATOM      5  C   UNL     1      45.567   1.782   8.753  0.00  0.00    +0.000 A 
ATOM      6  C   UNL     1      46.291   2.000   7.608  0.00  0.00    +0.000 A 
ATOM      7  C   UNL     1      46.465   3.316   7.260  0.00  0.00    +0.000 A 
ATOM      8  N   UNL     1      45.928   4.324   7.953  0.00  0.00    +0.000 NA
ATOM      9  H   UNL     1      45.093   5.917   9.376  0.00  0.00    +0.000 HD
BRANCH   7  10
ATOM     10  N   UNL     1      47.156   3.649   6.093  0.00  0.00    +0.000 N 
ATOM     11  H   UNL     1      47.337   2.855   5.495  0.00  0.00    +0.000 HD
ATOM     12  H   UNL     1      48.004   4.141   6.364  0.00  0.00    +0.000 HD
ENDBRANCH   7  10
ENDBRANCH   1   2
BRANCH   1  16
ATOM     13  C   UNL     1      47.086   7.249  13.434  0.00  0.00    +0.000 A 
ATOM     14  C   UNL     1      46.013   7.887  12.798  0.00  0.00    +0.000 A 
ATOM     15  C   UNL     1      45.099   7.160  12.025  0.00  0.00    +0.000 A 
ATOM     16  C   UNL     1      45.234   5.772  11.871  0.00  0.00    +0.000 A 
ATOM     17  C   UNL     1      46.312   5.137  12.505  0.00  0.00    +0.000 A 
ATOM     18  C   UNL     1      47.224   5.863  13.279  0.00  0.00    +0.000 A 
BRANCH  13  19
ATOM     19  C   UNL     1      48.079   8.041  14.246  0.00  0.00    +0.000 C 
BRANCH  19  20
ATOM     20  N   UNL     1      47.447   9.175  14.906  0.00  0.00    +0.000 NA
ATOM     21  H   UNL     1      46.632   8.853  15.420  0.00  0.00    +0.000 HD
ATOM     22  H   UNL     1      47.109   9.819  14.192  0.00  0.00    +0.000 HD
ENDBRANCH  19  20
ENDBRANCH  13  19
ENDBRANCH   1  16
TORSDOF 5
ENDMDL
MODEL 5
REMARK VINA RESULT:    -6.286      2.157      5.993
REMARK INTER + INTRA:          -8.070
REMARK INTER:                  -8.002
REMARK INTRA:                  -0.068
REMARK UNBOUND:                -0.315
REMARK  Name = 
REMARK  5 active torsions:
REMARK  status: ('A' for Active; 'I' for Inactive)
REMARK    1  A    between atoms: N_1  and  C_2
REMARK    2  A    between atoms: C_2  and  C_3
REMARK    3  A    between atoms: C_6  and  C_7
REMARK    4  A    between atoms: C_7  and  N_8
REMARK    5  A    between atoms: C_13  and  N_14
REMARK                            x       y       z     vdW  Elec       q    Type
REMARK                         _______ _______ _______ _____ _____    ______ ____
ROOT
ATOM      1  C   UNL     1      43.669   3.388  10.973  0.00  0.00    +0.000 C 
ENDROOT
BRANCH   1   2
ATOM      2  N   UNL     1      44.745   2.488  10.625  0.00  0.00    +0.000 N 
ATOM      3  C   UNL     1      45.281   2.614   9.349  0.00  0.00    +0.000 A 
ATOM      4  N   UNL     1      45.253   3.789   8.705  0.00  0.00    +0.000 NA
ATOM      5  C   UNL     1      45.903   3.839   7.526  0.00  0.00    +0.000 A 
ATOM      6  C   UNL     1      46.556   2.766   6.974  0.00  0.00    +0.000 A 
ATOM      7  C   UNL     1      46.473   1.593   7.682  0.00  0.00    +0.000 A 
ATOM      8  N   UNL     1      45.842   1.503   8.857  0.00  0.00    +0.000 NA
ATOM      9  H   UNL     1      44.553   1.499  10.753  0.00  0.00    +0.000 HD
BRANCH   7  10
ATOM     10  N   UNL     1      47.131   0.448   7.228  0.00  0.00    +0.000 N 
ATOM     11  H   UNL     1      46.903  -0.381   7.757  0.00  0.00    +0.000 HD
ATOM     12  H   UNL     1      48.128   0.648   7.215  0.00  0.00    +0.000 HD
ENDBRANCH   7  10
ENDBRANCH   1   2
BRANCH   1  16
ATOM     13  C   UNL     1      45.248   7.148  12.504  0.00  0.00    +0.000 A 
ATOM     14  C   UNL     1      45.829   5.928  12.875  0.00  0.00    +0.000 A 
ATOM     15  C   UNL     1      45.326   4.715  12.389  0.00  0.00    +0.000 A 
ATOM     16  C   UNL     1      44.229   4.691  11.516  0.00  0.00    +0.000 A 
ATOM     17  C   UNL     1      43.646   5.913  11.152  0.00  0.00    +0.000 A 
ATOM     18  C   UNL     1      44.150   7.126  11.635  0.00  0.00    +0.000 A 
BRANCH  13  19
ATOM     19  C   UNL     1      45.780   8.450  13.048  0.00  0.00    +0.000 C 
BRANCH  19  20
ATOM     20  N   UNL     1      44.858   9.550  12.803  0.00  0.00    +0.000 NA
ATOM     21  H   UNL     1      45.100  10.003  11.926  0.00  0.00    +0.000 HD
ATOM     22  H   UNL     1      44.981  10.247  13.537  0.00  0.00    +0.000 HD
ENDBRANCH  19  20
ENDBRANCH  13  19
ENDBRANCH   1  16
TORSDOF 5
ENDMDL
MODEL 6
REMARK VINA RESULT:    -6.017      3.699      7.917
REMARK INTER + INTRA:          -7.739
REMARK INTER:                  -7.533
REMARK INTRA:                  -0.206
REMARK UNBOUND:                -0.315
REMARK  Name = 
REMARK  5 active torsions:
REMARK  status: ('A' for Active; 'I' for Inactive)
REMARK    1  A    between atoms: N_1  and  C_2
REMARK    2  A    between atoms: C_2  and  C_3
REMARK    3  A    between atoms: C_6  and  C_7
REMARK    4  A    between atoms: C_7  and  N_8
REMARK    5  A    between atoms: C_13  and  N_14
REMARK                            x       y       z     vdW  Elec       q    Type
REMARK                         _______ _______ _______ _____ _____    ______ ____
ROOT
ATOM      1  C   UNL     1      47.106   4.208  14.323  0.00  0.00    +0.000 C 
ENDROOT
BRANCH   1   2
ATOM      2  N   UNL     1      46.009   5.130  14.134  0.00  0.00    +0.000 N 
ATOM      3  C   UNL     1      45.071   4.800  13.164  0.00  0.00    +0.000 A 
ATOM      4  N   UNL     1      44.837   3.519  12.842  0.00  0.00    +0.000 NA
ATOM      5  C   UNL     1      43.827   3.296  11.979  0.00  0.00    +0.000 A 
ATOM      6  C   UNL     1      43.066   4.295  11.427  0.00  0.00    +0.000 A 
ATOM      7  C   UNL     1      43.426   5.574  11.772  0.00  0.00    +0.000 A 
ATOM      8  N   UNL     1      44.418   5.838  12.628  0.00  0.00    +0.000 NA
ATOM      9  H   UNL     1      46.269   6.096  13.956  0.00  0.00    +0.000 HD
BRANCH   7  10
ATOM     10  N   UNL     1      42.696   6.664  11.294  0.00  0.00    +0.000 N 
ATOM     11  H   UNL     1      42.076   6.427  10.532  0.00  0.00    +0.000 HD
ATOM     12  H   UNL     1      43.357   7.399  11.052  0.00  0.00    +0.000 HD
ENDBRANCH   7  10
ENDBRANCH   1   2
BRANCH   1  16
ATOM     13  C   UNL     1      48.646   4.535  18.385  0.00  0.00    +0.000 A 
ATOM     14  C   UNL     1      48.087   3.333  17.930  0.00  0.00    +0.000 A 
ATOM     15  C   UNL     1      47.588   3.221  16.627  0.00  0.00    +0.000 A 
ATOM     16  C   UNL     1      47.637   4.308  15.742  0.00  0.00    +0.000 A 
ATOM     17  C   UNL     1      48.191   5.512  16.203  0.00  0.00    +0.000 A 
ATOM     18  C   UNL     1      48.693   5.624  17.505  0.00  0.00    +0.000 A 
BRANCH  13  19
ATOM     19  C   UNL     1      49.162   4.657  19.797  0.00  0.00    +0.000 C 
BRANCH  19  20
ATOM     20  N   UNL     1      48.380   3.851  20.724  0.00  0.00    +0.000 NA
ATOM     21  H   UNL     1      48.920   3.694  21.571  0.00  0.00    +0.000 HD
ATOM     22  H   UNL     1      48.220   2.936  20.304  0.00  0.00    +0.000 HD
ENDBRANCH  19  20
ENDBRANCH  13  19
ENDBRANCH   1  16
TORSDOF 5
ENDMDL
MODEL 7
REMARK VINA RESULT:    -5.869      1.844      2.576
REMARK INTER + INTRA:          -7.555
REMARK INTER:                  -7.387
REMARK INTRA:                  -0.169
REMARK UNBOUND:                -0.315
REMARK  Name = 
REMARK  5 active torsions:
REMARK  status: ('A' for Active; 'I' for Inactive)
REMARK    1  A    between atoms: N_1  and  C_2
REMARK    2  A    between atoms: C_2  and  C_3
REMARK    3  A    between atoms: C_6  and  C_7
REMARK    4  A    between atoms: C_7  and  N_8
REMARK    5  A    between atoms: C_13  and  N_14
REMARK                            x       y       z     vdW  Elec       q    Type
REMARK                         _______ _______ _______ _____ _____    ______ ____
ROOT
ATOM      1  C   UNL     1      44.234   4.630  12.220  0.00  0.00    +0.000 C 
ENDROOT
BRANCH   1   2
ATOM      2  N   UNL     1      45.361   4.758  13.115  0.00  0.00    +0.000 N 
ATOM      3  C   UNL     1      45.985   5.998  13.166  0.00  0.00    +0.000 A 
ATOM      4  N   UNL     1      45.303   7.121  12.899  0.00  0.00    +0.000 NA
ATOM      5  C   UNL     1      45.963   8.280  13.092  0.00  0.00    +0.000 A 
ATOM      6  C   UNL     1      47.264   8.349  13.522  0.00  0.00    +0.000 A 
ATOM      7  C   UNL     1      47.892   7.143  13.707  0.00  0.00    +0.000 A 
ATOM      8  N   UNL     1      47.272   5.973  13.532  0.00  0.00    +0.000 NA
ATOM      9  H   UNL     1      46.103   4.075  12.993  0.00  0.00    +0.000 HD
BRANCH   7  10
ATOM     10  N   UNL     1      49.206   7.099  14.177  0.00  0.00    +0.000 N 
ATOM     11  H   UNL     1      49.543   7.992  14.508  0.00  0.00    +0.000 HD
ATOM     12  H   UNL     1      49.787   6.707  13.439  0.00  0.00    +0.000 HD
ENDBRANCH   7  10
ENDBRANCH   1   2
BRANCH   1  16
ATOM     13  C   UNL     1      45.583   3.420   8.258  0.00  0.00    +0.000 A 
ATOM     14  C   UNL     1      45.765   4.737   8.700  0.00  0.00    +0.000 A 
ATOM     15  C   UNL     1      45.332   5.135   9.971  0.00  0.00    +0.000 A 
ATOM     16  C   UNL     1      44.708   4.223  10.836  0.00  0.00    +0.000 A 
ATOM     17  C   UNL     1      44.522   2.907  10.387  0.00  0.00    +0.000 A 
ATOM     18  C   UNL     1      44.957   2.508   9.118  0.00  0.00    +0.000 A 
BRANCH  13  19
ATOM     19  C   UNL     1      46.032   3.004   6.880  0.00  0.00    +0.000 C 
BRANCH  19  20
ATOM     20  N   UNL     1      46.874   4.018   6.262  0.00  0.00    +0.000 NA
ATOM     21  H   UNL     1      46.588   4.937   6.588  0.00  0.00    +0.000 HD
ATOM     22  H   UNL     1      46.715   4.002   5.255  0.00  0.00    +0.000 HD
ENDBRANCH  19  20
ENDBRANCH  13  19
ENDBRANCH   1  16
TORSDOF 5
ENDMDL
MODEL 8
REMARK VINA RESULT:    -5.838      2.942      4.968
REMARK INTER + INTRA:          -7.518
REMARK INTER:                  -7.287
REMARK INTRA:                  -0.231
REMARK UNBOUND:                -0.315
REMARK  Name = 
REMARK  5 active torsions:
REMARK  status: ('A' for Active; 'I' for Inactive)
REMARK    1  A    between atoms: N_1  and  C_2
REMARK    2  A    between atoms: C_2  and  C_3
REMARK    3  A    between atoms: C_6  and  C_7
REMARK    4  A    between atoms: C_7  and  N_8
REMARK    5  A    between atoms: C_13  and  N_14
REMARK                            x       y       z     vdW  Elec       q    Type
REMARK                         _______ _______ _______ _____ _____    ______ ____
ROOT
ATOM      1  C   UNL     1      47.612   5.687  14.137  0.00  0.00    +0.000 C 
ENDROOT
BRANCH   1   2
ATOM      2  N   UNL     1      47.178   5.264  15.449  0.00  0.00    +0.000 N 
ATOM      3  C   UNL     1      48.172   4.976  16.376  0.00  0.00    +0.000 A 
ATOM      4  N   UNL     1      49.370   5.574  16.308  0.00  0.00    +0.000 NA
ATOM      5  C   UNL     1      50.222   5.319  17.320  0.00  0.00    +0.000 A 
ATOM      6  C   UNL     1      49.925   4.490  18.372  0.00  0.00    +0.000 A 
ATOM      7  C   UNL     1      48.697   3.879  18.316  0.00  0.00    +0.000 A 
ATOM      8  N   UNL     1      47.821   4.107  17.334  0.00  0.00    +0.000 NA
ATOM      9  H   UNL     1      46.538   4.476  15.469  0.00  0.00    +0.000 HD
BRANCH   7  10
ATOM     10  N   UNL     1      48.280   3.042  19.353  0.00  0.00    +0.000 N 
ATOM     11  H   UNL     1      47.291   3.107  19.547  0.00  0.00    +0.000 HD
ATOM     12  H   UNL     1      48.856   3.245  20.167  0.00  0.00    +0.000 HD
ENDBRANCH   7  10
ENDBRANCH   1   2
BRANCH   1  16
ATOM     13  C   UNL     1      44.851   4.277  11.077  0.00  0.00    +0.000 A 
ATOM     14  C   UNL     1      45.182   3.461  12.167  0.00  0.00    +0.000 A 
ATOM     15  C   UNL     1      46.071   3.906  13.153  0.00  0.00    +0.000 A 
ATOM     16  C   UNL     1      46.650   5.182  13.077  0.00  0.00    +0.000 A 
ATOM     17  C   UNL     1      46.320   5.993  11.982  0.00  0.00    +0.000 A 
ATOM     18  C   UNL     1      45.429   5.551  10.997  0.00  0.00    +0.000 A 
BRANCH  13  19
ATOM     19  C   UNL     1      43.910   3.784  10.007  0.00  0.00    +0.000 C 
BRANCH  19  20
ATOM     20  N   UNL     1      44.226   4.363   8.708  0.00  0.00    +0.000 NA
ATOM     21  H   UNL     1      44.270   3.624   8.013  0.00  0.00    +0.000 HD
ATOM     22  H   UNL     1      45.156   4.778   8.755  0.00  0.00    +0.000 HD
ENDBRANCH  19  20
ENDBRANCH  13  19
ENDBRANCH   1  16
TORSDOF 5
ENDMDL
MODEL 9
REMARK VINA RESULT:    -5.816      2.234      3.667
REMARK INTER + INTRA:          -7.490
REMARK INTER:                  -7.240
REMARK INTRA:                  -0.250
REMARK UNBOUND:                -0.315
REMARK  Name = 
REMARK  5 active torsions:
REMARK  status: ('A' for Active; 'I' for Inactive)
REMARK    1  A    between atoms: N_1  and  C_2
REMARK    2  A    between atoms: C_2  and  C_3
REMARK    3  A    between atoms: C_6  and  C_7
REMARK    4  A    between atoms: C_7  and  N_8
REMARK    5  A    between atoms: C_13  and  N_14
REMARK                            x       y       z     vdW  Elec       q    Type
REMARK                         _______ _______ _______ _____ _____    ______ ____
ROOT
ATOM      1  C   UNL     1      45.443   5.308  13.329  0.00  0.00    +0.000 C 
ENDROOT
BRANCH   1   2
ATOM      2  N   UNL     1      46.786   5.684  13.702  0.00  0.00    +0.000 N 
ATOM      3  C   UNL     1      47.280   5.156  14.889  0.00  0.00    +0.000 A 
ATOM      4  N   UNL     1      46.840   3.978  15.352  0.00  0.00    +0.000 NA
ATOM      5  C   UNL     1      47.464   3.494  16.443  0.00  0.00    +0.000 A 
ATOM      6  C   UNL     1      48.487   4.147  17.083  0.00  0.00    +0.000 A 
ATOM      7  C   UNL     1      48.821   5.375  16.568  0.00  0.00    +0.000 A 
ATOM      8  N   UNL     1      48.230   5.887  15.485  0.00  0.00    +0.000 NA
ATOM      9  H   UNL     1      46.971   6.682  13.741  0.00  0.00    +0.000 HD
BRANCH   7  10
ATOM     10  N   UNL     1      49.872   6.108  17.122  0.00  0.00    +0.000 N 
ATOM     11  H   UNL     1      50.317   6.730  16.463  0.00  0.00    +0.000 HD
ATOM     12  H   UNL     1      50.521   5.450  17.546  0.00  0.00    +0.000 HD
ENDBRANCH   7  10
ENDBRANCH   1   2
BRANCH   1  16
ATOM     13  C   UNL     1      45.317   4.048   9.160  0.00  0.00    +0.000 A 
ATOM     14  C   UNL     1      45.737   5.341   9.501  0.00  0.00    +0.000 A 
ATOM     15  C   UNL     1      45.778   5.754  10.838  0.00  0.00    +0.000 A 
ATOM     16  C   UNL     1      45.402   4.883  11.871  0.00  0.00    +0.000 A 
ATOM     17  C   UNL     1      44.976   3.592  11.526  0.00  0.00    +0.000 A 
ATOM     18  C   UNL     1      44.938   3.177  10.190  0.00  0.00    +0.000 A 
BRANCH  13  19
ATOM     19  C   UNL     1      45.255   3.616   7.717  0.00  0.00    +0.000 C 
BRANCH  19  20
ATOM     20  N   UNL     1      46.433   4.046   6.978  0.00  0.00    +0.000 NA
ATOM     21  H   UNL     1      46.483   3.538   6.099  0.00  0.00    +0.000 HD
ATOM     22  H   UNL     1      47.263   3.791   7.512  0.00  0.00    +0.000 HD
ENDBRANCH  19  20
ENDBRANCH  13  19
ENDBRANCH   1  16
TORSDOF 5
ENDMDL
