MODEL 1
REMARK VINA RESULT:    -8.892      0.000      0.000
REMARK INTER + INTRA:         -11.554
REMARK INTER:                 -10.972
REMARK INTRA:                  -0.583
REMARK UNBOUND:                -0.583
REMARK  Name = 
REMARK  4 active torsions:
REMARK  status: ('A' for Active; 'I' for Inactive)
REMARK    1  A    between atoms: C_2  and  C_4
REMARK    2  A    between atoms: N_8  and  C_9
REMARK    3  A    between atoms: C_9  and  C_10
REMARK    4  A    between atoms: C_14  and  C_15
REMARK                            x       y       z     vdW  Elec       q    Type
REMARK                         _______ _______ _______ _____ _____    ______ ____
ROOT
ATOM      1  C   UNL     1      43.481   3.656  11.183  0.00  0.00    +0.000 C 
ENDROOT
BRANCH   1   6
ATOM      2  C   UNL     1      46.612   2.513   7.226  0.00  0.00    +0.000 A 
ATOM      3  C   UNL     1      46.014   3.719   7.575  0.00  0.00    +0.000 A 
ATOM      4  C   UNL     1      45.190   3.767   8.702  0.00  0.00    +0.000 A 
ATOM      5  C   UNL     1      44.976   2.617   9.456  0.00  0.00    +0.000 A 
ATOM      6  N   UNL     1      44.221   2.575  10.588  0.00  0.00    +0.000 N 
ATOM      7  N   UNL     1      45.529   1.439   9.103  0.00  0.00    +0.000 NA
ATOM      8  C   UNL     1      46.325   1.405   8.003  0.00  0.00    +0.000 A 
ATOM      9  H   UNL     1      44.117   1.644  10.967  0.00  0.00    +0.000 HD
BRANCH   2  11
ATOM     10  N   UNL     1      47.438   3.324   5.092  0.00  0.00    +0.000 N 
ATOM     11  C   UNL     1      47.515   2.367   6.067  0.00  0.00    +0.000 C 
ATOM     12  O   UNL     1      48.324   1.452   5.996  0.00  0.00    +0.000 OA
ATOM     13  H   UNL     1      48.136   3.273   4.360  0.00  0.00    +0.000 HD
ATOM     14  H   UNL     1      46.979   4.212   5.236  0.00  0.00    +0.000 HD
ENDBRANCH   2  11
ENDBRANCH   1   6
BRANCH   1  15
ATOM     15  C   UNL     1      44.340   4.792  11.694  0.00  0.00    +0.000 A 
ATOM     16  C   UNL     1      44.246   6.108  11.231  0.00  0.00    +0.000 A 
ATOM     17  C   UNL     1      45.046   7.109  11.780  0.00  0.00    +0.000 A 
ATOM     18  C   UNL     1      45.942   6.811  12.809  0.00  0.00    +0.000 A 
ATOM     19  C   UNL     1      46.060   5.507  13.315  0.00  0.00    +0.000 A 
ATOM     20  C   UNL     1      45.255   4.511  12.729  0.00  0.00    +0.000 A 
BRANCH  19  21
ATOM     21  C   UNL     1      46.959   5.190  14.444  0.00  0.00    +0.000 A 
ATOM     22  C   UNL     1      47.983   6.061  14.842  0.00  0.00    +0.000 A 
ATOM     23  N   UNL     1      48.828   5.855  15.885  0.00  0.00    +0.000 NA
ATOM     24  C   UNL     1      48.643   4.718  16.590  0.00  0.00    +0.000 A 
ATOM     25  C   UNL     1      47.666   3.789  16.287  0.00  0.00    +0.000 A 
ATOM     26  F   UNL     1      47.523   2.684  17.028  0.00  0.00    +0.000 F 
ATOM     27  C   UNL     1      46.822   4.021  15.207  0.00  0.00    +0.000 A 
ENDBRANCH  19  21
ENDBRANCH   1  15
TORSDOF 4
ENDMDL
MODEL 2
REMARK VINA RESULT:    -8.634      3.100      4.484
REMARK INTER + INTRA:         -11.235
REMARK INTER:                 -10.561
REMARK INTRA:                  -0.674
REMARK UNBOUND:                -0.583
REMARK  Name = 
REMARK  4 active torsions:
REMARK  status: ('A' for Active; 'I' for Inactive)
REMARK    1  A    between atoms: C_2  and  C_4
REMARK    2  A    between atoms: N_8  and  C_9
REMARK    3  A    between atoms: C_9  and  C_10
REMARK    4  A    between atoms: C_14  and  C_15
REMARK                            x       y       z     vdW  Elec       q    Type
REMARK                         _______ _______ _______ _____ _____    ______ ____
ROOT
ATOM      1  C   UNL     1      43.458   3.668  11.280  0.00  0.00    +0.000 C 
ENDROOT
BRANCH   1   6
ATOM      2  C   UNL     1      46.572   2.536   7.307  0.00  0.00    +0.000 A 
ATOM      3  C   UNL     1      46.057   3.759   7.721  0.00  0.00    +0.000 A 
ATOM      4  C   UNL     1      45.217   3.800   8.836  0.00  0.00    +0.000 A 
ATOM      5  C   UNL     1      44.906   2.626   9.515  0.00  0.00    +0.000 A 
ATOM      6  N   UNL     1      44.128   2.572  10.631  0.00  0.00    +0.000 N 
ATOM      7  N   UNL     1      45.378   1.434   9.099  0.00  0.00    +0.000 NA
ATOM      8  C   UNL     1      46.190   1.407   8.011  0.00  0.00    +0.000 A 
ATOM      9  H   UNL     1      43.950   1.630  10.951  0.00  0.00    +0.000 HD
BRANCH   2  11
ATOM     10  N   UNL     1      47.362   3.309   5.146  0.00  0.00    +0.000 N 
ATOM     11  C   UNL     1      47.484   2.393   6.155  0.00  0.00    +0.000 C 
ATOM     12  O   UNL     1      48.337   1.517   6.118  0.00  0.00    +0.000 OA
ATOM     13  H   UNL     1      48.064   3.266   4.417  0.00  0.00    +0.000 HD
ATOM     14  H   UNL     1      46.859   4.178   5.258  0.00  0.00    +0.000 HD
ENDBRANCH   2  11
ENDBRANCH   1   6
BRANCH   1  15
ATOM     15  C   UNL     1      44.385   4.655  11.955  0.00  0.00    +0.000 A 
ATOM     16  C   UNL     1      45.410   4.286  12.831  0.00  0.00    +0.000 A 
ATOM     17  C   UNL     1      46.250   5.252  13.383  0.00  0.00    +0.000 A 
ATOM     18  C   UNL     1      46.083   6.600  13.057  0.00  0.00    +0.000 A 
ATOM     19  C   UNL     1      45.077   7.015  12.171  0.00  0.00    +0.000 A 
ATOM     20  C   UNL     1      44.230   6.020  11.644  0.00  0.00    +0.000 A 
BRANCH  19  21
ATOM     21  C   UNL     1      44.929   8.430  11.770  0.00  0.00    +0.000 A 
ATOM     22  C   UNL     1      45.795   9.426  12.241  0.00  0.00    +0.000 A 
ATOM     23  N   UNL     1      45.743  10.739  11.896  0.00  0.00    +0.000 NA
ATOM     24  C   UNL     1      44.777  11.090  11.019  0.00  0.00    +0.000 A 
ATOM     25  C   UNL     1      43.870  10.191  10.492  0.00  0.00    +0.000 A 
ATOM     26  F   UNL     1      42.939  10.595   9.619  0.00  0.00    +0.000 F 
ATOM     27  C   UNL     1      43.940   8.855  10.872  0.00  0.00    +0.000 A 
ENDBRANCH  19  21
ENDBRANCH   1  15
TORSDOF 4
ENDMDL
MODEL 3
REMARK VINA RESULT:    -7.753      3.717      7.312
REMARK INTER + INTRA:         -10.149
REMARK INTER:                  -9.438
REMARK INTRA:                  -0.711
REMARK UNBOUND:                -0.583
REMARK  Name = 
REMARK  4 active torsions:
REMARK  status: ('A' for Active; 'I' for Inactive)
REMARK    1  A    between atoms: C_2  and  C_4
REMARK    2  A    between atoms: N_8  and  C_9
REMARK    3  A    between atoms: C_9  and  C_10
REMARK    4  A    between atoms: C_14  and  C_15
REMARK                            x       y       z     vdW  Elec       q    Type
REMARK                         _______ _______ _______ _____ _____    ______ ____
ROOT
ATOM      1  C   UNL     1      44.690   6.456  12.414  0.00  0.00    +0.000 C 
ENDROOT
BRANCH   1   6
ATOM      2  C   UNL     1      49.618   8.002  12.722  0.00  0.00    +0.000 A 
ATOM      3  C   UNL     1      48.730   8.047  11.652  0.00  0.00    +0.000 A 
ATOM      4  C   UNL     1      47.436   7.549  11.823  0.00  0.00    +0.000 A 
ATOM      5  C   UNL     1      47.052   7.017  13.050  0.00  0.00    +0.000 A 
ATOM      6  N   UNL     1      45.805   6.544  13.320  0.00  0.00    +0.000 N 
ATOM      7  N   UNL     1      47.918   6.945  14.081  0.00  0.00    +0.000 NA
ATOM      8  C   UNL     1      49.174   7.428  13.901  0.00  0.00    +0.000 A 
ATOM      9  H   UNL     1      45.722   6.131  14.239  0.00  0.00    +0.000 HD
BRANCH   2  11
ATOM     10  N   UNL     1      51.954   7.857  13.363  0.00  0.00    +0.000 N 
ATOM     11  C   UNL     1      50.997   8.523  12.648  0.00  0.00    +0.000 C 
ATOM     12  O   UNL     1      51.282   9.485  11.948  0.00  0.00    +0.000 OA
ATOM     13  H   UNL     1      52.911   8.157  13.216  0.00  0.00    +0.000 HD
ATOM     14  H   UNL     1      51.809   6.929  13.734  0.00  0.00    +0.000 HD
ENDBRANCH   2  11
ENDBRANCH   1   6
BRANCH   1  15
ATOM     15  C   UNL     1      44.434   5.066  11.874  0.00  0.00    +0.000 A 
ATOM     16  C   UNL     1      43.537   4.160  12.450  0.00  0.00    +0.000 A 
ATOM     17  C   UNL     1      43.326   2.910  11.870  0.00  0.00    +0.000 A 
ATOM     18  C   UNL     1      43.999   2.553  10.699  0.00  0.00    +0.000 A 
ATOM     19  C   UNL     1      44.897   3.435  10.079  0.00  0.00    +0.000 A 
ATOM     20  C   UNL     1      45.107   4.684  10.697  0.00  0.00    +0.000 A 
BRANCH  19  21
ATOM     21  C   UNL     1      45.568   3.093   8.808  0.00  0.00    +0.000 A 
ATOM     22  C   UNL     1      45.885   4.068   7.852  0.00  0.00    +0.000 A 
ATOM     23  N   UNL     1      46.527   3.838   6.678  0.00  0.00    +0.000 NA
ATOM     24  C   UNL     1      46.890   2.559   6.434  0.00  0.00    +0.000 A 
ATOM     25  C   UNL     1      46.628   1.519   7.305  0.00  0.00    +0.000 A 
ATOM     26  F   UNL     1      47.020   0.272   7.016  0.00  0.00    +0.000 F 
ATOM     27  C   UNL     1      45.960   1.783   8.496  0.00  0.00    +0.000 A 
ENDBRANCH  19  21
ENDBRANCH   1  15
TORSDOF 4
ENDMDL
MODEL 4
REMARK VINA RESULT:    -7.684      3.894      8.433
REMARK INTER + INTRA:         -10.064
REMARK INTER:                  -9.642
REMARK INTRA:                  -0.421
REMARK UNBOUND:                -0.583
REMARK  Name = 
REMARK  4 active torsions:
REMARK  status: ('A' for Active; 'I' for Inactive)
REMARK    1  A    between atoms: C_2  and  C_4
REMARK    2  A    between atoms: N_8  and  C_9
REMARK    3  A    between atoms: C_9  and  C_10
REMARK    4  A    between atoms: C_14  and  C_15
REMARK                            x       y       z     vdW  Elec       q    Type
REMARK                         _______ _______ _______ _____ _____    ______ ____
ROOT
ATOM      1  C   UNL     1      46.206   5.495  13.705  0.00  0.00    +0.000 C 
ENDROOT
BRANCH   1   6
ATOM      2  C   UNL     1      48.667   4.401  18.123  0.00  0.00    +0.000 A 
ATOM      3  C   UNL     1      48.723   5.538  17.324  0.00  0.00    +0.000 A 
ATOM      4  C   UNL     1      47.958   5.586  16.156  0.00  0.00    +0.000 A 
ATOM      5  C   UNL     1      47.155   4.505  15.806  0.00  0.00    +0.000 A 
ATOM      6  N   UNL     1      46.349   4.475  14.710  0.00  0.00    +0.000 N 
ATOM      7  N   UNL     1      47.120   3.388  16.562  0.00  0.00    +0.000 NA
ATOM      8  C   UNL     1      47.872   3.352  17.692  0.00  0.00    +0.000 A 
ATOM      9  H   UNL     1      45.890   3.585  14.573  0.00  0.00    +0.000 HD
BRANCH   2  11
ATOM     10  N   UNL     1      48.720   3.859  20.488  0.00  0.00    +0.000 N 
ATOM     11  C   UNL     1      49.420   4.264  19.385  0.00  0.00    +0.000 C 
ATOM     12  O   UNL     1      50.626   4.468  19.437  0.00  0.00    +0.000 OA
ATOM     13  H   UNL     1      49.267   3.664  21.318  0.00  0.00    +0.000 HD
ATOM     14  H   UNL     1      47.802   3.442  20.427  0.00  0.00    +0.000 HD
ENDBRANCH   2  11
ENDBRANCH   1   6
BRANCH   1  15
ATOM     15  C   UNL     1      45.207   5.164  12.618  0.00  0.00    +0.000 A 
ATOM     16  C   UNL     1      43.856   5.523  12.667  0.00  0.00    +0.000 A 
ATOM     17  C   UNL     1      43.005   5.216  11.606  0.00  0.00    +0.000 A 
ATOM     18  C   UNL     1      43.495   4.557  10.477  0.00  0.00    +0.000 A 
ATOM     19  C   UNL     1      44.846   4.189  10.379  0.00  0.00    +0.000 A 
ATOM     20  C   UNL     1      45.680   4.494  11.473  0.00  0.00    +0.000 A 
BRANCH  19  21
ATOM     21  C   UNL     1      45.390   3.546   9.164  0.00  0.00    +0.000 A 
ATOM     22  C   UNL     1      45.798   4.292   8.051  0.00  0.00    +0.000 A 
ATOM     23  N   UNL     1      46.334   3.778   6.914  0.00  0.00    +0.000 NA
ATOM     24  C   UNL     1      46.487   2.436   6.878  0.00  0.00    +0.000 A 
ATOM     25  C   UNL     1      46.119   1.604   7.917  0.00  0.00    +0.000 A 
ATOM     26  F   UNL     1      46.302   0.281   7.829  0.00  0.00    +0.000 F 
ATOM     27  C   UNL     1      45.562   2.157   9.065  0.00  0.00    +0.000 A 
ENDBRANCH  19  21
ENDBRANCH   1  15
TORSDOF 4
ENDMDL
MODEL 5
REMARK VINA RESULT:    -7.268      3.125      4.069
REMARK INTER + INTRA:          -9.550
REMARK INTER:                  -8.847
REMARK INTRA:                  -0.703
REMARK UNBOUND:                -0.583
REMARK  Name = 
REMARK  4 active torsions:
REMARK  status: ('A' for Active; 'I' for Inactive)
REMARK    1  A    between atoms: C_2  and  C_4
REMARK    2  A    between atoms: N_8  and  C_9
REMARK    3  A    between atoms: C_9  and  C_10
REMARK    4  A    between atoms: C_14  and  C_15
REMARK                            x       y       z     vdW  Elec       q    Type
REMARK                         _______ _______ _______ _____ _____    ______ ____
ROOT
ATOM      1  C   UNL     1      44.116   4.965  11.500  0.00  0.00    +0.000 C 
ENDROOT
BRANCH   1   6
ATOM      2  C   UNL     1      46.557   3.042   7.363  0.00  0.00    +0.000 A 
ATOM      3  C   UNL     1      46.433   4.357   7.799  0.00  0.00    +0.000 A 
ATOM      4  C   UNL     1      45.703   4.622   8.960  0.00  0.00    +0.000 A 
ATOM      5  C   UNL     1      45.110   3.576   9.661  0.00  0.00    +0.000 A 
ATOM      6  N   UNL     1      44.412   3.732  10.820  0.00  0.00    +0.000 N 
ATOM      7  N   UNL     1      45.202   2.303   9.226  0.00  0.00    +0.000 NA
ATOM      8  C   UNL     1      45.912   2.060   8.094  0.00  0.00    +0.000 A 
ATOM      9  H   UNL     1      43.993   2.875  11.154  0.00  0.00    +0.000 HD
BRANCH   2  11
ATOM     10  N   UNL     1      48.642   2.336   6.342  0.00  0.00    +0.000 N 
ATOM     11  C   UNL     1      47.326   2.660   6.162  0.00  0.00    +0.000 C 
ATOM     12  O   UNL     1      46.802   2.600   5.058  0.00  0.00    +0.000 OA
ATOM     13  H   UNL     1      49.127   1.971   5.531  0.00  0.00    +0.000 HD
ATOM     14  H   UNL     1      49.032   2.128   7.250  0.00  0.00    +0.000 HD
ENDBRANCH   2  11
ENDBRANCH   1   6
BRANCH   1  15
ATOM     15  C   UNL     1      45.253   5.502  12.342  0.00  0.00    +0.000 A 
ATOM     16  C   UNL     1      45.999   4.721  13.230  0.00  0.00    +0.000 A 
ATOM     17  C   UNL     1      47.059   5.280  13.943  0.00  0.00    +0.000 A 
ATOM     18  C   UNL     1      47.395   6.624  13.769  0.00  0.00    +0.000 A 
ATOM     19  C   UNL     1      46.682   7.442  12.878  0.00  0.00    +0.000 A 
ATOM     20  C   UNL     1      45.604   6.857  12.186  0.00  0.00    +0.000 A 
BRANCH  19  21
ATOM     21  C   UNL     1      47.066   8.849  12.640  0.00  0.00    +0.000 A 
ATOM     22  C   UNL     1      46.277   9.710  11.865  0.00  0.00    +0.000 A 
ATOM     23  N   UNL     1      46.546  11.020  11.626  0.00  0.00    +0.000 NA
ATOM     24  C   UNL     1      47.664  11.516  12.199  0.00  0.00    +0.000 A 
ATOM     25  C   UNL     1      48.514  10.758  12.982  0.00  0.00    +0.000 A 
ATOM     26  F   UNL     1      49.604  11.306  13.533  0.00  0.00    +0.000 F 
ATOM     27  C   UNL     1      48.220   9.417  13.200  0.00  0.00    +0.000 A 
ENDBRANCH  19  21
ENDBRANCH   1  15
TORSDOF 4
ENDMDL
MODEL 6
REMARK VINA RESULT:    -7.210      3.693      7.852
REMARK INTER + INTRA:          -9.479
REMARK INTER:                  -9.388
REMARK INTRA:                  -0.091
REMARK UNBOUND:                -0.583
REMARK  Name = 
REMARK  4 active torsions:
REMARK  status: ('A' for Active; 'I' for Inactive)
REMARK    1  A    between atoms: C_2  and  C_4
REMARK    2  A    between atoms: N_8  and  C_9
REMARK    3  A    between atoms: C_9  and  C_10
REMARK    4  A    between atoms: C_14  and  C_15
REMARK                            x       y       z     vdW  Elec       q    Type
REMARK                         _______ _______ _______ _____ _____    ______ ____
ROOT
ATOM      1  C   UNL     1      48.713   7.754  12.463  0.00  0.00    +0.000 C 
ENDROOT
BRANCH   1   6
ATOM      2  C   UNL     1      47.754   4.783  16.589  0.00  0.00    +0.000 A 
ATOM      3  C   UNL     1      47.305   4.667  15.278  0.00  0.00    +0.000 A 
ATOM      4  C   UNL     1      47.705   5.619  14.337  0.00  0.00    +0.000 A 
ATOM      5  C   UNL     1      48.540   6.664  14.717  0.00  0.00    +0.000 A 
ATOM      6  N   UNL     1      49.011   7.615  13.864  0.00  0.00    +0.000 N 
ATOM      7  N   UNL     1      48.954   6.797  15.994  0.00  0.00    +0.000 NA
ATOM      8  C   UNL     1      48.555   5.868  16.900  0.00  0.00    +0.000 A 
ATOM      9  H   UNL     1      49.548   8.337  14.325  0.00  0.00    +0.000 HD
BRANCH   2  11
ATOM     10  N   UNL     1      47.904   4.056  18.900  0.00  0.00    +0.000 N 
ATOM     11  C   UNL     1      47.405   3.817  17.649  0.00  0.00    +0.000 C 
ATOM     12  O   UNL     1      46.671   2.862  17.430  0.00  0.00    +0.000 OA
ATOM     13  H   UNL     1      47.568   3.450  19.638  0.00  0.00    +0.000 HD
ATOM     14  H   UNL     1      48.288   4.951  19.171  0.00  0.00    +0.000 HD
ENDBRANCH   2  11
ENDBRANCH   1   6
BRANCH   1  15
ATOM     15  C   UNL     1      47.252   7.574  12.115  0.00  0.00    +0.000 A 
ATOM     16  C   UNL     1      46.264   8.526  12.386  0.00  0.00    +0.000 A 
ATOM     17  C   UNL     1      44.944   8.303  11.999  0.00  0.00    +0.000 A 
ATOM     18  C   UNL     1      44.595   7.131  11.325  0.00  0.00    +0.000 A 
ATOM     19  C   UNL     1      45.555   6.154  11.020  0.00  0.00    +0.000 A 
ATOM     20  C   UNL     1      46.878   6.395  11.440  0.00  0.00    +0.000 A 
BRANCH  19  21
ATOM     21  C   UNL     1      45.210   4.938  10.254  0.00  0.00    +0.000 A 
ATOM     22  C   UNL     1      44.412   3.923  10.797  0.00  0.00    +0.000 A 
ATOM     23  N   UNL     1      44.027   2.794  10.147  0.00  0.00    +0.000 NA
ATOM     24  C   UNL     1      44.452   2.663   8.872  0.00  0.00    +0.000 A 
ATOM     25  C   UNL     1      45.243   3.601   8.236  0.00  0.00    +0.000 A 
ATOM     26  F   UNL     1      45.626   3.423   6.967  0.00  0.00    +0.000 F 
ATOM     27  C   UNL     1      45.630   4.742   8.930  0.00  0.00    +0.000 A 
ENDBRANCH  19  21
ENDBRANCH   1  15
TORSDOF 4
ENDMDL
MODEL 7
REMARK VINA RESULT:    -7.004      4.268      8.683
REMARK INTER + INTRA:          -9.224
REMARK INTER:                  -8.718
REMARK INTRA:                  -0.506
REMARK UNBOUND:                -0.583
REMARK  Name = 
REMARK  4 active torsions:
REMARK  status: ('A' for Active; 'I' for Inactive)
REMARK    1  A    between atoms: C_2  and  C_4
REMARK    2  A    between atoms: N_8  and  C_9
REMARK    3  A    between atoms: C_9  and  C_10
REMARK    4  A    between atoms: C_14  and  C_15
REMARK                            x       y       z     vdW  Elec       q    Type
REMARK                         _______ _______ _______ _____ _____    ______ ____
ROOT
ATOM      1  C   UNL     1      47.907   7.336  14.007  0.00  0.00    +0.000 C 
ENDROOT
BRANCH   1   6
ATOM      2  C   UNL     1      49.024   5.282  18.623  0.00  0.00    +0.000 A 
ATOM      3  C   UNL     1      49.000   6.612  18.217  0.00  0.00    +0.000 A 
ATOM      4  C   UNL     1      48.671   6.911  16.892  0.00  0.00    +0.000 A 
ATOM      5  C   UNL     1      48.376   5.885  16.001  0.00  0.00    +0.000 A 
ATOM      6  N   UNL     1      48.010   6.081  14.704  0.00  0.00    +0.000 N 
ATOM      7  N   UNL     1      48.427   4.593  16.382  0.00  0.00    +0.000 NA
ATOM      8  C   UNL     1      48.752   4.315  17.671  0.00  0.00    +0.000 A 
ATOM      9  H   UNL     1      47.901   5.222  14.183  0.00  0.00    +0.000 HD
BRANCH   2  11
ATOM     10  N   UNL     1      48.611   3.830  20.524  0.00  0.00    +0.000 N 
ATOM     11  C   UNL     1      49.337   4.867  20.005  0.00  0.00    +0.000 C 
ATOM     12  O   UNL     1      50.231   5.401  20.647  0.00  0.00    +0.000 OA
ATOM     13  H   UNL     1      48.909   3.485  21.428  0.00  0.00    +0.000 HD
ATOM     14  H   UNL     1      48.059   3.211  19.948  0.00  0.00    +0.000 HD
ENDBRANCH   2  11
ENDBRANCH   1   6
BRANCH   1  15
ATOM     15  C   UNL     1      46.734   7.427  13.057  0.00  0.00    +0.000 A 
ATOM     16  C   UNL     1      45.991   8.593  12.845  0.00  0.00    +0.000 A 
ATOM     17  C   UNL     1      44.947   8.608  11.922  0.00  0.00    +0.000 A 
ATOM     18  C   UNL     1      44.639   7.461  11.188  0.00  0.00    +0.000 A 
ATOM     19  C   UNL     1      45.365   6.272  11.357  0.00  0.00    +0.000 A 
ATOM     20  C   UNL     1      46.402   6.279  12.310  0.00  0.00    +0.000 A 
BRANCH  19  21
ATOM     21  C   UNL     1      45.088   5.071  10.543  0.00  0.00    +0.000 A 
ATOM     22  C   UNL     1      44.314   4.009  11.030  0.00  0.00    +0.000 A 
ATOM     23  N   UNL     1      43.991   2.888  10.334  0.00  0.00    +0.000 NA
ATOM     24  C   UNL     1      44.455   2.815   9.068  0.00  0.00    +0.000 A 
ATOM     25  C   UNL     1      45.227   3.803   8.486  0.00  0.00    +0.000 A 
ATOM     26  F   UNL     1      45.651   3.680   7.222  0.00  0.00    +0.000 F 
ATOM     27  C   UNL     1      45.551   4.934   9.226  0.00  0.00    +0.000 A 
ENDBRANCH  19  21
ENDBRANCH   1  15
TORSDOF 4
ENDMDL
MODEL 8
REMARK VINA RESULT:    -6.868      4.262      8.485
REMARK INTER + INTRA:          -9.057
REMARK INTER:                  -8.374
REMARK INTRA:                  -0.682
REMARK UNBOUND:                -0.583
REMARK  Name = 
REMARK  4 active torsions:
REMARK  status: ('A' for Active; 'I' for Inactive)
REMARK    1  A    between atoms: C_2  and  C_4
REMARK    2  A    between atoms: N_8  and  C_9
REMARK    3  A    between atoms: C_9  and  C_10
REMARK    4  A    between atoms: C_14  and  C_15
REMARK                            x       y       z     vdW  Elec       q    Type
REMARK                         _______ _______ _______ _____ _____    ______ ____
ROOT
ATOM      1  C   UNL     1      47.462   4.161  16.732  0.00  0.00    +0.000 C 
ENDROOT
BRANCH   1   6
ATOM      2  C   UNL     1      52.174   2.469  18.039  0.00  0.00    +0.000 A 
ATOM      3  C   UNL     1      51.593   3.721  18.208  0.00  0.00    +0.000 A 
ATOM      4  C   UNL     1      50.289   3.932  17.754  0.00  0.00    +0.000 A 
ATOM      5  C   UNL     1      49.592   2.897  17.139  0.00  0.00    +0.000 A 
ATOM      6  N   UNL     1      48.308   2.997  16.698  0.00  0.00    +0.000 N 
ATOM      7  N   UNL     1      50.162   1.690  16.945  0.00  0.00    +0.000 NA
ATOM      8  C   UNL     1      51.431   1.499  17.388  0.00  0.00    +0.000 A 
ATOM      9  H   UNL     1      47.984   2.170  16.215  0.00  0.00    +0.000 HD
BRANCH   2  11
ATOM     10  N   UNL     1      54.437   3.170  18.565  0.00  0.00    +0.000 N 
ATOM     11  C   UNL     1      53.536   2.143  18.505  0.00  0.00    +0.000 C 
ATOM     12  O   UNL     1      53.839   1.011  18.858  0.00  0.00    +0.000 OA
ATOM     13  H   UNL     1      55.332   2.955  18.989  0.00  0.00    +0.000 HD
ATOM     14  H   UNL     1      54.159   4.140  18.531  0.00  0.00    +0.000 HD
ENDBRANCH   2  11
ENDBRANCH   1   6
BRANCH   1  15
ATOM     15  C   UNL     1      47.457   4.966  15.451  0.00  0.00    +0.000 A 
ATOM     16  C   UNL     1      48.315   6.042  15.204  0.00  0.00    +0.000 A 
ATOM     17  C   UNL     1      48.277   6.711  13.982  0.00  0.00    +0.000 A 
ATOM     18  C   UNL     1      47.388   6.305  12.984  0.00  0.00    +0.000 A 
ATOM     19  C   UNL     1      46.517   5.221  13.182  0.00  0.00    +0.000 A 
ATOM     20  C   UNL     1      46.563   4.577  14.434  0.00  0.00    +0.000 A 
BRANCH  19  21
ATOM     21  C   UNL     1      45.616   4.744  12.114  0.00  0.00    +0.000 A 
ATOM     22  C   UNL     1      45.649   5.284  10.821  0.00  0.00    +0.000 A 
ATOM     23  N   UNL     1      44.877   4.879   9.780  0.00  0.00    +0.000 NA
ATOM     24  C   UNL     1      44.019   3.866  10.030  0.00  0.00    +0.000 A 
ATOM     25  C   UNL     1      43.902   3.260  11.266  0.00  0.00    +0.000 A 
ATOM     26  F   UNL     1      43.040   2.253  11.453  0.00  0.00    +0.000 F 
ATOM     27  C   UNL     1      44.698   3.703  12.316  0.00  0.00    +0.000 A 
ENDBRANCH  19  21
ENDBRANCH   1  15
TORSDOF 4
ENDMDL
MODEL 9
REMARK VINA RESULT:    -6.606      3.137      4.749
REMARK INTER + INTRA:          -8.733
REMARK INTER:                  -8.015
REMARK INTRA:                  -0.718
REMARK UNBOUND:                -0.583
REMARK  Name = 
REMARK  4 active torsions:
REMARK  status: ('A' for Active; 'I' for Inactive)
REMARK    1  A    between atoms: C_2  and  C_4
REMARK    2  A    between atoms: N_8  and  C_9
REMARK    3  A    between atoms: C_9  and  C_10
REMARK    4  A    between atoms: C_14  and  C_15
REMARK                            x       y       z     vdW  Elec       q    Type
REMARK                         _______ _______ _______ _____ _____    ______ ____
ROOT
ATOM      1  C   UNL     1      45.985   8.897  12.276  0.00  0.00    +0.000 C 
ENDROOT
BRANCH   1   6
ATOM      2  C   UNL     1      44.186   4.122  11.424  0.00  0.00    +0.000 A 
ATOM      3  C   UNL     1      45.027   4.913  10.650  0.00  0.00    +0.000 A 
ATOM      4  C   UNL     1      45.363   6.192  11.102  0.00  0.00    +0.000 A 
ATOM      5  C   UNL     1      44.855   6.657  12.311  0.00  0.00    +0.000 A 
ATOM      6  N   UNL     1      45.155   7.871  12.849  0.00  0.00    +0.000 N 
ATOM      7  N   UNL     1      44.015   5.904  13.051  0.00  0.00    +0.000 NA
ATOM      8  C   UNL     1      43.693   4.665  12.598  0.00  0.00    +0.000 A 
ATOM      9  H   UNL     1      44.643   8.071  13.697  0.00  0.00    +0.000 HD
BRANCH   2  11
ATOM     10  N   UNL     1      44.437   2.191   9.975  0.00  0.00    +0.000 N 
ATOM     11  C   UNL     1      43.792   2.751  11.043  0.00  0.00    +0.000 C 
ATOM     12  O   UNL     1      42.951   2.127  11.675  0.00  0.00    +0.000 OA
ATOM     13  H   UNL     1      44.237   1.215   9.793  0.00  0.00    +0.000 HD
ATOM     14  H   UNL     1      45.297   2.568   9.600  0.00  0.00    +0.000 HD
ENDBRANCH   2  11
ENDBRANCH   1   6
BRANCH   1  15
ATOM     15  C   UNL     1      47.464   8.727  12.548  0.00  0.00    +0.000 A 
ATOM     16  C   UNL     1      48.469   9.351  11.802  0.00  0.00    +0.000 A 
ATOM     17  C   UNL     1      49.811   9.176  12.139  0.00  0.00    +0.000 A 
ATOM     18  C   UNL     1      50.165   8.385  13.233  0.00  0.00    +0.000 A 
ATOM     19  C   UNL     1      49.190   7.751  14.019  0.00  0.00    +0.000 A 
ATOM     20  C   UNL     1      47.844   7.928  13.644  0.00  0.00    +0.000 A 
BRANCH  19  21
ATOM     21  C   UNL     1      49.549   6.962  15.215  0.00  0.00    +0.000 A 
ATOM     22  C   UNL     1      50.850   6.958  15.737  0.00  0.00    +0.000 A 
ATOM     23  N   UNL     1      51.249   6.285  16.847  0.00  0.00    +0.000 NA
ATOM     24  C   UNL     1      50.298   5.575  17.491  0.00  0.00    +0.000 A 
ATOM     25  C   UNL     1      48.985   5.507  17.066  0.00  0.00    +0.000 A 
ATOM     26  F   UNL     1      48.083   4.794  17.751  0.00  0.00    +0.000 F 
ATOM     27  C   UNL     1      48.607   6.198  15.920  0.00  0.00    +0.000 A 
ENDBRANCH  19  21
ENDBRANCH   1  15
TORSDOF 4
ENDMDL
