MODEL 1
REMARK VINA RESULT:    -9.143      0.000      0.000
REMARK INTER + INTRA:         -14.183
REMARK INTER:                 -12.884
REMARK INTRA:                  -1.299
REMARK UNBOUND:                -1.299
REMARK  Name = 
REMARK  7 active torsions:
REMARK  status: ('A' for Active; 'I' for Inactive)
REMARK    1  A    between atoms: C_2  and  C_4
REMARK    2  A    between atoms: C_7  and  N_8
REMARK    3  A    between atoms: N_8  and  C_9
REMARK    4  A    between atoms: C_9  and  C_10
REMARK    5  A    between atoms: C_10  and  C_13
REMARK    6  A    between atoms: C_15  and  C_16
REMARK    7  A    between atoms: C_19  and  C_20
REMARK                            x       y       z     vdW  Elec       q    Type
REMARK                         _______ _______ _______ _____ _____    ______ ____
ROOT
ATOM      1  C   UNL     1      43.269   5.512  12.040  0.00  0.00    +0.000 C 
ATOM      2  F   UNL     1      42.573   6.593  11.569  0.00  0.00    +0.000 F 
ATOM      3  F   UNL     1      42.661   5.194  13.231  0.00  0.00    +0.000 F 
ENDROOT
BRANCH   1   4
ATOM      4  C   UNL     1      44.745   5.836  12.237  0.00  0.00    +0.000 A 
ATOM      5  C   UNL     1      45.372   5.417  13.411  0.00  0.00    +0.000 A 
ATOM      6  C   UNL     1      46.738   5.669  13.614  0.00  0.00    +0.000 A 
ATOM      7  C   UNL     1      47.413   6.359  12.598  0.00  0.00    +0.000 A 
ATOM      8  C   UNL     1      46.720   6.763  11.469  0.00  0.00    +0.000 A 
ATOM      9  N   UNL     1      45.414   6.514  11.266  0.00  0.00    +0.000 NA
BRANCH   6  10
ATOM     10  C   UNL     1      47.436   5.229  14.846  0.00  0.00    +0.000 A 
ATOM     11  C   UNL     1      48.403   6.036  15.473  0.00  0.00    +0.000 A 
ATOM     12  C   UNL     1      49.069   5.616  16.629  0.00  0.00    +0.000 A 
ATOM     13  C   UNL     1      48.780   4.376  17.211  0.00  0.00    +0.000 A 
ATOM     14  C   UNL     1      47.812   3.565  16.603  0.00  0.00    +0.000 A 
ATOM     15  C   UNL     1      47.160   3.985  15.438  0.00  0.00    +0.000 A 
BRANCH  13  16
ATOM     16  C   UNL     1      49.484   3.906  18.456  0.00  0.00    +0.000 C 
ATOM     17  F   UNL     1      50.054   4.913  19.175  0.00  0.00    +0.000 F 
ATOM     18  F   UNL     1      48.646   3.262  19.315  0.00  0.00    +0.000 F 
ATOM     19  F   UNL     1      50.489   3.028  18.186  0.00  0.00    +0.000 F 
ENDBRANCH  13  16
ENDBRANCH   6  10
ENDBRANCH   1   4
BRANCH   1  20
ATOM     20  C   UNL     1      43.074   4.322  11.073  0.00  0.00    +0.000 C 
BRANCH  20  21
ATOM     21  N   UNL     1      43.511   4.606   9.695  0.00  0.00    +0.000 N 
ATOM     22  H   UNL     1      42.756   4.844   9.052  0.00  0.00    +0.000 HD
BRANCH  21  26
ATOM     23  C   UNL     1      46.421   2.228   7.788  0.00  0.00    +0.000 A 
ATOM     24  C   UNL     1      46.425   3.608   7.581  0.00  0.00    +0.000 A 
ATOM     25  C   UNL     1      45.480   4.414   8.229  0.00  0.00    +0.000 A 
ATOM     26  C   UNL     1      44.539   3.870   9.111  0.00  0.00    +0.000 A 
ATOM     27  C   UNL     1      44.549   2.482   9.302  0.00  0.00    +0.000 A 
ATOM     28  C   UNL     1      45.474   1.664   8.645  0.00  0.00    +0.000 A 
BRANCH  23  30
ATOM     29  N   UNL     1      48.458   1.900   6.495  0.00  0.00    +0.000 N 
ATOM     30  C   UNL     1      47.363   1.326   7.077  0.00  0.00    +0.000 C 
ATOM     31  O   UNL     1      47.188   0.116   7.034  0.00  0.00    +0.000 OA
ATOM     32  H   UNL     1      49.138   1.262   6.100  0.00  0.00    +0.000 HD
ATOM     33  H   UNL     1      48.765   2.835   6.719  0.00  0.00    +0.000 HD
ENDBRANCH  23  30
ENDBRANCH  21  26
ENDBRANCH  20  21
ENDBRANCH   1  20
TORSDOF 7
ENDMDL
MODEL 2
REMARK VINA RESULT:    -8.517      3.045      3.900
REMARK INTER + INTRA:         -13.301
REMARK INTER:                 -11.857
REMARK INTRA:                  -1.443
REMARK UNBOUND:                -1.299
REMARK  Name = 
REMARK  7 active torsions:
REMARK  status: ('A' for Active; 'I' for Inactive)
REMARK    1  A    between atoms: C_2  and  C_4
REMARK    2  A    between atoms: C_7  and  N_8
REMARK    3  A    between atoms: N_8  and  C_9
REMARK    4  A    between atoms: C_9  and  C_10
REMARK    5  A    between atoms: C_10  and  C_13
REMARK    6  A    between atoms: C_15  and  C_16
REMARK    7  A    between atoms: C_19  and  C_20
REMARK                            x       y       z     vdW  Elec       q    Type
REMARK                         _______ _______ _______ _____ _____    ______ ____
ROOT
ATOM      1  C   UNL     1      44.202   4.032  12.537  0.00  0.00    +0.000 C 
ATOM      2  F   UNL     1      43.491   3.949  13.704  0.00  0.00    +0.000 F 
ATOM      3  F   UNL     1      45.257   3.168  12.706  0.00  0.00    +0.000 F 
ENDROOT
BRANCH   1   4
ATOM      4  C   UNL     1      44.682   5.453  12.271  0.00  0.00    +0.000 A 
ATOM      5  C   UNL     1      46.014   5.772  12.538  0.00  0.00    +0.000 A 
ATOM      6  C   UNL     1      46.501   7.063  12.276  0.00  0.00    +0.000 A 
ATOM      7  C   UNL     1      45.589   7.990  11.754  0.00  0.00    +0.000 A 
ATOM      8  C   UNL     1      44.275   7.608  11.533  0.00  0.00    +0.000 A 
ATOM      9  N   UNL     1      43.808   6.370  11.773  0.00  0.00    +0.000 NA
BRANCH   6  10
ATOM     10  C   UNL     1      47.912   7.430  12.540  0.00  0.00    +0.000 A 
ATOM     11  C   UNL     1      48.787   7.790  11.499  0.00  0.00    +0.000 A 
ATOM     12  C   UNL     1      50.122   8.126  11.747  0.00  0.00    +0.000 A 
ATOM     13  C   UNL     1      50.628   8.130  13.053  0.00  0.00    +0.000 A 
ATOM     14  C   UNL     1      49.765   7.784  14.101  0.00  0.00    +0.000 A 
ATOM     15  C   UNL     1      48.435   7.435  13.845  0.00  0.00    +0.000 A 
BRANCH  13  16
ATOM     16  C   UNL     1      52.061   8.491  13.342  0.00  0.00    +0.000 C 
ATOM     17  F   UNL     1      52.244   9.809  13.636  0.00  0.00    +0.000 F 
ATOM     18  F   UNL     1      52.567   7.799  14.400  0.00  0.00    +0.000 F 
ATOM     19  F   UNL     1      52.887   8.226  12.293  0.00  0.00    +0.000 F 
ENDBRANCH  13  16
ENDBRANCH   6  10
ENDBRANCH   1   4
BRANCH   1  20
ATOM     20  C   UNL     1      43.333   3.500  11.375  0.00  0.00    +0.000 C 
BRANCH  20  21
ATOM     21  N   UNL     1      43.640   4.125  10.076  0.00  0.00    +0.000 N 
ATOM     22  H   UNL     1      42.838   4.542   9.606  0.00  0.00    +0.000 HD
BRANCH  21  26
ATOM     23  C   UNL     1      46.636   2.511   7.588  0.00  0.00    +0.000 A 
ATOM     24  C   UNL     1      45.876   1.654   8.387  0.00  0.00    +0.000 A 
ATOM     25  C   UNL     1      44.860   2.173   9.199  0.00  0.00    +0.000 A 
ATOM     26  C   UNL     1      44.562   3.542   9.210  0.00  0.00    +0.000 A 
ATOM     27  C   UNL     1      45.338   4.385   8.404  0.00  0.00    +0.000 A 
ATOM     28  C   UNL     1      46.369   3.882   7.605  0.00  0.00    +0.000 A 
BRANCH  23  30
ATOM     29  N   UNL     1      48.713   2.923   6.387  0.00  0.00    +0.000 N 
ATOM     30  C   UNL     1      47.762   2.015   6.758  0.00  0.00    +0.000 C 
ATOM     31  O   UNL     1      47.858   0.837   6.439  0.00  0.00    +0.000 OA
ATOM     32  H   UNL     1      49.522   2.550   5.906  0.00  0.00    +0.000 HD
ATOM     33  H   UNL     1      48.804   3.826   6.830  0.00  0.00    +0.000 HD
ENDBRANCH  23  30
ENDBRANCH  21  26
ENDBRANCH  20  21
ENDBRANCH   1  20
TORSDOF 7
ENDMDL
MODEL 3
REMARK VINA RESULT:    -8.369      3.727      5.131
REMARK INTER + INTRA:         -13.093
REMARK INTER:                 -11.938
REMARK INTRA:                  -1.154
REMARK UNBOUND:                -1.299
REMARK  Name = 
REMARK  7 active torsions:
REMARK  status: ('A' for Active; 'I' for Inactive)
REMARK    1  A    between atoms: C_2  and  C_4
REMARK    2  A    between atoms: C_7  and  N_8
REMARK    3  A    between atoms: N_8  and  C_9
REMARK    4  A    between atoms: C_9  and  C_10
REMARK    5  A    between atoms: C_10  and  C_13
REMARK    6  A    between atoms: C_15  and  C_16
REMARK    7  A    between atoms: C_19  and  C_20
REMARK                            x       y       z     vdW  Elec       q    Type
REMARK                         _______ _______ _______ _____ _____    ______ ____
ROOT
ATOM      1  C   UNL     1      44.409   4.421  12.493  0.00  0.00    +0.000 C 
ATOM      2  F   UNL     1      43.300   4.567  13.284  0.00  0.00    +0.000 F 
ATOM      3  F   UNL     1      44.472   3.076  12.221  0.00  0.00    +0.000 F 
ENDROOT
BRANCH   1   4
ATOM      4  C   UNL     1      45.669   4.908  13.198  0.00  0.00    +0.000 A 
ATOM      5  C   UNL     1      46.437   5.900  12.588  0.00  0.00    +0.000 A 
ATOM      6  C   UNL     1      47.588   6.396  13.221  0.00  0.00    +0.000 A 
ATOM      7  C   UNL     1      47.916   5.841  14.465  0.00  0.00    +0.000 A 
ATOM      8  C   UNL     1      47.117   4.843  15.000  0.00  0.00    +0.000 A 
ATOM      9  N   UNL     1      46.009   4.373  14.402  0.00  0.00    +0.000 NA
BRANCH   6  10
ATOM     10  C   UNL     1      48.420   7.456  12.603  0.00  0.00    +0.000 A 
ATOM     11  C   UNL     1      48.038   8.810  12.643  0.00  0.00    +0.000 A 
ATOM     12  C   UNL     1      48.817   9.809  12.051  0.00  0.00    +0.000 A 
ATOM     13  C   UNL     1      50.020   9.491  11.409  0.00  0.00    +0.000 A 
ATOM     14  C   UNL     1      50.419   8.148  11.369  0.00  0.00    +0.000 A 
ATOM     15  C   UNL     1      49.627   7.152  11.951  0.00  0.00    +0.000 A 
BRANCH  13  16
ATOM     16  C   UNL     1      50.875  10.551  10.767  0.00  0.00    +0.000 C 
ATOM     17  F   UNL     1      52.014  10.065  10.198  0.00  0.00    +0.000 F 
ATOM     18  F   UNL     1      50.219  11.218   9.777  0.00  0.00    +0.000 F 
ATOM     19  F   UNL     1      51.279  11.502  11.653  0.00  0.00    +0.000 F 
ENDBRANCH  13  16
ENDBRANCH   6  10
ENDBRANCH   1   4
BRANCH   1  20
ATOM     20  C   UNL     1      44.182   5.167  11.159  0.00  0.00    +0.000 C 
BRANCH  20  21
ATOM     21  N   UNL     1      43.693   4.298  10.074  0.00  0.00    +0.000 N 
ATOM     22  H   UNL     1      42.919   3.688  10.335  0.00  0.00    +0.000 HD
BRANCH  21  26
ATOM     23  C   UNL     1      46.603   2.684   7.488  0.00  0.00    +0.000 A 
ATOM     24  C   UNL     1      45.761   1.821   8.192  0.00  0.00    +0.000 A 
ATOM     25  C   UNL     1      44.772   2.344   9.035  0.00  0.00    +0.000 A 
ATOM     26  C   UNL     1      44.583   3.725   9.170  0.00  0.00    +0.000 A 
ATOM     27  C   UNL     1      45.441   4.574   8.458  0.00  0.00    +0.000 A 
ATOM     28  C   UNL     1      46.446   4.064   7.630  0.00  0.00    +0.000 A 
BRANCH  23  30
ATOM     29  N   UNL     1      47.994   2.888   5.500  0.00  0.00    +0.000 N 
ATOM     30  C   UNL     1      47.704   2.177   6.630  0.00  0.00    +0.000 C 
ATOM     31  O   UNL     1      48.349   1.181   6.931  0.00  0.00    +0.000 OA
ATOM     32  H   UNL     1      48.808   2.585   4.980  0.00  0.00    +0.000 HD
ATOM     33  H   UNL     1      47.665   3.830   5.352  0.00  0.00    +0.000 HD
ENDBRANCH  23  30
ENDBRANCH  21  26
ENDBRANCH  20  21
ENDBRANCH   1  20
TORSDOF 7
ENDMDL
MODEL 4
REMARK VINA RESULT:    -7.918      4.094      8.187
REMARK INTER + INTRA:         -12.456
REMARK INTER:                 -11.321
REMARK INTRA:                  -1.135
REMARK UNBOUND:                -1.299
REMARK  Name = 
REMARK  7 active torsions:
REMARK  status: ('A' for Active; 'I' for Inactive)
REMARK    1  A    between atoms: C_2  and  C_4
REMARK    2  A    between atoms: C_7  and  N_8
REMARK    3  A    between atoms: N_8  and  C_9
REMARK    4  A    between atoms: C_9  and  C_10
REMARK    5  A    between atoms: C_10  and  C_13
REMARK    6  A    between atoms: C_15  and  C_16
REMARK    7  A    between atoms: C_19  and  C_20
REMARK                            x       y       z     vdW  Elec       q    Type
REMARK                         _______ _______ _______ _____ _____    ______ ____
ROOT
ATOM      1  C   UNL     1      45.758   8.239  12.281  0.00  0.00    +0.000 C 
ATOM      2  F   UNL     1      45.451   8.503  13.589  0.00  0.00    +0.000 F 
ATOM      3  F   UNL     1      45.529   9.421  11.620  0.00  0.00    +0.000 F 
ENDROOT
BRANCH   1   4
ATOM      4  C   UNL     1      44.902   7.110  11.720  0.00  0.00    +0.000 A 
ATOM      5  C   UNL     1      45.482   6.211  10.825  0.00  0.00    +0.000 A 
ATOM      6  C   UNL     1      44.734   5.139  10.311  0.00  0.00    +0.000 A 
ATOM      7  C   UNL     1      43.402   5.037  10.733  0.00  0.00    +0.000 A 
ATOM      8  C   UNL     1      42.887   5.979  11.609  0.00  0.00    +0.000 A 
ATOM      9  N   UNL     1      43.604   7.001  12.111  0.00  0.00    +0.000 NA
BRANCH   6  10
ATOM     10  C   UNL     1      45.323   4.162   9.365  0.00  0.00    +0.000 A 
ATOM     11  C   UNL     1      45.129   2.777   9.520  0.00  0.00    +0.000 A 
ATOM     12  C   UNL     1      45.694   1.854   8.634  0.00  0.00    +0.000 A 
ATOM     13  C   UNL     1      46.464   2.285   7.547  0.00  0.00    +0.000 A 
ATOM     14  C   UNL     1      46.658   3.662   7.374  0.00  0.00    +0.000 A 
ATOM     15  C   UNL     1      46.102   4.579   8.272  0.00  0.00    +0.000 A 
BRANCH  13  16
ATOM     16  C   UNL     1      47.079   1.309   6.580  0.00  0.00    +0.000 C 
ATOM     17  F   UNL     1      48.437   1.396   6.505  0.00  0.00    +0.000 F 
ATOM     18  F   UNL     1      46.806   0.015   6.905  0.00  0.00    +0.000 F 
ATOM     19  F   UNL     1      46.626   1.479   5.308  0.00  0.00    +0.000 F 
ENDBRANCH  13  16
ENDBRANCH   6  10
ENDBRANCH   1   4
BRANCH   1  20
ATOM     20  C   UNL     1      47.266   7.916  12.170  0.00  0.00    +0.000 C 
BRANCH  20  21
ATOM     21  N   UNL     1      47.955   7.864  13.471  0.00  0.00    +0.000 N 
ATOM     22  H   UNL     1      48.847   8.355  13.498  0.00  0.00    +0.000 HD
BRANCH  21  26
ATOM     23  C   UNL     1      47.730   4.508  16.012  0.00  0.00    +0.000 A 
ATOM     24  C   UNL     1      47.101   4.465  14.766  0.00  0.00    +0.000 A 
ATOM     25  C   UNL     1      47.189   5.563  13.901  0.00  0.00    +0.000 A 
ATOM     26  C   UNL     1      47.925   6.705  14.243  0.00  0.00    +0.000 A 
ATOM     27  C   UNL     1      48.546   6.730  15.498  0.00  0.00    +0.000 A 
ATOM     28  C   UNL     1      48.447   5.649  16.380  0.00  0.00    +0.000 A 
BRANCH  23  30
ATOM     29  N   UNL     1      48.777   2.840  17.444  0.00  0.00    +0.000 N 
ATOM     30  C   UNL     1      47.615   3.395  16.987  0.00  0.00    +0.000 C 
ATOM     31  O   UNL     1      46.528   3.003  17.392  0.00  0.00    +0.000 OA
ATOM     32  H   UNL     1      48.682   2.151  18.179  0.00  0.00    +0.000 HD
ATOM     33  H   UNL     1      49.673   3.290  17.333  0.00  0.00    +0.000 HD
ENDBRANCH  23  30
ENDBRANCH  21  26
ENDBRANCH  20  21
ENDBRANCH   1  20
TORSDOF 7
ENDMDL
MODEL 5
REMARK VINA RESULT:    -7.193      4.308      8.150
REMARK INTER + INTRA:         -11.436
REMARK INTER:                  -9.686
REMARK INTRA:                  -1.750
REMARK UNBOUND:                -1.299
REMARK  Name = 
REMARK  7 active torsions:
REMARK  status: ('A' for Active; 'I' for Inactive)
REMARK    1  A    between atoms: C_2  and  C_4
REMARK    2  A    between atoms: C_7  and  N_8
REMARK    3  A    between atoms: N_8  and  C_9
REMARK    4  A    between atoms: C_9  and  C_10
REMARK    5  A    between atoms: C_10  and  C_13
REMARK    6  A    between atoms: C_15  and  C_16
REMARK    7  A    between atoms: C_19  and  C_20
REMARK                            x       y       z     vdW  Elec       q    Type
REMARK                         _______ _______ _______ _____ _____    ______ ____
ROOT
ATOM      1  C   UNL     1      49.476   8.975  16.159  0.00  0.00    +0.000 C 
ATOM      2  F   UNL     1      49.308  10.334  16.127  0.00  0.00    +0.000 F 
ATOM      3  F   UNL     1      50.702   8.787  16.749  0.00  0.00    +0.000 F 
ENDROOT
BRANCH   1   4
ATOM      4  C   UNL     1      49.431   8.371  14.761  0.00  0.00    +0.000 A 
ATOM      5  C   UNL     1      48.360   7.542  14.424  0.00  0.00    +0.000 A 
ATOM      6  C   UNL     1      48.268   6.992  13.135  0.00  0.00    +0.000 A 
ATOM      7  C   UNL     1      49.295   7.309  12.236  0.00  0.00    +0.000 A 
ATOM      8  C   UNL     1      50.338   8.122  12.647  0.00  0.00    +0.000 A 
ATOM      9  N   UNL     1      50.424   8.659  13.877  0.00  0.00    +0.000 NA
BRANCH   6  10
ATOM     10  C   UNL     1      47.139   6.115  12.743  0.00  0.00    +0.000 A 
ATOM     11  C   UNL     1      46.441   6.307  11.536  0.00  0.00    +0.000 A 
ATOM     12  C   UNL     1      45.369   5.487  11.171  0.00  0.00    +0.000 A 
ATOM     13  C   UNL     1      44.964   4.430  11.996  0.00  0.00    +0.000 A 
ATOM     14  C   UNL     1      45.656   4.219  13.196  0.00  0.00    +0.000 A 
ATOM     15  C   UNL     1      46.719   5.052  13.562  0.00  0.00    +0.000 A 
BRANCH  13  16
ATOM     16  C   UNL     1      43.814   3.534  11.621  0.00  0.00    +0.000 C 
ATOM     17  F   UNL     1      43.583   2.536  12.520  0.00  0.00    +0.000 F 
ATOM     18  F   UNL     1      42.640   4.214  11.509  0.00  0.00    +0.000 F 
ATOM     19  F   UNL     1      44.003   2.916  10.422  0.00  0.00    +0.000 F 
ENDBRANCH  13  16
ENDBRANCH   6  10
ENDBRANCH   1   4
BRANCH   1  20
ATOM     20  C   UNL     1      48.403   8.353  17.080  0.00  0.00    +0.000 C 
BRANCH  20  21
ATOM     21  N   UNL     1      48.965   7.532  18.168  0.00  0.00    +0.000 N 
ATOM     22  H   UNL     1      49.657   8.009  18.744  0.00  0.00    +0.000 HD
BRANCH  21  26
ATOM     23  C   UNL     1      49.724   3.481  17.289  0.00  0.00    +0.000 A 
ATOM     24  C   UNL     1      50.721   4.246  17.895  0.00  0.00    +0.000 A 
ATOM     25  C   UNL     1      50.474   5.587  18.217  0.00  0.00    +0.000 A 
ATOM     26  C   UNL     1      49.229   6.179  17.971  0.00  0.00    +0.000 A 
ATOM     27  C   UNL     1      48.242   5.395  17.359  0.00  0.00    +0.000 A 
ATOM     28  C   UNL     1      48.484   4.062  17.013  0.00  0.00    +0.000 A 
BRANCH  23  30
ATOM     29  N   UNL     1      50.850   1.346  17.610  0.00  0.00    +0.000 N 
ATOM     30  C   UNL     1      49.959   2.074  16.874  0.00  0.00    +0.000 C 
ATOM     31  O   UNL     1      49.362   1.572  15.931  0.00  0.00    +0.000 OA
ATOM     32  H   UNL     1      50.925   0.364  17.375  0.00  0.00    +0.000 HD
ATOM     33  H   UNL     1      51.164   1.636  18.524  0.00  0.00    +0.000 HD
ENDBRANCH  23  30
ENDBRANCH  21  26
ENDBRANCH  20  21
ENDBRANCH   1  20
TORSDOF 7
ENDMDL
MODEL 6
REMARK VINA RESULT:    -6.568      4.654      8.301
REMARK INTER + INTRA:         -10.555
REMARK INTER:                  -8.957
REMARK INTRA:                  -1.598
REMARK UNBOUND:                -1.299
REMARK  Name = 
REMARK  7 active torsions:
REMARK  status: ('A' for Active; 'I' for Inactive)
REMARK    1  A    between atoms: C_2  and  C_4
REMARK    2  A    between atoms: C_7  and  N_8
REMARK    3  A    between atoms: N_8  and  C_9
REMARK    4  A    between atoms: C_9  and  C_10
REMARK    5  A    between atoms: C_10  and  C_13
REMARK    6  A    between atoms: C_15  and  C_16
REMARK    7  A    between atoms: C_19  and  C_20
REMARK                            x       y       z     vdW  Elec       q    Type
REMARK                         _______ _______ _______ _____ _____    ______ ____
ROOT
ATOM      1  C   UNL     1      50.673   9.041  13.762  0.00  0.00    +0.000 C 
ATOM      2  F   UNL     1      51.438  10.149  13.515  0.00  0.00    +0.000 F 
ATOM      3  F   UNL     1      51.361   8.002  13.182  0.00  0.00    +0.000 F 
ENDROOT
BRANCH   1   4
ATOM      4  C   UNL     1      49.275   9.181  13.175  0.00  0.00    +0.000 A 
ATOM      5  C   UNL     1      48.515   8.029  12.972  0.00  0.00    +0.000 A 
ATOM      6  C   UNL     1      47.210   8.120  12.462  0.00  0.00    +0.000 A 
ATOM      7  C   UNL     1      46.733   9.405  12.167  0.00  0.00    +0.000 A 
ATOM      8  C   UNL     1      47.552  10.503  12.376  0.00  0.00    +0.000 A 
ATOM      9  N   UNL     1      48.799  10.420  12.873  0.00  0.00    +0.000 NA
BRANCH   6  10
ATOM     10  C   UNL     1      46.374   6.916  12.243  0.00  0.00    +0.000 A 
ATOM     11  C   UNL     1      45.281   6.929  11.356  0.00  0.00    +0.000 A 
ATOM     12  C   UNL     1      44.485   5.795  11.158  0.00  0.00    +0.000 A 
ATOM     13  C   UNL     1      44.764   4.599  11.830  0.00  0.00    +0.000 A 
ATOM     14  C   UNL     1      45.855   4.568  12.709  0.00  0.00    +0.000 A 
ATOM     15  C   UNL     1      46.638   5.709  12.914  0.00  0.00    +0.000 A 
BRANCH  13  16
ATOM     16  C   UNL     1      43.922   3.368  11.630  0.00  0.00    +0.000 C 
ATOM     17  F   UNL     1      44.336   2.584  10.595  0.00  0.00    +0.000 F 
ATOM     18  F   UNL     1      43.911   2.562  12.727  0.00  0.00    +0.000 F 
ATOM     19  F   UNL     1      42.618   3.664  11.371  0.00  0.00    +0.000 F 
ENDBRANCH  13  16
ENDBRANCH   6  10
ENDBRANCH   1   4
BRANCH   1  20
ATOM     20  C   UNL     1      50.626   8.788  15.286  0.00  0.00    +0.000 C 
BRANCH  20  21
ATOM     21  N   UNL     1      51.177   7.480  15.684  0.00  0.00    +0.000 N 
ATOM     22  H   UNL     1      51.835   7.078  15.017  0.00  0.00    +0.000 HD
BRANCH  21  26
ATOM     23  C   UNL     1      48.680   4.533  17.368  0.00  0.00    +0.000 A 
ATOM     24  C   UNL     1      50.044   4.524  17.667  0.00  0.00    +0.000 A 
ATOM     25  C   UNL     1      50.881   5.513  17.135  0.00  0.00    +0.000 A 
ATOM     26  C   UNL     1      50.377   6.539  16.326  0.00  0.00    +0.000 A 
ATOM     27  C   UNL     1      49.006   6.528  16.035  0.00  0.00    +0.000 A 
ATOM     28  C   UNL     1      48.164   5.534  16.543  0.00  0.00    +0.000 A 
BRANCH  23  30
ATOM     29  N   UNL     1      48.129   2.806  18.994  0.00  0.00    +0.000 N 
ATOM     30  C   UNL     1      47.764   3.472  17.858  0.00  0.00    +0.000 C 
ATOM     31  O   UNL     1      46.710   3.218  17.291  0.00  0.00    +0.000 OA
ATOM     32  H   UNL     1      47.449   2.156  19.368  0.00  0.00    +0.000 HD
ATOM     33  H   UNL     1      48.845   3.148  19.618  0.00  0.00    +0.000 HD
ENDBRANCH  23  30
ENDBRANCH  21  26
ENDBRANCH  20  21
ENDBRANCH   1  20
TORSDOF 7
ENDMDL
MODEL 7
REMARK VINA RESULT:    -6.275      4.779      9.344
REMARK INTER + INTRA:         -10.142
REMARK INTER:                  -9.168
REMARK INTRA:                  -0.974
REMARK UNBOUND:                -1.299
REMARK  Name = 
REMARK  7 active torsions:
REMARK  status: ('A' for Active; 'I' for Inactive)
REMARK    1  A    between atoms: C_2  and  C_4
REMARK    2  A    between atoms: C_7  and  N_8
REMARK    3  A    between atoms: N_8  and  C_9
REMARK    4  A    between atoms: C_9  and  C_10
REMARK    5  A    between atoms: C_10  and  C_13
REMARK    6  A    between atoms: C_15  and  C_16
REMARK    7  A    between atoms: C_19  and  C_20
REMARK                            x       y       z     vdW  Elec       q    Type
REMARK                         _______ _______ _______ _____ _____    ______ ____
ROOT
ATOM      1  C   UNL     1      46.647   4.397  14.691  0.00  0.00    +0.000 C 
ATOM      2  F   UNL     1      47.405   3.258  14.653  0.00  0.00    +0.000 F 
ATOM      3  F   UNL     1      46.042   4.376  15.925  0.00  0.00    +0.000 F 
ENDROOT
BRANCH   1   4
ATOM      4  C   UNL     1      45.618   4.426  13.567  0.00  0.00    +0.000 A 
ATOM      5  C   UNL     1      46.033   4.114  12.272  0.00  0.00    +0.000 A 
ATOM      6  C   UNL     1      45.109   4.099  11.215  0.00  0.00    +0.000 A 
ATOM      7  C   UNL     1      43.781   4.418  11.531  0.00  0.00    +0.000 A 
ATOM      8  C   UNL     1      43.446   4.737  12.836  0.00  0.00    +0.000 A 
ATOM      9  N   UNL     1      44.327   4.743  13.853  0.00  0.00    +0.000 NA
BRANCH   6  10
ATOM     10  C   UNL     1      45.516   3.763   9.830  0.00  0.00    +0.000 A 
ATOM     11  C   UNL     1      45.939   4.755   8.926  0.00  0.00    +0.000 A 
ATOM     12  C   UNL     1      46.312   4.440   7.615  0.00  0.00    +0.000 A 
ATOM     13  C   UNL     1      46.291   3.115   7.164  0.00  0.00    +0.000 A 
ATOM     14  C   UNL     1      45.881   2.115   8.056  0.00  0.00    +0.000 A 
ATOM     15  C   UNL     1      45.495   2.438   9.362  0.00  0.00    +0.000 A 
BRANCH  13  16
ATOM     16  C   UNL     1      46.691   2.754   5.759  0.00  0.00    +0.000 C 
ATOM     17  F   UNL     1      47.036   3.829   4.995  0.00  0.00    +0.000 F 
ATOM     18  F   UNL     1      47.760   1.912   5.722  0.00  0.00    +0.000 F 
ATOM     19  F   UNL     1      45.694   2.121   5.079  0.00  0.00    +0.000 F 
ENDBRANCH  13  16
ENDBRANCH   6  10
ENDBRANCH   1   4
BRANCH   1  20
ATOM     20  C   UNL     1      47.578   5.629  14.639  0.00  0.00    +0.000 C 
BRANCH  20  21
ATOM     21  N   UNL     1      48.038   6.077  15.965  0.00  0.00    +0.000 N 
ATOM     22  H   UNL     1      48.019   7.087  16.101  0.00  0.00    +0.000 HD
BRANCH  21  26
ATOM     23  C   UNL     1      51.288   4.386  18.048  0.00  0.00    +0.000 A 
ATOM     24  C   UNL     1      50.050   3.740  18.073  0.00  0.00    +0.000 A 
ATOM     25  C   UNL     1      48.968   4.276  17.364  0.00  0.00    +0.000 A 
ATOM     26  C   UNL     1      49.103   5.442  16.598  0.00  0.00    +0.000 A 
ATOM     27  C   UNL     1      50.352   6.077  16.590  0.00  0.00    +0.000 A 
ATOM     28  C   UNL     1      51.434   5.563  17.311  0.00  0.00    +0.000 A 
BRANCH  23  30
ATOM     29  N   UNL     1      52.679   2.542  18.820  0.00  0.00    +0.000 N 
ATOM     30  C   UNL     1      52.447   3.889  18.833  0.00  0.00    +0.000 C 
ATOM     31  O   UNL     1      53.185   4.649  19.444  0.00  0.00    +0.000 OA
ATOM     32  H   UNL     1      53.527   2.233  19.278  0.00  0.00    +0.000 HD
ATOM     33  H   UNL     1      52.258   1.925  18.141  0.00  0.00    +0.000 HD
ENDBRANCH  23  30
ENDBRANCH  21  26
ENDBRANCH  20  21
ENDBRANCH   1  20
TORSDOF 7
ENDMDL
MODEL 8
REMARK VINA RESULT:    -6.193      4.500      7.830
REMARK INTER + INTRA:         -10.026
REMARK INTER:                  -8.377
REMARK INTRA:                  -1.649
REMARK UNBOUND:                -1.299
REMARK  Name = 
REMARK  7 active torsions:
REMARK  status: ('A' for Active; 'I' for Inactive)
REMARK    1  A    between atoms: C_2  and  C_4
REMARK    2  A    between atoms: C_7  and  N_8
REMARK    3  A    between atoms: N_8  and  C_9
REMARK    4  A    between atoms: C_9  and  C_10
REMARK    5  A    between atoms: C_10  and  C_13
REMARK    6  A    between atoms: C_15  and  C_16
REMARK    7  A    between atoms: C_19  and  C_20
REMARK                            x       y       z     vdW  Elec       q    Type
REMARK                         _______ _______ _______ _____ _____    ______ ____
ROOT
ATOM      1  C   UNL     1      48.719   8.020  14.744  0.00  0.00    +0.000 C 
ATOM      2  F   UNL     1      49.468   6.889  14.560  0.00  0.00    +0.000 F 
ATOM      3  F   UNL     1      48.321   7.969  16.058  0.00  0.00    +0.000 F 
ENDROOT
BRANCH   1   4
ATOM      4  C   UNL     1      47.523   8.061  13.801  0.00  0.00    +0.000 A 
ATOM      5  C   UNL     1      47.230   6.928  13.040  0.00  0.00    +0.000 A 
ATOM      6  C   UNL     1      46.118   6.917  12.183  0.00  0.00    +0.000 A 
ATOM      7  C   UNL     1      45.346   8.085  12.132  0.00  0.00    +0.000 A 
ATOM      8  C   UNL     1      45.709   9.179  12.901  0.00  0.00    +0.000 A 
ATOM      9  N   UNL     1      46.768   9.191  13.730  0.00  0.00    +0.000 NA
BRANCH   6  10
ATOM     10  C   UNL     1      45.775   5.727  11.369  0.00  0.00    +0.000 A 
ATOM     11  C   UNL     1      45.877   5.740   9.966  0.00  0.00    +0.000 A 
ATOM     12  C   UNL     1      45.543   4.620   9.197  0.00  0.00    +0.000 A 
ATOM     13  C   UNL     1      45.108   3.437   9.806  0.00  0.00    +0.000 A 
ATOM     14  C   UNL     1      45.011   3.406  11.204  0.00  0.00    +0.000 A 
ATOM     15  C   UNL     1      45.333   4.534  11.967  0.00  0.00    +0.000 A 
BRANCH  13  16
ATOM     16  C   UNL     1      44.746   2.221   8.997  0.00  0.00    +0.000 C 
ATOM     17  F   UNL     1      44.160   2.513   7.802  0.00  0.00    +0.000 F 
ATOM     18  F   UNL     1      45.829   1.451   8.703  0.00  0.00    +0.000 F 
ATOM     19  F   UNL     1      43.872   1.403   9.648  0.00  0.00    +0.000 F 
ENDBRANCH  13  16
ENDBRANCH   6  10
ENDBRANCH   1   4
BRANCH   1  20
ATOM     20  C   UNL     1      49.622   9.262  14.568  0.00  0.00    +0.000 C 
BRANCH  20  21
ATOM     21  N   UNL     1      49.784   9.679  13.164  0.00  0.00    +0.000 N 
ATOM     22  H   UNL     1      48.919   9.962  12.703  0.00  0.00    +0.000 HD
BRANCH  21  26
ATOM     23  C   UNL     1      52.594   7.540  10.864  0.00  0.00    +0.000 A 
ATOM     24  C   UNL     1      51.233   7.390  10.592  0.00  0.00    +0.000 A 
ATOM     25  C   UNL     1      50.289   8.114  11.330  0.00  0.00    +0.000 A 
ATOM     26  C   UNL     1      50.679   9.018  12.327  0.00  0.00    +0.000 A 
ATOM     27  C   UNL     1      52.049   9.151  12.588  0.00  0.00    +0.000 A 
ATOM     28  C   UNL     1      53.001   8.417  11.872  0.00  0.00    +0.000 A 
BRANCH  23  30
ATOM     29  N   UNL     1      53.544   5.387  10.236  0.00  0.00    +0.000 N 
ATOM     30  C   UNL     1      53.628   6.748  10.150  0.00  0.00    +0.000 C 
ATOM     31  O   UNL     1      54.505   7.284   9.486  0.00  0.00    +0.000 OA
ATOM     32  H   UNL     1      54.196   4.864   9.665  0.00  0.00    +0.000 HD
ATOM     33  H   UNL     1      52.711   4.914  10.553  0.00  0.00    +0.000 HD
ENDBRANCH  23  30
ENDBRANCH  21  26
ENDBRANCH  20  21
ENDBRANCH   1  20
TORSDOF 7
ENDMDL
