MODEL 1
REMARK VINA RESULT:    -8.981      0.000      0.000
REMARK INTER + INTRA:         -12.597
REMARK INTER:                 -11.606
REMARK INTRA:                  -0.991
REMARK UNBOUND:                -0.991
REMARK  Name = 
REMARK  5 active torsions:
REMARK  status: ('A' for Active; 'I' for Inactive)
REMARK    1  A    between atoms: C_2  and  C_4
REMARK    2  A    between atoms: C_7  and  O_8
REMARK    3  A    between atoms: O_8  and  C_9
REMARK    4  A    between atoms: C_9  and  C_10
REMARK    5  A    between atoms: C_15  and  C_16
REMARK                            x       y       z     vdW  Elec       q    Type
REMARK                         _______ _______ _______ _____ _____    ______ ____
ROOT
ATOM      1  C   UNL     1      44.782   4.841  12.016  0.00  0.00    +0.000 A 
ATOM      2  C   UNL     1      45.411   3.925  12.863  0.00  0.00    +0.000 A 
ATOM      3  C   UNL     1      46.597   4.278  13.491  0.00  0.00    +0.000 A 
ATOM      4  F   UNL     1      47.197   3.395  14.301  0.00  0.00    +0.000 F 
ATOM      5  C   UNL     1      47.178   5.528  13.292  0.00  0.00    +0.000 A 
ATOM      6  C   UNL     1      46.586   6.469  12.436  0.00  0.00    +0.000 A 
ATOM      7  C   UNL     1      45.374   6.104  11.817  0.00  0.00    +0.000 A 
ENDROOT
BRANCH   6   8
ATOM      8  C   UNL     1      47.222   7.776  12.163  0.00  0.00    +0.000 A 
ATOM      9  C   UNL     1      46.538   8.985  12.346  0.00  0.00    +0.000 A 
ATOM     10  N   UNL     1      47.058  10.223  12.140  0.00  0.00    +0.000 NA
ATOM     11  C   UNL     1      48.346  10.271  11.737  0.00  0.00    +0.000 A 
ATOM     12  C   UNL     1      49.115   9.144  11.527  0.00  0.00    +0.000 A 
ATOM     13  F   UNL     1      50.390   9.252  11.133  0.00  0.00    +0.000 F 
ATOM     14  C   UNL     1      48.553   7.890  11.734  0.00  0.00    +0.000 A 
ENDBRANCH   6   8
BRANCH   1  15
ATOM     15  C   UNL     1      43.491   4.488  11.322  0.00  0.00    +0.000 C 
BRANCH  15  16
ATOM     16  O   UNL     1      43.662   4.692   9.920  0.00  0.00    +0.000 OA
BRANCH  16  20
ATOM     17  C   UNL     1      46.364   2.328   7.799  0.00  0.00    +0.000 A 
ATOM     18  C   UNL     1      45.498   1.704   8.705  0.00  0.00    +0.000 A 
ATOM     19  C   UNL     1      44.576   2.459   9.434  0.00  0.00    +0.000 A 
ATOM     20  C   UNL     1      44.515   3.845   9.270  0.00  0.00    +0.000 A 
ATOM     21  C   UNL     1      45.391   4.468   8.378  0.00  0.00    +0.000 A 
ATOM     22  C   UNL     1      46.317   3.716   7.649  0.00  0.00    +0.000 A 
BRANCH  17  24
ATOM     23  N   UNL     1      48.429   2.239   6.517  0.00  0.00    +0.000 N 
ATOM     24  C   UNL     1      47.351   1.554   7.005  0.00  0.00    +0.000 C 
ATOM     25  O   UNL     1      47.233   0.351   6.827  0.00  0.00    +0.000 OA
ATOM     26  H   UNL     1      49.151   1.678   6.082  0.00  0.00    +0.000 HD
ATOM     27  H   UNL     1      48.693   3.148   6.868  0.00  0.00    +0.000 HD
ENDBRANCH  17  24
ENDBRANCH  16  20
ENDBRANCH  15  16
ENDBRANCH   1  15
TORSDOF 5
ENDMDL
MODEL 2
REMARK VINA RESULT:    -8.948      1.087      1.336
REMARK INTER + INTRA:         -12.555
REMARK INTER:                 -11.554
REMARK INTRA:                  -1.001
REMARK UNBOUND:                -0.991
REMARK  Name = 
REMARK  5 active torsions:
REMARK  status: ('A' for Active; 'I' for Inactive)
REMARK    1  A    between atoms: C_2  and  C_4
REMARK    2  A    between atoms: C_7  and  O_8
REMARK    3  A    between atoms: O_8  and  C_9
REMARK    4  A    between atoms: C_9  and  C_10
REMARK    5  A    between atoms: C_15  and  C_16
REMARK                            x       y       z     vdW  Elec       q    Type
REMARK                         _______ _______ _______ _____ _____    ______ ____
ROOT
ATOM      1  C   UNL     1      44.807   4.733  12.048  0.00  0.00    +0.000 A 
ATOM      2  C   UNL     1      45.472   3.819  12.868  0.00  0.00    +0.000 A 
ATOM      3  C   UNL     1      46.660   4.188  13.482  0.00  0.00    +0.000 A 
ATOM      4  F   UNL     1      47.295   3.306  14.266  0.00  0.00    +0.000 F 
ATOM      5  C   UNL     1      47.209   5.454  13.294  0.00  0.00    +0.000 A 
ATOM      6  C   UNL     1      46.581   6.396  12.465  0.00  0.00    +0.000 A 
ATOM      7  C   UNL     1      45.367   6.013  11.861  0.00  0.00    +0.000 A 
ENDROOT
BRANCH   6   8
ATOM      8  C   UNL     1      47.181   7.721  12.202  0.00  0.00    +0.000 A 
ATOM      9  C   UNL     1      48.510   7.861  11.780  0.00  0.00    +0.000 A 
ATOM     10  N   UNL     1      49.127   9.039  11.496  0.00  0.00    +0.000 NA
ATOM     11  C   UNL     1      48.375  10.153  11.629  0.00  0.00    +0.000 A 
ATOM     12  C   UNL     1      47.056  10.133  12.035  0.00  0.00    +0.000 A 
ATOM     13  F   UNL     1      46.358  11.270  12.142  0.00  0.00    +0.000 F 
ATOM     14  C   UNL     1      46.455   8.914  12.330  0.00  0.00    +0.000 A 
ENDBRANCH   6   8
BRANCH   1  15
ATOM     15  C   UNL     1      43.512   4.362  11.371  0.00  0.00    +0.000 C 
BRANCH  15  16
ATOM     16  O   UNL     1      43.646   4.613   9.972  0.00  0.00    +0.000 OA
BRANCH  16  20
ATOM     17  C   UNL     1      46.422   2.445   7.742  0.00  0.00    +0.000 A 
ATOM     18  C   UNL     1      45.584   1.750   8.622  0.00  0.00    +0.000 A 
ATOM     19  C   UNL     1      44.639   2.439   9.386  0.00  0.00    +0.000 A 
ATOM     20  C   UNL     1      44.527   3.827   9.283  0.00  0.00    +0.000 A 
ATOM     21  C   UNL     1      45.375   4.521   8.416  0.00  0.00    +0.000 A 
ATOM     22  C   UNL     1      46.324   3.836   7.652  0.00  0.00    +0.000 A 
BRANCH  17  24
ATOM     23  N   UNL     1      48.475   2.492   6.437  0.00  0.00    +0.000 N 
ATOM     24  C   UNL     1      47.433   1.744   6.910  0.00  0.00    +0.000 C 
ATOM     25  O   UNL     1      47.366   0.543   6.691  0.00  0.00    +0.000 OA
ATOM     26  H   UNL     1      49.216   1.978   5.975  0.00  0.00    +0.000 HD
ATOM     27  H   UNL     1      48.703   3.399   6.817  0.00  0.00    +0.000 HD
ENDBRANCH  17  24
ENDBRANCH  16  20
ENDBRANCH  15  16
ENDBRANCH   1  15
TORSDOF 5
ENDMDL
MODEL 3
REMARK VINA RESULT:    -8.852      2.185      4.046
REMARK INTER + INTRA:         -12.430
REMARK INTER:                 -11.534
REMARK INTRA:                  -0.896
REMARK UNBOUND:                -0.991
REMARK  Name = 
REMARK  5 active torsions:
REMARK  status: ('A' for Active; 'I' for Inactive)
REMARK    1  A    between atoms: C_2  and  C_4
REMARK    2  A    between atoms: C_7  and  O_8
REMARK    3  A    between atoms: O_8  and  C_9
REMARK    4  A    between atoms: C_9  and  C_10
REMARK    5  A    between atoms: C_15  and  C_16
REMARK                            x       y       z     vdW  Elec       q    Type
REMARK                         _______ _______ _______ _____ _____    ______ ____
ROOT
ATOM      1  C   UNL     1      44.776   5.235  12.027  0.00  0.00    +0.000 A 
ATOM      2  C   UNL     1      44.951   6.525  11.520  0.00  0.00    +0.000 A 
ATOM      3  C   UNL     1      45.925   7.348  12.067  0.00  0.00    +0.000 A 
ATOM      4  F   UNL     1      46.087   8.585  11.579  0.00  0.00    +0.000 F 
ATOM      5  C   UNL     1      46.732   6.917  13.117  0.00  0.00    +0.000 A 
ATOM      6  C   UNL     1      46.576   5.634  13.665  0.00  0.00    +0.000 A 
ATOM      7  C   UNL     1      45.594   4.803  13.089  0.00  0.00    +0.000 A 
ENDROOT
BRANCH   6   8
ATOM      8  C   UNL     1      47.380   5.183  14.821  0.00  0.00    +0.000 A 
ATOM      9  C   UNL     1      48.425   5.956  15.343  0.00  0.00    +0.000 A 
ATOM     10  N   UNL     1      49.192   5.622  16.415  0.00  0.00    +0.000 NA
ATOM     11  C   UNL     1      48.899   4.450  17.017  0.00  0.00    +0.000 A 
ATOM     12  C   UNL     1      47.890   3.611  16.590  0.00  0.00    +0.000 A 
ATOM     13  F   UNL     1      47.639   2.463  17.232  0.00  0.00    +0.000 F 
ATOM     14  C   UNL     1      47.129   3.972  15.484  0.00  0.00    +0.000 A 
ENDBRANCH   6   8
BRANCH   1  15
ATOM     15  C   UNL     1      43.729   4.316  11.451  0.00  0.00    +0.000 C 
BRANCH  15  16
ATOM     16  O   UNL     1      43.662   4.535  10.043  0.00  0.00    +0.000 OA
BRANCH  16  20
ATOM     17  C   UNL     1      46.379   2.303   7.804  0.00  0.00    +0.000 A 
ATOM     18  C   UNL     1      46.339   3.690   7.616  0.00  0.00    +0.000 A 
ATOM     19  C   UNL     1      45.444   4.475   8.348  0.00  0.00    +0.000 A 
ATOM     20  C   UNL     1      44.578   3.881   9.268  0.00  0.00    +0.000 A 
ATOM     21  C   UNL     1      44.608   2.495   9.443  0.00  0.00    +0.000 A 
ATOM     22  C   UNL     1      45.500   1.706   8.710  0.00  0.00    +0.000 A 
BRANCH  17  24
ATOM     23  N   UNL     1      48.453   2.034   6.561  0.00  0.00    +0.000 N 
ATOM     24  C   UNL     1      47.322   1.440   7.047  0.00  0.00    +0.000 C 
ATOM     25  O   UNL     1      47.121   0.244   6.898  0.00  0.00    +0.000 OA
ATOM     26  H   UNL     1      49.140   1.411   6.154  0.00  0.00    +0.000 HD
ATOM     27  H   UNL     1      48.776   2.931   6.893  0.00  0.00    +0.000 HD
ENDBRANCH  17  24
ENDBRANCH  16  20
ENDBRANCH  15  16
ENDBRANCH   1  15
TORSDOF 5
ENDMDL
MODEL 4
REMARK VINA RESULT:    -8.304      2.115      2.575
REMARK INTER + INTRA:         -11.723
REMARK INTER:                 -10.859
REMARK INTRA:                  -0.864
REMARK UNBOUND:                -0.991
REMARK  Name = 
REMARK  5 active torsions:
REMARK  status: ('A' for Active; 'I' for Inactive)
REMARK    1  A    between atoms: C_2  and  C_4
REMARK    2  A    between atoms: C_7  and  O_8
REMARK    3  A    between atoms: O_8  and  C_9
REMARK    4  A    between atoms: C_9  and  C_10
REMARK    5  A    between atoms: C_15  and  C_16
REMARK                            x       y       z     vdW  Elec       q    Type
REMARK                         _______ _______ _______ _____ _____    ______ ____
ROOT
ATOM      1  C   UNL     1      44.441   5.164  11.695  0.00  0.00    +0.000 A 
ATOM      2  C   UNL     1      43.636   6.232  11.291  0.00  0.00    +0.000 A 
ATOM      3  C   UNL     1      44.122   7.528  11.382  0.00  0.00    +0.000 A 
ATOM      4  F   UNL     1      43.345   8.548  10.996  0.00  0.00    +0.000 F 
ATOM      5  C   UNL     1      45.399   7.790  11.874  0.00  0.00    +0.000 A 
ATOM      6  C   UNL     1      46.232   6.746  12.305  0.00  0.00    +0.000 A 
ATOM      7  C   UNL     1      45.731   5.433  12.192  0.00  0.00    +0.000 A 
ENDROOT
BRANCH   6   8
ATOM      8  C   UNL     1      47.564   7.008  12.889  0.00  0.00    +0.000 A 
ATOM      9  C   UNL     1      47.961   6.448  14.111  0.00  0.00    +0.000 A 
ATOM     10  N   UNL     1      49.173   6.621  14.701  0.00  0.00    +0.000 NA
ATOM     11  C   UNL     1      50.057   7.392  14.032  0.00  0.00    +0.000 A 
ATOM     12  C   UNL     1      49.776   7.992  12.822  0.00  0.00    +0.000 A 
ATOM     13  F   UNL     1      50.695   8.742  12.201  0.00  0.00    +0.000 F 
ATOM     14  C   UNL     1      48.523   7.807  12.248  0.00  0.00    +0.000 A 
ENDBRANCH   6   8
BRANCH   1  15
ATOM     15  C   UNL     1      43.941   3.744  11.603  0.00  0.00    +0.000 C 
BRANCH  15  16
ATOM     16  O   UNL     1      43.518   3.500  10.262  0.00  0.00    +0.000 OA
BRANCH  16  20
ATOM     17  C   UNL     1      46.433   2.567   7.432  0.00  0.00    +0.000 A 
ATOM     18  C   UNL     1      46.022   1.568   8.322  0.00  0.00    +0.000 A 
ATOM     19  C   UNL     1      45.047   1.839   9.284  0.00  0.00    +0.000 A 
ATOM     20  C   UNL     1      44.478   3.111   9.370  0.00  0.00    +0.000 A 
ATOM     21  C   UNL     1      44.900   4.112   8.492  0.00  0.00    +0.000 A 
ATOM     22  C   UNL     1      45.879   3.846   7.530  0.00  0.00    +0.000 A 
BRANCH  17  24
ATOM     23  N   UNL     1      47.476   3.148   5.311  0.00  0.00    +0.000 N 
ATOM     24  C   UNL     1      47.464   2.312   6.393  0.00  0.00    +0.000 C 
ATOM     25  O   UNL     1      48.293   1.421   6.514  0.00  0.00    +0.000 OA
ATOM     26  H   UNL     1      48.255   3.036   4.675  0.00  0.00    +0.000 HD
ATOM     27  H   UNL     1      46.997   4.036   5.312  0.00  0.00    +0.000 HD
ENDBRANCH  17  24
ENDBRANCH  16  20
ENDBRANCH  15  16
ENDBRANCH   1  15
TORSDOF 5
ENDMDL
MODEL 5
REMARK VINA RESULT:    -7.580      3.944      7.320
REMARK INTER + INTRA:         -10.787
REMARK INTER:                 -10.225
REMARK INTRA:                  -0.561
REMARK UNBOUND:                -0.991
REMARK  Name = 
REMARK  5 active torsions:
REMARK  status: ('A' for Active; 'I' for Inactive)
REMARK    1  A    between atoms: C_2  and  C_4
REMARK    2  A    between atoms: C_7  and  O_8
REMARK    3  A    between atoms: O_8  and  C_9
REMARK    4  A    between atoms: C_9  and  C_10
REMARK    5  A    between atoms: C_15  and  C_16
REMARK                            x       y       z     vdW  Elec       q    Type
REMARK                         _______ _______ _______ _____ _____    ______ ____
ROOT
ATOM      1  C   UNL     1      45.345   6.424  11.660  0.00  0.00    +0.000 A 
ATOM      2  C   UNL     1      43.979   6.453  11.953  0.00  0.00    +0.000 A 
ATOM      3  C   UNL     1      43.127   5.552  11.330  0.00  0.00    +0.000 A 
ATOM      4  F   UNL     1      41.818   5.585  11.612  0.00  0.00    +0.000 F 
ATOM      5  C   UNL     1      43.604   4.620  10.412  0.00  0.00    +0.000 A 
ATOM      6  C   UNL     1      44.967   4.570  10.078  0.00  0.00    +0.000 A 
ATOM      7  C   UNL     1      45.823   5.480  10.731  0.00  0.00    +0.000 A 
ENDROOT
BRANCH   6   8
ATOM      8  C   UNL     1      45.482   3.631   9.059  0.00  0.00    +0.000 A 
ATOM      9  C   UNL     1      45.496   2.245   9.269  0.00  0.00    +0.000 A 
ATOM     10  N   UNL     1      45.929   1.317   8.375  0.00  0.00    +0.000 NA
ATOM     11  C   UNL     1      46.368   1.791   7.189  0.00  0.00    +0.000 A 
ATOM     12  C   UNL     1      46.397   3.134   6.873  0.00  0.00    +0.000 A 
ATOM     13  F   UNL     1      46.837   3.545   5.678  0.00  0.00    +0.000 F 
ATOM     14  C   UNL     1      45.958   4.061   7.812  0.00  0.00    +0.000 A 
ENDBRANCH   6   8
BRANCH   1  15
ATOM     15  C   UNL     1      46.296   7.387  12.325  0.00  0.00    +0.000 C 
BRANCH  15  16
ATOM     16  O   UNL     1      47.525   6.706  12.575  0.00  0.00    +0.000 OA
BRANCH  16  20
ATOM     17  C   UNL     1      47.783   4.674  16.206  0.00  0.00    +0.000 A 
ATOM     18  C   UNL     1      48.460   5.893  16.073  0.00  0.00    +0.000 A 
ATOM     19  C   UNL     1      48.398   6.606  14.874  0.00  0.00    +0.000 A 
ATOM     20  C   UNL     1      47.664   6.107  13.795  0.00  0.00    +0.000 A 
ATOM     21  C   UNL     1      47.003   4.882  13.924  0.00  0.00    +0.000 A 
ATOM     22  C   UNL     1      47.066   4.164  15.122  0.00  0.00    +0.000 A 
BRANCH  17  24
ATOM     23  N   UNL     1      46.865   2.934  17.637  0.00  0.00    +0.000 N 
ATOM     24  C   UNL     1      47.824   3.893  17.469  0.00  0.00    +0.000 C 
ATOM     25  O   UNL     1      48.699   4.067  18.305  0.00  0.00    +0.000 OA
ATOM     26  H   UNL     1      46.977   2.332  18.444  0.00  0.00    +0.000 HD
ATOM     27  H   UNL     1      46.311   2.586  16.868  0.00  0.00    +0.000 HD
ENDBRANCH  17  24
ENDBRANCH  16  20
ENDBRANCH  15  16
ENDBRANCH   1  15
TORSDOF 5
ENDMDL
MODEL 6
REMARK VINA RESULT:    -7.324      4.566      8.146
REMARK INTER + INTRA:         -10.456
REMARK INTER:                  -9.913
REMARK INTRA:                  -0.543
REMARK UNBOUND:                -0.991
REMARK  Name = 
REMARK  5 active torsions:
REMARK  status: ('A' for Active; 'I' for Inactive)
REMARK    1  A    between atoms: C_2  and  C_4
REMARK    2  A    between atoms: C_7  and  O_8
REMARK    3  A    between atoms: O_8  and  C_9
REMARK    4  A    between atoms: C_9  and  C_10
REMARK    5  A    between atoms: C_15  and  C_16
REMARK                            x       y       z     vdW  Elec       q    Type
REMARK                         _______ _______ _______ _____ _____    ______ ____
ROOT
ATOM      1  C   UNL     1      45.278   5.174  12.692  0.00  0.00    +0.000 A 
ATOM      2  C   UNL     1      43.928   5.523  12.762  0.00  0.00    +0.000 A 
ATOM      3  C   UNL     1      43.084   5.209  11.706  0.00  0.00    +0.000 A 
ATOM      4  F   UNL     1      41.790   5.549  11.778  0.00  0.00    +0.000 F 
ATOM      5  C   UNL     1      43.557   4.555  10.571  0.00  0.00    +0.000 A 
ATOM      6  C   UNL     1      44.910   4.202  10.455  0.00  0.00    +0.000 A 
ATOM      7  C   UNL     1      45.752   4.513  11.541  0.00  0.00    +0.000 A 
ENDROOT
BRANCH   6   8
ATOM      8  C   UNL     1      45.443   3.565   9.232  0.00  0.00    +0.000 A 
ATOM      9  C   UNL     1      45.814   4.315   8.108  0.00  0.00    +0.000 A 
ATOM     10  N   UNL     1      46.332   3.808   6.958  0.00  0.00    +0.000 NA
ATOM     11  C   UNL     1      46.505   2.469   6.921  0.00  0.00    +0.000 A 
ATOM     12  C   UNL     1      46.177   1.634   7.969  0.00  0.00    +0.000 A 
ATOM     13  F   UNL     1      46.377   0.314   7.878  0.00  0.00    +0.000 F 
ATOM     14  C   UNL     1      45.638   2.180   9.129  0.00  0.00    +0.000 A 
ENDBRANCH   6   8
BRANCH   1  15
ATOM     15  C   UNL     1      46.219   5.498  13.825  0.00  0.00    +0.000 C 
BRANCH  15  16
ATOM     16  O   UNL     1      46.453   4.305  14.571  0.00  0.00    +0.000 OA
BRANCH  16  20
ATOM     17  C   UNL     1      48.638   4.412  18.120  0.00  0.00    +0.000 A 
ATOM     18  C   UNL     1      48.720   5.507  17.252  0.00  0.00    +0.000 A 
ATOM     19  C   UNL     1      48.002   5.512  16.054  0.00  0.00    +0.000 A 
ATOM     20  C   UNL     1      47.202   4.421  15.709  0.00  0.00    +0.000 A 
ATOM     21  C   UNL     1      47.134   3.322  16.568  0.00  0.00    +0.000 A 
ATOM     22  C   UNL     1      47.853   3.312  17.767  0.00  0.00    +0.000 A 
BRANCH  17  24
ATOM     23  N   UNL     1      48.681   4.014  20.520  0.00  0.00    +0.000 N 
ATOM     24  C   UNL     1      49.383   4.377  19.404  0.00  0.00    +0.000 C 
ATOM     25  O   UNL     1      50.580   4.620  19.461  0.00  0.00    +0.000 OA
ATOM     26  H   UNL     1      49.228   3.879  21.362  0.00  0.00    +0.000 HD
ATOM     27  H   UNL     1      47.785   3.552  20.466  0.00  0.00    +0.000 HD
ENDBRANCH  17  24
ENDBRANCH  16  20
ENDBRANCH  15  16
ENDBRANCH   1  15
TORSDOF 5
ENDMDL
MODEL 7
REMARK VINA RESULT:    -6.967      5.339      7.854
REMARK INTER + INTRA:          -9.994
REMARK INTER:                  -9.148
REMARK INTRA:                  -0.846
REMARK UNBOUND:                -0.991
REMARK  Name = 
REMARK  5 active torsions:
REMARK  status: ('A' for Active; 'I' for Inactive)
REMARK    1  A    between atoms: C_2  and  C_4
REMARK    2  A    between atoms: C_7  and  O_8
REMARK    3  A    between atoms: O_8  and  C_9
REMARK    4  A    between atoms: C_9  and  C_10
REMARK    5  A    between atoms: C_15  and  C_16
REMARK                            x       y       z     vdW  Elec       q    Type
REMARK                         _______ _______ _______ _____ _____    ______ ____
ROOT
ATOM      1  C   UNL     1      48.332   6.606  14.717  0.00  0.00    +0.000 A 
ATOM      2  C   UNL     1      49.107   7.330  13.808  0.00  0.00    +0.000 A 
ATOM      3  C   UNL     1      48.741   7.362  12.470  0.00  0.00    +0.000 A 
ATOM      4  F   UNL     1      49.489   8.056  11.602  0.00  0.00    +0.000 F 
ATOM      5  C   UNL     1      47.616   6.682  12.010  0.00  0.00    +0.000 A 
ATOM      6  C   UNL     1      46.821   5.930  12.889  0.00  0.00    +0.000 A 
ATOM      7  C   UNL     1      47.195   5.919  14.248  0.00  0.00    +0.000 A 
ENDROOT
BRANCH   6   8
ATOM      8  C   UNL     1      45.660   5.149  12.409  0.00  0.00    +0.000 A 
ATOM      9  C   UNL     1      44.934   4.304  13.259  0.00  0.00    +0.000 A 
ATOM     10  N   UNL     1      43.845   3.574  12.901  0.00  0.00    +0.000 NA
ATOM     11  C   UNL     1      43.439   3.697  11.619  0.00  0.00    +0.000 A 
ATOM     12  C   UNL     1      44.076   4.502  10.696  0.00  0.00    +0.000 A 
ATOM     13  F   UNL     1      43.625   4.589   9.439  0.00  0.00    +0.000 F 
ATOM     14  C   UNL     1      45.195   5.228  11.088  0.00  0.00    +0.000 A 
ENDBRANCH   6   8
BRANCH   1  15
ATOM     15  C   UNL     1      48.703   6.556  16.178  0.00  0.00    +0.000 C 
BRANCH  15  16
ATOM     16  O   UNL     1      48.163   5.360  16.739  0.00  0.00    +0.000 OA
BRANCH  16  20
ATOM     17  C   UNL     1      50.996   2.374  17.402  0.00  0.00    +0.000 A 
ATOM     18  C   UNL     1      49.726   2.001  16.944  0.00  0.00    +0.000 A 
ATOM     19  C   UNL     1      48.749   2.971  16.708  0.00  0.00    +0.000 A 
ATOM     20  C   UNL     1      49.028   4.320  16.932  0.00  0.00    +0.000 A 
ATOM     21  C   UNL     1      50.290   4.690  17.405  0.00  0.00    +0.000 A 
ATOM     22  C   UNL     1      51.270   3.722  17.646  0.00  0.00    +0.000 A 
BRANCH  17  24
ATOM     23  N   UNL     1      51.660   0.150  18.130  0.00  0.00    +0.000 N 
ATOM     24  C   UNL     1      52.059   1.370  17.659  0.00  0.00    +0.000 C 
ATOM     25  O   UNL     1      53.235   1.603  17.421  0.00  0.00    +0.000 OA
ATOM     26  H   UNL     1      52.380  -0.560  18.185  0.00  0.00    +0.000 HD
ATOM     27  H   UNL     1      50.701  -0.161  18.077  0.00  0.00    +0.000 HD
ENDBRANCH  17  24
ENDBRANCH  16  20
ENDBRANCH  15  16
ENDBRANCH   1  15
TORSDOF 5
ENDMDL
MODEL 8
REMARK VINA RESULT:    -6.937      4.838      8.238
REMARK INTER + INTRA:          -9.955
REMARK INTER:                  -9.214
REMARK INTRA:                  -0.741
REMARK UNBOUND:                -0.991
REMARK  Name = 
REMARK  5 active torsions:
REMARK  status: ('A' for Active; 'I' for Inactive)
REMARK    1  A    between atoms: C_2  and  C_4
REMARK    2  A    between atoms: C_7  and  O_8
REMARK    3  A    between atoms: O_8  and  C_9
REMARK    4  A    between atoms: C_9  and  C_10
REMARK    5  A    between atoms: C_15  and  C_16
REMARK                            x       y       z     vdW  Elec       q    Type
REMARK                         _______ _______ _______ _____ _____    ______ ____
ROOT
ATOM      1  C   UNL     1      47.081   7.309  13.151  0.00  0.00    +0.000 A 
ATOM      2  C   UNL     1      46.336   8.487  13.059  0.00  0.00    +0.000 A 
ATOM      3  C   UNL     1      45.240   8.539  12.209  0.00  0.00    +0.000 A 
ATOM      4  F   UNL     1      44.531   9.671  12.122  0.00  0.00    +0.000 F 
ATOM      5  C   UNL     1      44.867   7.438  11.440  0.00  0.00    +0.000 A 
ATOM      6  C   UNL     1      45.600   6.243  11.492  0.00  0.00    +0.000 A 
ATOM      7  C   UNL     1      46.701   6.199  12.371  0.00  0.00    +0.000 A 
ENDROOT
BRANCH   6   8
ATOM      8  C   UNL     1      45.258   5.087  10.636  0.00  0.00    +0.000 A 
ATOM      9  C   UNL     1      44.514   4.002  11.119  0.00  0.00    +0.000 A 
ATOM     10  N   UNL     1      44.140   2.916  10.392  0.00  0.00    +0.000 NA
ATOM     11  C   UNL     1      44.518   2.908   9.095  0.00  0.00    +0.000 A 
ATOM     12  C   UNL     1      45.250   3.923   8.513  0.00  0.00    +0.000 A 
ATOM     13  F   UNL     1      45.592   3.863   7.220  0.00  0.00    +0.000 F 
ATOM     14  C   UNL     1      45.629   5.015   9.285  0.00  0.00    +0.000 A 
ENDBRANCH   6   8
BRANCH   1  15
ATOM     15  C   UNL     1      48.275   7.222  14.069  0.00  0.00    +0.000 C 
BRANCH  15  16
ATOM     16  O   UNL     1      48.425   5.865  14.484  0.00  0.00    +0.000 OA
BRANCH  16  20
ATOM     17  C   UNL     1      48.133   5.293  18.603  0.00  0.00    +0.000 A 
ATOM     18  C   UNL     1      47.513   4.368  17.755  0.00  0.00    +0.000 A 
ATOM     19  C   UNL     1      47.589   4.522  16.369  0.00  0.00    +0.000 A 
ATOM     20  C   UNL     1      48.278   5.604  15.817  0.00  0.00    +0.000 A 
ATOM     21  C   UNL     1      48.882   6.536  16.666  0.00  0.00    +0.000 A 
ATOM     22  C   UNL     1      48.806   6.387  18.053  0.00  0.00    +0.000 A 
BRANCH  17  24
ATOM     23  N   UNL     1      48.587   4.007  20.618  0.00  0.00    +0.000 N 
ATOM     24  C   UNL     1      48.076   5.157  20.081  0.00  0.00    +0.000 C 
ATOM     25  O   UNL     1      47.633   6.046  20.793  0.00  0.00    +0.000 OA
ATOM     26  H   UNL     1      48.650   3.981  21.628  0.00  0.00    +0.000 HD
ATOM     27  H   UNL     1      49.193   3.392  20.096  0.00  0.00    +0.000 HD
ENDBRANCH  17  24
ENDBRANCH  16  20
ENDBRANCH  15  16
ENDBRANCH   1  15
TORSDOF 5
ENDMDL
MODEL 9
REMARK VINA RESULT:    -6.896      3.207      7.359
REMARK INTER + INTRA:          -9.903
REMARK INTER:                  -9.096
REMARK INTRA:                  -0.806
REMARK UNBOUND:                -0.991
REMARK  Name = 
REMARK  5 active torsions:
REMARK  status: ('A' for Active; 'I' for Inactive)
REMARK    1  A    between atoms: C_2  and  C_4
REMARK    2  A    between atoms: C_7  and  O_8
REMARK    3  A    between atoms: O_8  and  C_9
REMARK    4  A    between atoms: C_9  and  C_10
REMARK    5  A    between atoms: C_15  and  C_16
REMARK                            x       y       z     vdW  Elec       q    Type
REMARK                         _______ _______ _______ _____ _____    ______ ____
ROOT
ATOM      1  C   UNL     1      45.202   4.781  12.846  0.00  0.00    +0.000 A 
ATOM      2  C   UNL     1      43.923   5.340  12.878  0.00  0.00    +0.000 A 
ATOM      3  C   UNL     1      43.113   5.260  11.755  0.00  0.00    +0.000 A 
ATOM      4  F   UNL     1      41.887   5.799  11.790  0.00  0.00    +0.000 F 
ATOM      5  C   UNL     1      43.551   4.636  10.589  0.00  0.00    +0.000 A 
ATOM      6  C   UNL     1      44.836   4.077  10.511  0.00  0.00    +0.000 A 
ATOM      7  C   UNL     1      45.641   4.152  11.664  0.00  0.00    +0.000 A 
ENDROOT
BRANCH   6   8
ATOM      8  C   UNL     1      45.341   3.468   9.262  0.00  0.00    +0.000 A 
ATOM      9  C   UNL     1      45.647   4.240   8.133  0.00  0.00    +0.000 A 
ATOM     10  N   UNL     1      46.137   3.759   6.959  0.00  0.00    +0.000 NA
ATOM     11  C   UNL     1      46.350   2.427   6.902  0.00  0.00    +0.000 A 
ATOM     12  C   UNL     1      46.088   1.572   7.954  0.00  0.00    +0.000 A 
ATOM     13  F   UNL     1      46.324   0.260   7.842  0.00  0.00    +0.000 F 
ATOM     14  C   UNL     1      45.575   2.091   9.138  0.00  0.00    +0.000 A 
ENDBRANCH   6   8
BRANCH   1  15
ATOM     15  C   UNL     1      46.104   4.849  14.053  0.00  0.00    +0.000 C 
BRANCH  15  16
ATOM     16  O   UNL     1      47.437   5.097  13.606  0.00  0.00    +0.000 OA
BRANCH  16  20
ATOM     17  C   UNL     1      48.665   9.066  13.267  0.00  0.00    +0.000 A 
ATOM     18  C   UNL     1      48.686   8.466  14.532  0.00  0.00    +0.000 A 
ATOM     19  C   UNL     1      48.284   7.138  14.689  0.00  0.00    +0.000 A 
ATOM     20  C   UNL     1      47.852   6.398  13.585  0.00  0.00    +0.000 A 
ATOM     21  C   UNL     1      47.816   7.004  12.326  0.00  0.00    +0.000 A 
ATOM     22  C   UNL     1      48.214   8.334  12.166  0.00  0.00    +0.000 A 
BRANCH  17  24
ATOM     23  N   UNL     1      48.150  11.444  13.276  0.00  0.00    +0.000 N 
ATOM     24  C   UNL     1      49.090  10.474  13.064  0.00  0.00    +0.000 C 
ATOM     25  O   UNL     1      50.239  10.763  12.763  0.00  0.00    +0.000 OA
ATOM     26  H   UNL     1      48.485  12.399  13.252  0.00  0.00    +0.000 HD
ATOM     27  H   UNL     1      47.293  11.263  13.780  0.00  0.00    +0.000 HD
ENDBRANCH  17  24
ENDBRANCH  16  20
ENDBRANCH  15  16
ENDBRANCH   1  15
TORSDOF 5
ENDMDL
