MODEL 1
REMARK VINA RESULT:    -8.945      0.000      0.000
REMARK INTER + INTRA:         -12.461
REMARK INTER:                 -11.559
REMARK INTRA:                  -0.901
REMARK UNBOUND:                -0.901
REMARK  Name = 
REMARK  5 active torsions:
REMARK  status: ('A' for Active; 'I' for Inactive)
REMARK    1  A    between atoms: C_2  and  C_3
REMARK    2  A    between atoms: C_6  and  N_7
REMARK    3  A    between atoms: N_7  and  C_8
REMARK    4  A    between atoms: C_8  and  C_9
REMARK    5  A    between atoms: C_13  and  C_14
REMARK                            x       y       z     vdW  Elec       q    Type
REMARK                         _______ _______ _______ _____ _____    ______ ____
ROOT
ATOM      1  C   UNL     1      44.136   4.605  11.719  0.00  0.00    +0.000 C 
ATOM      2  C   UNL     1      43.394   3.606  12.596  0.00  0.00    +0.000 C 
ATOM      3  C   UNL     1      43.017   5.044  12.666  0.00  0.00    +0.000 C 
ENDROOT
BRANCH   1   4
ATOM      4  C   UNL     1      45.469   5.216  12.140  0.00  0.00    +0.000 A 
ATOM      5  C   UNL     1      45.975   6.353  11.485  0.00  0.00    +0.000 A 
ATOM      6  C   UNL     1      47.006   7.105  12.042  0.00  0.00    +0.000 A 
ATOM      7  C   UNL     1      47.557   6.722  13.265  0.00  0.00    +0.000 A 
ATOM      8  C   UNL     1      47.136   5.555  13.919  0.00  0.00    +0.000 A 
ATOM      9  C   UNL     1      46.123   4.793  13.306  0.00  0.00    +0.000 A 
BRANCH   8  10
ATOM     10  C   UNL     1      47.634   5.181  15.256  0.00  0.00    +0.000 A 
ATOM     11  C   UNL     1      48.639   5.922  15.903  0.00  0.00    +0.000 A 
ATOM     12  C   UNL     1      49.159   5.526  17.141  0.00  0.00    +0.000 A 
ATOM     13  C   UNL     1      48.677   4.383  17.764  0.00  0.00    +0.000 A 
ATOM     14  C   UNL     1      47.682   3.640  17.135  0.00  0.00    +0.000 A 
ATOM     15  F   UNL     1      47.222   2.523  17.718  0.00  0.00    +0.000 F 
ATOM     16  C   UNL     1      47.165   4.023  15.902  0.00  0.00    +0.000 A 
ENDBRANCH   8  10
ENDBRANCH   1   4
BRANCH   1  17
ATOM     17  N   UNL     1      43.910   4.548  10.269  0.00  0.00    +0.000 N 
ATOM     18  H   UNL     1      42.965   4.688   9.927  0.00  0.00    +0.000 HD
BRANCH  17  22
ATOM     19  C   UNL     1      46.586   2.643   7.594  0.00  0.00    +0.000 A 
ATOM     20  C   UNL     1      45.858   1.874   8.503  0.00  0.00    +0.000 A 
ATOM     21  C   UNL     1      44.971   2.490   9.393  0.00  0.00    +0.000 A 
ATOM     22  C   UNL     1      44.755   3.874   9.365  0.00  0.00    +0.000 A 
ATOM     23  C   UNL     1      45.510   4.634   8.459  0.00  0.00    +0.000 A 
ATOM     24  C   UNL     1      46.418   4.028   7.581  0.00  0.00    +0.000 A 
BRANCH  19  26
ATOM     25  N   UNL     1      48.267   1.513   5.972  0.00  0.00    +0.000 NA
ATOM     26  C   UNL     1      47.511   2.018   6.699  0.00  0.00    +0.000 C 
ENDBRANCH  19  26
ENDBRANCH  17  22
ENDBRANCH   1  17
TORSDOF 5
ENDMDL
MODEL 2
REMARK VINA RESULT:    -8.092      2.973      3.515
REMARK INTER + INTRA:         -11.358
REMARK INTER:                 -10.433
REMARK INTRA:                  -0.926
REMARK UNBOUND:                -0.901
REMARK  Name = 
REMARK  5 active torsions:
REMARK  status: ('A' for Active; 'I' for Inactive)
REMARK    1  A    between atoms: C_2  and  C_3
REMARK    2  A    between atoms: C_6  and  N_7
REMARK    3  A    between atoms: N_7  and  C_8
REMARK    4  A    between atoms: C_8  and  C_9
REMARK    5  A    between atoms: C_13  and  C_14
REMARK                            x       y       z     vdW  Elec       q    Type
REMARK                         _______ _______ _______ _____ _____    ______ ____
ROOT
ATOM      1  C   UNL     1      44.538   4.547  11.563  0.00  0.00    +0.000 C 
ATOM      2  C   UNL     1      45.019   3.569  12.624  0.00  0.00    +0.000 C 
ATOM      3  C   UNL     1      43.754   4.317  12.856  0.00  0.00    +0.000 C 
ENDROOT
BRANCH   1   4
ATOM      4  C   UNL     1      45.053   5.981  11.492  0.00  0.00    +0.000 A 
ATOM      5  C   UNL     1      44.157   7.061  11.405  0.00  0.00    +0.000 A 
ATOM      6  C   UNL     1      44.575   8.366  11.656  0.00  0.00    +0.000 A 
ATOM      7  C   UNL     1      45.908   8.611  11.989  0.00  0.00    +0.000 A 
ATOM      8  C   UNL     1      46.854   7.576  12.016  0.00  0.00    +0.000 A 
ATOM      9  C   UNL     1      46.406   6.276  11.712  0.00  0.00    +0.000 A 
BRANCH   8  10
ATOM     10  C   UNL     1      48.244   7.793  12.456  0.00  0.00    +0.000 A 
ATOM     11  C   UNL     1      48.560   8.048  13.803  0.00  0.00    +0.000 A 
ATOM     12  C   UNL     1      49.872   8.323  14.208  0.00  0.00    +0.000 A 
ATOM     13  C   UNL     1      50.899   8.338  13.275  0.00  0.00    +0.000 A 
ATOM     14  C   UNL     1      50.601   8.087  11.938  0.00  0.00    +0.000 A 
ATOM     15  F   UNL     1      51.582   8.119  11.024  0.00  0.00    +0.000 F 
ATOM     16  C   UNL     1      49.299   7.821  11.527  0.00  0.00    +0.000 A 
ENDBRANCH   8  10
ENDBRANCH   1   4
BRANCH   1  17
ATOM     17  N   UNL     1      44.057   3.997  10.288  0.00  0.00    +0.000 N 
ATOM     18  H   UNL     1      43.100   3.666  10.241  0.00  0.00    +0.000 HD
BRANCH  17  22
ATOM     19  C   UNL     1      46.717   2.524   7.339  0.00  0.00    +0.000 A 
ATOM     20  C   UNL     1      46.091   1.630   8.209  0.00  0.00    +0.000 A 
ATOM     21  C   UNL     1      45.211   2.103   9.188  0.00  0.00    +0.000 A 
ATOM     22  C   UNL     1      44.899   3.465   9.291  0.00  0.00    +0.000 A 
ATOM     23  C   UNL     1      45.553   4.352   8.422  0.00  0.00    +0.000 A 
ATOM     24  C   UNL     1      46.454   3.890   7.454  0.00  0.00    +0.000 A 
BRANCH  19  26
ATOM     25  N   UNL     1      48.385   1.654   5.551  0.00  0.00    +0.000 NA
ATOM     26  C   UNL     1      47.636   2.046   6.350  0.00  0.00    +0.000 C 
ENDBRANCH  19  26
ENDBRANCH  17  22
ENDBRANCH   1  17
TORSDOF 5
ENDMDL
MODEL 3
REMARK VINA RESULT:    -8.068      2.488      3.098
REMARK INTER + INTRA:         -11.327
REMARK INTER:                 -10.406
REMARK INTRA:                  -0.921
REMARK UNBOUND:                -0.901
REMARK  Name = 
REMARK  5 active torsions:
REMARK  status: ('A' for Active; 'I' for Inactive)
REMARK    1  A    between atoms: C_2  and  C_3
REMARK    2  A    between atoms: C_6  and  N_7
REMARK    3  A    between atoms: N_7  and  C_8
REMARK    4  A    between atoms: C_8  and  C_9
REMARK    5  A    between atoms: C_13  and  C_14
REMARK                            x       y       z     vdW  Elec       q    Type
REMARK                         _______ _______ _______ _____ _____    ______ ____
ROOT
ATOM      1  C   UNL     1      44.569   4.477  11.570  0.00  0.00    +0.000 C 
ATOM      2  C   UNL     1      45.071   3.509  12.632  0.00  0.00    +0.000 C 
ATOM      3  C   UNL     1      43.801   4.246  12.873  0.00  0.00    +0.000 C 
ENDROOT
BRANCH   1   4
ATOM      4  C   UNL     1      45.068   5.915  11.486  0.00  0.00    +0.000 A 
ATOM      5  C   UNL     1      44.162   6.983  11.357  0.00  0.00    +0.000 A 
ATOM      6  C   UNL     1      44.558   8.297  11.595  0.00  0.00    +0.000 A 
ATOM      7  C   UNL     1      45.879   8.564  11.957  0.00  0.00    +0.000 A 
ATOM      8  C   UNL     1      46.836   7.541  12.027  0.00  0.00    +0.000 A 
ATOM      9  C   UNL     1      46.412   6.231  11.735  0.00  0.00    +0.000 A 
BRANCH   8  10
ATOM     10  C   UNL     1      48.212   7.784  12.498  0.00  0.00    +0.000 A 
ATOM     11  C   UNL     1      49.260   8.065  11.603  0.00  0.00    +0.000 A 
ATOM     12  C   UNL     1      50.579   8.226  12.046  0.00  0.00    +0.000 A 
ATOM     13  C   UNL     1      50.876   8.121  13.398  0.00  0.00    +0.000 A 
ATOM     14  C   UNL     1      49.848   7.844  14.295  0.00  0.00    +0.000 A 
ATOM     15  F   UNL     1      50.125   7.721  15.602  0.00  0.00    +0.000 F 
ATOM     16  C   UNL     1      48.537   7.675  13.862  0.00  0.00    +0.000 A 
ENDBRANCH   8  10
ENDBRANCH   1   4
BRANCH   1  17
ATOM     17  N   UNL     1      44.081   3.915  10.303  0.00  0.00    +0.000 N 
ATOM     18  H   UNL     1      43.133   3.553  10.275  0.00  0.00    +0.000 HD
BRANCH  17  22
ATOM     19  C   UNL     1      46.729   2.533   7.301  0.00  0.00    +0.000 A 
ATOM     20  C   UNL     1      46.116   1.613   8.154  0.00  0.00    +0.000 A 
ATOM     21  C   UNL     1      45.240   2.057   9.151  0.00  0.00    +0.000 A 
ATOM     22  C   UNL     1      44.919   3.413   9.288  0.00  0.00    +0.000 A 
ATOM     23  C   UNL     1      45.560   4.325   8.435  0.00  0.00    +0.000 A 
ATOM     24  C   UNL     1      46.457   3.893   7.451  0.00  0.00    +0.000 A 
BRANCH  19  26
ATOM     25  N   UNL     1      48.385   1.716   5.477  0.00  0.00    +0.000 NA
ATOM     26  C   UNL     1      47.644   2.084   6.295  0.00  0.00    +0.000 C 
ENDBRANCH  19  26
ENDBRANCH  17  22
ENDBRANCH   1  17
TORSDOF 5
ENDMDL
MODEL 4
REMARK VINA RESULT:    -7.977      2.649      3.985
REMARK INTER + INTRA:         -11.209
REMARK INTER:                 -10.657
REMARK INTRA:                  -0.552
REMARK UNBOUND:                -0.901
REMARK  Name = 
REMARK  5 active torsions:
REMARK  status: ('A' for Active; 'I' for Inactive)
REMARK    1  A    between atoms: C_2  and  C_3
REMARK    2  A    between atoms: C_6  and  N_7
REMARK    3  A    between atoms: N_7  and  C_8
REMARK    4  A    between atoms: C_8  and  C_9
REMARK    5  A    between atoms: C_13  and  C_14
REMARK                            x       y       z     vdW  Elec       q    Type
REMARK                         _______ _______ _______ _____ _____    ______ ____
ROOT
ATOM      1  C   UNL     1      43.645   4.930  11.377  0.00  0.00    +0.000 C 
ATOM      2  C   UNL     1      42.312   5.540  11.786  0.00  0.00    +0.000 C 
ATOM      3  C   UNL     1      43.180   6.282  10.832  0.00  0.00    +0.000 C 
ENDROOT
BRANCH   1   4
ATOM      4  C   UNL     1      44.903   5.094  12.224  0.00  0.00    +0.000 A 
ATOM      5  C   UNL     1      45.395   4.023  12.992  0.00  0.00    +0.000 A 
ATOM      6  C   UNL     1      46.688   4.043  13.511  0.00  0.00    +0.000 A 
ATOM      7  C   UNL     1      47.508   5.147  13.276  0.00  0.00    +0.000 A 
ATOM      8  C   UNL     1      47.037   6.269  12.579  0.00  0.00    +0.000 A 
ATOM      9  C   UNL     1      45.711   6.235  12.108  0.00  0.00    +0.000 A 
BRANCH   8  10
ATOM     10  C   UNL     1      47.912   7.406  12.236  0.00  0.00    +0.000 A 
ATOM     11  C   UNL     1      47.431   8.728  12.216  0.00  0.00    +0.000 A 
ATOM     12  C   UNL     1      48.245   9.798  11.824  0.00  0.00    +0.000 A 
ATOM     13  C   UNL     1      49.563   9.569  11.453  0.00  0.00    +0.000 A 
ATOM     14  C   UNL     1      50.053   8.265  11.469  0.00  0.00    +0.000 A 
ATOM     15  F   UNL     1      51.318   8.029  11.094  0.00  0.00    +0.000 F 
ATOM     16  C   UNL     1      49.248   7.197  11.850  0.00  0.00    +0.000 A 
ENDBRANCH   8  10
ENDBRANCH   1   4
BRANCH   1  17
ATOM     17  N   UNL     1      43.621   3.731  10.528  0.00  0.00    +0.000 N 
ATOM     18  H   UNL     1      43.063   2.941  10.833  0.00  0.00    +0.000 HD
BRANCH  17  22
ATOM     19  C   UNL     1      46.544   2.603   7.677  0.00  0.00    +0.000 A 
ATOM     20  C   UNL     1      46.218   3.952   7.832  0.00  0.00    +0.000 A 
ATOM     21  C   UNL     1      45.253   4.338   8.769  0.00  0.00    +0.000 A 
ATOM     22  C   UNL     1      44.630   3.400   9.602  0.00  0.00    +0.000 A 
ATOM     23  C   UNL     1      44.955   2.047   9.420  0.00  0.00    +0.000 A 
ATOM     24  C   UNL     1      45.901   1.648   8.467  0.00  0.00    +0.000 A 
BRANCH  19  26
ATOM     25  N   UNL     1      48.301   1.871   5.914  0.00  0.00    +0.000 NA
ATOM     26  C   UNL     1      47.513   2.202   6.703  0.00  0.00    +0.000 C 
ENDBRANCH  19  26
ENDBRANCH  17  22
ENDBRANCH   1  17
TORSDOF 5
ENDMDL
MODEL 5
REMARK VINA RESULT:    -7.038      3.714      7.146
REMARK INTER + INTRA:          -9.997
REMARK INTER:                  -9.120
REMARK INTRA:                  -0.877
REMARK UNBOUND:                -0.901
REMARK  Name = 
REMARK  5 active torsions:
REMARK  status: ('A' for Active; 'I' for Inactive)
REMARK    1  A    between atoms: C_2  and  C_3
REMARK    2  A    between atoms: C_6  and  N_7
REMARK    3  A    between atoms: N_7  and  C_8
REMARK    4  A    between atoms: C_8  and  C_9
REMARK    5  A    between atoms: C_13  and  C_14
REMARK                            x       y       z     vdW  Elec       q    Type
REMARK                         _______ _______ _______ _____ _____    ______ ____
ROOT
ATOM      1  C   UNL     1      43.969   6.304  11.873  0.00  0.00    +0.000 C 
ATOM      2  C   UNL     1      43.476   7.301  10.834  0.00  0.00    +0.000 C 
ATOM      3  C   UNL     1      42.491   6.686  11.764  0.00  0.00    +0.000 C 
ENDROOT
BRANCH   1   4
ATOM      4  C   UNL     1      44.170   4.828  11.545  0.00  0.00    +0.000 A 
ATOM      5  C   UNL     1      43.363   3.844  12.143  0.00  0.00    +0.000 A 
ATOM      6  C   UNL     1      43.310   2.549  11.634  0.00  0.00    +0.000 A 
ATOM      7  C   UNL     1      44.079   2.214  10.518  0.00  0.00    +0.000 A 
ATOM      8  C   UNL     1      44.954   3.141   9.933  0.00  0.00    +0.000 A 
ATOM      9  C   UNL     1      45.016   4.427  10.501  0.00  0.00    +0.000 A 
BRANCH   8  10
ATOM     10  C   UNL     1      45.704   2.842   8.699  0.00  0.00    +0.000 A 
ATOM     11  C   UNL     1      46.037   3.849   7.776  0.00  0.00    +0.000 A 
ATOM     12  C   UNL     1      46.689   3.553   6.572  0.00  0.00    +0.000 A 
ATOM     13  C   UNL     1      47.029   2.242   6.270  0.00  0.00    +0.000 A 
ATOM     14  C   UNL     1      46.705   1.235   7.175  0.00  0.00    +0.000 A 
ATOM     15  F   UNL     1      47.012  -0.039   6.885  0.00  0.00    +0.000 F 
ATOM     16  C   UNL     1      46.052   1.520   8.369  0.00  0.00    +0.000 A 
ENDBRANCH   8  10
ENDBRANCH   1   4
BRANCH   1  17
ATOM     17  N   UNL     1      44.795   6.813  12.976  0.00  0.00    +0.000 N 
ATOM     18  H   UNL     1      44.324   7.229  13.773  0.00  0.00    +0.000 HD
BRANCH  17  22
ATOM     19  C   UNL     1      48.879   7.812  12.467  0.00  0.00    +0.000 A 
ATOM     20  C   UNL     1      47.899   8.774  12.216  0.00  0.00    +0.000 A 
ATOM     21  C   UNL     1      46.546   8.457  12.379  0.00  0.00    +0.000 A 
ATOM     22  C   UNL     1      46.144   7.197  12.840  0.00  0.00    +0.000 A 
ATOM     23  C   UNL     1      47.141   6.236  13.068  0.00  0.00    +0.000 A 
ATOM     24  C   UNL     1      48.496   6.537  12.883  0.00  0.00    +0.000 A 
BRANCH  19  26
ATOM     25  N   UNL     1      51.388   8.383  12.130  0.00  0.00    +0.000 NA
ATOM     26  C   UNL     1      50.263   8.126  12.278  0.00  0.00    +0.000 C 
ENDBRANCH  19  26
ENDBRANCH  17  22
ENDBRANCH   1  17
TORSDOF 5
ENDMDL
MODEL 6
REMARK VINA RESULT:    -6.980      3.133      7.567
REMARK INTER + INTRA:          -9.922
REMARK INTER:                  -9.753
REMARK INTRA:                  -0.170
REMARK UNBOUND:                -0.901
REMARK  Name = 
REMARK  5 active torsions:
REMARK  status: ('A' for Active; 'I' for Inactive)
REMARK    1  A    between atoms: C_2  and  C_3
REMARK    2  A    between atoms: C_6  and  N_7
REMARK    3  A    between atoms: N_7  and  C_8
REMARK    4  A    between atoms: C_8  and  C_9
REMARK    5  A    between atoms: C_13  and  C_14
REMARK                            x       y       z     vdW  Elec       q    Type
REMARK                         _______ _______ _______ _____ _____    ______ ____
ROOT
ATOM      1  C   UNL     1      46.133   7.266  12.135  0.00  0.00    +0.000 C 
ATOM      2  C   UNL     1      45.940   8.712  11.701  0.00  0.00    +0.000 C 
ATOM      3  C   UNL     1      45.259   8.235  12.935  0.00  0.00    +0.000 C 
ENDROOT
BRANCH   1   4
ATOM      4  C   UNL     1      45.292   6.130  11.561  0.00  0.00    +0.000 A 
ATOM      5  C   UNL     1      43.896   6.115  11.728  0.00  0.00    +0.000 A 
ATOM      6  C   UNL     1      43.087   5.282  10.960  0.00  0.00    +0.000 A 
ATOM      7  C   UNL     1      43.669   4.437  10.014  0.00  0.00    +0.000 A 
ATOM      8  C   UNL     1      45.061   4.364   9.862  0.00  0.00    +0.000 A 
ATOM      9  C   UNL     1      45.851   5.186  10.686  0.00  0.00    +0.000 A 
BRANCH   8  10
ATOM     10  C   UNL     1      45.694   3.551   8.806  0.00  0.00    +0.000 A 
ATOM     11  C   UNL     1      46.209   4.136   7.635  0.00  0.00    +0.000 A 
ATOM     12  C   UNL     1      46.747   3.356   6.603  0.00  0.00    +0.000 A 
ATOM     13  C   UNL     1      46.791   1.975   6.726  0.00  0.00    +0.000 A 
ATOM     14  C   UNL     1      46.285   1.383   7.880  0.00  0.00    +0.000 A 
ATOM     15  F   UNL     1      46.303   0.047   8.002  0.00  0.00    +0.000 F 
ATOM     16  C   UNL     1      45.742   2.149   8.906  0.00  0.00    +0.000 A 
ENDBRANCH   8  10
ENDBRANCH   1   4
BRANCH   1  17
ATOM     17  N   UNL     1      47.457   6.868  12.631  0.00  0.00    +0.000 N 
ATOM     18  H   UNL     1      48.209   6.766  11.957  0.00  0.00    +0.000 HD
BRANCH  17  22
ATOM     19  C   UNL     1      48.073   4.957  16.361  0.00  0.00    +0.000 A 
ATOM     20  C   UNL     1      47.215   4.378  15.424  0.00  0.00    +0.000 A 
ATOM     21  C   UNL     1      47.002   4.999  14.189  0.00  0.00    +0.000 A 
ATOM     22  C   UNL     1      47.672   6.179  13.841  0.00  0.00    +0.000 A 
ATOM     23  C   UNL     1      48.514   6.759  14.803  0.00  0.00    +0.000 A 
ATOM     24  C   UNL     1      48.715   6.157  16.051  0.00  0.00    +0.000 A 
BRANCH  19  26
ATOM     25  N   UNL     1      48.438   3.837  18.673  0.00  0.00    +0.000 NA
ATOM     26  C   UNL     1      48.275   4.337  17.635  0.00  0.00    +0.000 C 
ENDBRANCH  19  26
ENDBRANCH  17  22
ENDBRANCH   1  17
TORSDOF 5
ENDMDL
MODEL 7
REMARK VINA RESULT:    -6.630      3.351      7.140
REMARK INTER + INTRA:          -9.469
REMARK INTER:                  -9.115
REMARK INTRA:                  -0.354
REMARK UNBOUND:                -0.901
REMARK  Name = 
REMARK  5 active torsions:
REMARK  status: ('A' for Active; 'I' for Inactive)
REMARK    1  A    between atoms: C_2  and  C_3
REMARK    2  A    between atoms: C_6  and  N_7
REMARK    3  A    between atoms: N_7  and  C_8
REMARK    4  A    between atoms: C_8  and  C_9
REMARK    5  A    between atoms: C_13  and  C_14
REMARK                            x       y       z     vdW  Elec       q    Type
REMARK                         _______ _______ _______ _____ _____    ______ ____
ROOT
ATOM      1  C   UNL     1      46.058   4.921  13.494  0.00  0.00    +0.000 C 
ATOM      2  C   UNL     1      46.109   4.047  14.739  0.00  0.00    +0.000 C 
ATOM      3  C   UNL     1      47.137   3.852  13.681  0.00  0.00    +0.000 C 
ENDROOT
BRANCH   1   4
ATOM      4  C   UNL     1      45.164   4.583  12.306  0.00  0.00    +0.000 A 
ATOM      5  C   UNL     1      43.905   5.193  12.159  0.00  0.00    +0.000 A 
ATOM      6  C   UNL     1      43.220   5.148  10.947  0.00  0.00    +0.000 A 
ATOM      7  C   UNL     1      43.783   4.478   9.861  0.00  0.00    +0.000 A 
ATOM      8  C   UNL     1      45.001   3.792   9.980  0.00  0.00    +0.000 A 
ATOM      9  C   UNL     1      45.644   3.820  11.232  0.00  0.00    +0.000 A 
BRANCH   8  10
ATOM     10  C   UNL     1      45.661   3.158   8.824  0.00  0.00    +0.000 A 
ATOM     11  C   UNL     1      46.040   3.902   7.691  0.00  0.00    +0.000 A 
ATOM     12  C   UNL     1      46.604   3.287   6.567  0.00  0.00    +0.000 A 
ATOM     13  C   UNL     1      46.812   1.915   6.555  0.00  0.00    +0.000 A 
ATOM     14  C   UNL     1      46.442   1.166   7.670  0.00  0.00    +0.000 A 
ATOM     15  F   UNL     1      46.619  -0.163   7.663  0.00  0.00    +0.000 F 
ATOM     16  C   UNL     1      45.873   1.768   8.788  0.00  0.00    +0.000 A 
ENDBRANCH   8  10
ENDBRANCH   1   4
BRANCH   1  17
ATOM     17  N   UNL     1      46.383   6.346  13.640  0.00  0.00    +0.000 N 
ATOM     18  H   UNL     1      45.618   7.000  13.768  0.00  0.00    +0.000 HD
BRANCH  17  22
ATOM     19  C   UNL     1      50.053   7.995  12.317  0.00  0.00    +0.000 A 
ATOM     20  C   UNL     1      49.049   7.717  11.388  0.00  0.00    +0.000 A 
ATOM     21  C   UNL     1      47.832   7.171  11.811  0.00  0.00    +0.000 A 
ATOM     22  C   UNL     1      47.572   6.937  13.168  0.00  0.00    +0.000 A 
ATOM     23  C   UNL     1      48.599   7.204  14.085  0.00  0.00    +0.000 A 
ATOM     24  C   UNL     1      49.830   7.727  13.668  0.00  0.00    +0.000 A 
BRANCH  19  26
ATOM     25  N   UNL     1      52.330   8.963  11.533  0.00  0.00    +0.000 NA
ATOM     26  C   UNL     1      51.308   8.532  11.884  0.00  0.00    +0.000 C 
ENDBRANCH  19  26
ENDBRANCH  17  22
ENDBRANCH   1  17
TORSDOF 5
ENDMDL
MODEL 8
REMARK VINA RESULT:    -6.528      3.829      8.032
REMARK INTER + INTRA:          -9.338
REMARK INTER:                  -8.428
REMARK INTRA:                  -0.910
REMARK UNBOUND:                -0.901
REMARK  Name = 
REMARK  5 active torsions:
REMARK  status: ('A' for Active; 'I' for Inactive)
REMARK    1  A    between atoms: C_2  and  C_3
REMARK    2  A    between atoms: C_6  and  N_7
REMARK    3  A    between atoms: N_7  and  C_8
REMARK    4  A    between atoms: C_8  and  C_9
REMARK    5  A    between atoms: C_13  and  C_14
REMARK                            x       y       z     vdW  Elec       q    Type
REMARK                         _______ _______ _______ _____ _____    ______ ____
ROOT
ATOM      1  C   UNL     1      48.674   7.988  12.631  0.00  0.00    +0.000 C 
ATOM      2  C   UNL     1      49.784   7.411  11.765  0.00  0.00    +0.000 C 
ATOM      3  C   UNL     1      49.267   8.772  11.458  0.00  0.00    +0.000 C 
ENDROOT
BRANCH   1   4
ATOM      4  C   UNL     1      47.204   7.670  12.379  0.00  0.00    +0.000 A 
ATOM      5  C   UNL     1      46.216   8.655  12.558  0.00  0.00    +0.000 A 
ATOM      6  C   UNL     1      44.934   8.491  12.041  0.00  0.00    +0.000 A 
ATOM      7  C   UNL     1      44.616   7.326  11.340  0.00  0.00    +0.000 A 
ATOM      8  C   UNL     1      45.545   6.285  11.200  0.00  0.00    +0.000 A 
ATOM      9  C   UNL     1      46.817   6.465  11.775  0.00  0.00    +0.000 A 
BRANCH   8  10
ATOM     10  C   UNL     1      45.266   5.088  10.385  0.00  0.00    +0.000 A 
ATOM     11  C   UNL     1      44.578   3.980  10.913  0.00  0.00    +0.000 A 
ATOM     12  C   UNL     1      44.374   2.818  10.160  0.00  0.00    +0.000 A 
ATOM     13  C   UNL     1      44.846   2.742   8.857  0.00  0.00    +0.000 A 
ATOM     14  C   UNL     1      45.528   3.831   8.321  0.00  0.00    +0.000 A 
ATOM     15  F   UNL     1      46.006   3.762   7.070  0.00  0.00    +0.000 F 
ATOM     16  C   UNL     1      45.742   4.986   9.066  0.00  0.00    +0.000 A 
ENDBRANCH   8  10
ENDBRANCH   1   4
BRANCH   1  17
ATOM     17  N   UNL     1      49.001   8.352  14.017  0.00  0.00    +0.000 N 
ATOM     18  H   UNL     1      49.227   9.321  14.215  0.00  0.00    +0.000 HD
BRANCH  17  22
ATOM     19  C   UNL     1      50.523   5.752  16.994  0.00  0.00    +0.000 A 
ATOM     20  C   UNL     1      49.165   5.713  16.676  0.00  0.00    +0.000 A 
ATOM     21  C   UNL     1      48.649   6.567  15.695  0.00  0.00    +0.000 A 
ATOM     22  C   UNL     1      49.478   7.440  14.979  0.00  0.00    +0.000 A 
ATOM     23  C   UNL     1      50.837   7.481  15.327  0.00  0.00    +0.000 A 
ATOM     24  C   UNL     1      51.358   6.647  16.324  0.00  0.00    +0.000 A 
BRANCH  19  26
ATOM     25  N   UNL     1      51.478   4.205  18.846  0.00  0.00    +0.000 NA
ATOM     26  C   UNL     1      51.050   4.896  18.014  0.00  0.00    +0.000 C 
ENDBRANCH  19  26
ENDBRANCH  17  22
ENDBRANCH   1  17
TORSDOF 5
ENDMDL
MODEL 9
REMARK VINA RESULT:    -6.225      3.854      7.650
REMARK INTER + INTRA:          -8.946
REMARK INTER:                  -7.681
REMARK INTRA:                  -1.264
REMARK UNBOUND:                -0.901
REMARK  Name = 
REMARK  5 active torsions:
REMARK  status: ('A' for Active; 'I' for Inactive)
REMARK    1  A    between atoms: C_2  and  C_3
REMARK    2  A    between atoms: C_6  and  N_7
REMARK    3  A    between atoms: N_7  and  C_8
REMARK    4  A    between atoms: C_8  and  C_9
REMARK    5  A    between atoms: C_13  and  C_14
REMARK                            x       y       z     vdW  Elec       q    Type
REMARK                         _______ _______ _______ _____ _____    ______ ____
ROOT
ATOM      1  C   UNL     1      48.691   8.276  16.571  0.00  0.00    +0.000 C 
ATOM      2  C   UNL     1      49.590   9.268  17.293  0.00  0.00    +0.000 C 
ATOM      3  C   UNL     1      48.212   9.687  16.918  0.00  0.00    +0.000 C 
ENDROOT
BRANCH   1   4
ATOM      4  C   UNL     1      48.751   8.083  15.059  0.00  0.00    +0.000 A 
ATOM      5  C   UNL     1      49.958   8.261  14.360  0.00  0.00    +0.000 A 
ATOM      6  C   UNL     1      50.113   7.792  13.058  0.00  0.00    +0.000 A 
ATOM      7  C   UNL     1      49.050   7.142  12.428  0.00  0.00    +0.000 A 
ATOM      8  C   UNL     1      47.805   7.006  13.058  0.00  0.00    +0.000 A 
ATOM      9  C   UNL     1      47.669   7.533  14.356  0.00  0.00    +0.000 A 
BRANCH   8  10
ATOM     10  C   UNL     1      46.698   6.242  12.452  0.00  0.00    +0.000 A 
ATOM     11  C   UNL     1      46.426   6.305  11.073  0.00  0.00    +0.000 A 
ATOM     12  C   UNL     1      45.333   5.634  10.511  0.00  0.00    +0.000 A 
ATOM     13  C   UNL     1      44.495   4.874  11.315  0.00  0.00    +0.000 A 
ATOM     14  C   UNL     1      44.753   4.802  12.681  0.00  0.00    +0.000 A 
ATOM     15  F   UNL     1      43.939   4.087  13.472  0.00  0.00    +0.000 F 
ATOM     16  C   UNL     1      45.832   5.472  13.249  0.00  0.00    +0.000 A 
ENDBRANCH   8  10
ENDBRANCH   1   4
BRANCH   1  17
ATOM     17  N   UNL     1      48.204   7.113  17.325  0.00  0.00    +0.000 N 
ATOM     18  H   UNL     1      47.562   7.277  18.093  0.00  0.00    +0.000 HD
BRANCH  17  22
ATOM     19  C   UNL     1      50.135   3.343  17.382  0.00  0.00    +0.000 A 
ATOM     20  C   UNL     1      50.899   4.509  17.453  0.00  0.00    +0.000 A 
ATOM     21  C   UNL     1      50.274   5.761  17.434  0.00  0.00    +0.000 A 
ATOM     22  C   UNL     1      48.879   5.878  17.393  0.00  0.00    +0.000 A 
ATOM     23  C   UNL     1      48.127   4.697  17.301  0.00  0.00    +0.000 A 
ATOM     24  C   UNL     1      48.745   3.440  17.295  0.00  0.00    +0.000 A 
BRANCH  19  26
ATOM     25  N   UNL     1      51.290   1.019  17.368  0.00  0.00    +0.000 NA
ATOM     26  C   UNL     1      50.772   2.061  17.377  0.00  0.00    +0.000 C 
ENDBRANCH  19  26
ENDBRANCH  17  22
ENDBRANCH   1  17
TORSDOF 5
ENDMDL
