MODEL 1
REMARK VINA RESULT:    -8.180      0.000      0.000
REMARK INTER + INTRA:         -13.557
REMARK INTER:                 -12.722
REMARK INTRA:                  -0.835
REMARK UNBOUND:                -0.835
REMARK  Name = 
REMARK  10 active torsions:
REMARK  status: ('A' for Active; 'I' for Inactive)
REMARK    1  A    between atoms: N_1  and  C_2
REMARK    2  A    between atoms: C_2  and  C_3
REMARK    3  A    between atoms: C_3  and  N_4
REMARK    4  A    between atoms: C_3  and  C_20
REMARK    5  A    between atoms: N_4  and  C_5
REMARK    6  A    between atoms: C_5  and  C_6
REMARK    7  A    between atoms: C_9  and  C_10
REMARK    8  A    between atoms: C_10  and  N_11
REMARK    9  A    between atoms: N_11  and  C_12
REMARK   10  A    between atoms: C_12  and  C_13
REMARK                            x       y       z     vdW  Elec       q    Type
REMARK                         _______ _______ _______ _____ _____    ______ ____
ROOT
ATOM      1  N   UNL     1      48.139   6.027  15.983  0.00  0.00    +0.000 NA
ATOM      2  H   UNL     1      48.924   6.562  16.354  0.00  0.00    +0.000 HD
ENDROOT
BRANCH   1   3
ATOM      3  C   UNL     1      48.214   4.669  16.568  0.00  0.00    +0.000 C 
BRANCH   3   4
ATOM      4  C   UNL     1      49.576   4.566  17.251  0.00  0.00    +0.000 A 
ATOM      5  C   UNL     1      50.195   5.629  17.893  0.00  0.00    +0.000 A 
ATOM      6  S   UNL     1      51.708   5.239  18.571  0.00  0.00    +0.000 S 
ATOM      7  C   UNL     1      51.605   3.635  18.016  0.00  0.00    +0.000 A 
ATOM      8  N   UNL     1      52.608   2.751  18.258  0.00  0.00    +0.000 NA
ATOM      9  C   UNL     1      52.403   1.569  17.776  0.00  0.00    +0.000 A 
ATOM     10  N   UNL     1      51.284   1.194  17.077  0.00  0.00    +0.000 N 
ATOM     11  C   UNL     1      50.243   2.056  16.804  0.00  0.00    +0.000 A 
ATOM     12  O   UNL     1      49.258   1.686  16.167  0.00  0.00    +0.000 OA
ATOM     13  C   UNL     1      50.426   3.397  17.328  0.00  0.00    +0.000 A 
ATOM     14  H   UNL     1      51.190   0.254  16.729  0.00  0.00    +0.000 HD
ENDBRANCH   3   4
BRANCH   3  15
ATOM     15  C   UNL     1      47.034   4.331  17.547  0.00  0.00    +0.000 C 
BRANCH  15  16
ATOM     16  N   UNL     1      46.690   2.907  17.659  0.00  0.00    +0.000 NA
ATOM     17  H   UNL     1      47.503   2.368  17.949  0.00  0.00    +0.000 HD
ATOM     18  H   UNL     1      46.396   2.564  16.743  0.00  0.00    +0.000 HD
ENDBRANCH  15  16
ENDBRANCH   3  15
ENDBRANCH   1   3
BRANCH   1  19
ATOM     19  C   UNL     1      48.224   6.021  14.524  0.00  0.00    +0.000 C 
BRANCH  19  20
ATOM     20  C   UNL     1      47.058   5.309  13.889  0.00  0.00    +0.000 A 
ATOM     21  C   UNL     1      45.980   5.998  13.326  0.00  0.00    +0.000 A 
ATOM     22  C   UNL     1      44.945   5.290  12.720  0.00  0.00    +0.000 A 
ATOM     23  C   UNL     1      45.017   3.900  12.673  0.00  0.00    +0.000 A 
ATOM     24  N   UNL     1      46.057   3.208  13.202  0.00  0.00    +0.000 NA
ATOM     25  C   UNL     1      47.036   3.921  13.801  0.00  0.00    +0.000 A 
BRANCH  23  26
ATOM     26  C   UNL     1      43.889   3.090  12.063  0.00  0.00    +0.000 C 
BRANCH  26  27
ATOM     27  N   UNL     1      44.230   2.458  10.782  0.00  0.00    +0.000 NA
ATOM     28  H   UNL     1      43.402   1.936  10.476  0.00  0.00    +0.000 HD
BRANCH  27  29
ATOM     29  C   UNL     1      44.494   3.455   9.740  0.00  0.00    +0.000 C 
BRANCH  29  30
ATOM     30  C   UNL     1      45.397   2.842   8.721  0.00  0.00    +0.000 A 
ATOM     31  C   UNL     1      45.952   3.413   7.593  0.00  0.00    +0.000 A 
ATOM     32  N   UNL     1      46.697   2.423   7.016  0.00  0.00    +0.000 N 
ATOM     33  C   UNL     1      46.573   1.306   7.793  0.00  0.00    +0.000 A 
ATOM     34  N   UNL     1      45.794   1.524   8.826  0.00  0.00    +0.000 NA
ATOM     35  H   UNL     1      47.247   2.498   6.173  0.00  0.00    +0.000 HD
ENDBRANCH  29  30
ENDBRANCH  27  29
ENDBRANCH  26  27
ENDBRANCH  23  26
ENDBRANCH  19  20
ENDBRANCH   1  19
TORSDOF 10
ENDMDL
MODEL 2
REMARK VINA RESULT:    -7.698      2.177      3.009
REMARK INTER + INTRA:         -12.808
REMARK INTER:                 -11.563
REMARK INTRA:                  -1.245
REMARK UNBOUND:                -0.835
REMARK  Name = 
REMARK  10 active torsions:
REMARK  status: ('A' for Active; 'I' for Inactive)
REMARK    1  A    between atoms: N_1  and  C_2
REMARK    2  A    between atoms: C_2  and  C_3
REMARK    3  A    between atoms: C_3  and  N_4
REMARK    4  A    between atoms: C_3  and  C_20
REMARK    5  A    between atoms: N_4  and  C_5
REMARK    6  A    between atoms: C_5  and  C_6
REMARK    7  A    between atoms: C_9  and  C_10
REMARK    8  A    between atoms: C_10  and  N_11
REMARK    9  A    between atoms: N_11  and  C_12
REMARK   10  A    between atoms: C_12  and  C_13
REMARK                            x       y       z     vdW  Elec       q    Type
REMARK                         _______ _______ _______ _____ _____    ______ ____
ROOT
ATOM      1  N   UNL     1      48.642   6.371  16.593  0.00  0.00    +0.000 NA
ATOM      2  H   UNL     1      49.264   6.803  17.276  0.00  0.00    +0.000 HD
ENDROOT
BRANCH   1   3
ATOM      3  C   UNL     1      48.596   4.922  16.892  0.00  0.00    +0.000 C 
BRANCH   3   4
ATOM      4  C   UNL     1      49.937   4.566  17.528  0.00  0.00    +0.000 A 
ATOM      5  C   UNL     1      50.707   5.468  18.251  0.00  0.00    +0.000 A 
ATOM      6  S   UNL     1      52.158   4.809  18.851  0.00  0.00    +0.000 S 
ATOM      7  C   UNL     1      51.826   3.296  18.152  0.00  0.00    +0.000 A 
ATOM      8  N   UNL     1      52.698   2.263  18.285  0.00  0.00    +0.000 NA
ATOM      9  C   UNL     1      52.325   1.172  17.700  0.00  0.00    +0.000 A 
ATOM     10  N   UNL     1      51.156   1.024  16.997  0.00  0.00    +0.000 N 
ATOM     11  C   UNL     1      50.242   2.043  16.832  0.00  0.00    +0.000 A 
ATOM     12  O   UNL     1      49.208   1.876  16.188  0.00  0.00    +0.000 OA
ATOM     13  C   UNL     1      50.617   3.290  17.474  0.00  0.00    +0.000 A 
ATOM     14  H   UNL     1      50.927   0.144  16.565  0.00  0.00    +0.000 HD
ENDBRANCH   3   4
BRANCH   3  15
ATOM     15  C   UNL     1      47.383   4.496  17.793  0.00  0.00    +0.000 C 
BRANCH  15  16
ATOM     16  N   UNL     1      46.708   3.251  17.402  0.00  0.00    +0.000 NA
ATOM     17  H   UNL     1      46.576   2.649  18.212  0.00  0.00    +0.000 HD
ATOM     18  H   UNL     1      47.294   2.752  16.732  0.00  0.00    +0.000 HD
ENDBRANCH  15  16
ENDBRANCH   3  15
ENDBRANCH   1   3
BRANCH   1  19
ATOM     19  C   UNL     1      49.148   6.658  15.252  0.00  0.00    +0.000 C 
BRANCH  19  20
ATOM     20  C   UNL     1      48.036   6.865  14.257  0.00  0.00    +0.000 A 
ATOM     21  C   UNL     1      47.505   5.815  13.502  0.00  0.00    +0.000 A 
ATOM     22  C   UNL     1      46.453   6.056  12.622  0.00  0.00    +0.000 A 
ATOM     23  C   UNL     1      45.939   7.347  12.525  0.00  0.00    +0.000 A 
ATOM     24  N   UNL     1      46.429   8.381  13.253  0.00  0.00    +0.000 NA
ATOM     25  C   UNL     1      47.462   8.120  14.084  0.00  0.00    +0.000 A 
BRANCH  23  26
ATOM     26  C   UNL     1      44.824   7.661  11.546  0.00  0.00    +0.000 C 
BRANCH  26  27
ATOM     27  N   UNL     1      44.376   6.506  10.758  0.00  0.00    +0.000 NA
ATOM     28  H   UNL     1      45.039   5.745  10.937  0.00  0.00    +0.000 HD
BRANCH  27  29
ATOM     29  C   UNL     1      43.066   6.022  11.205  0.00  0.00    +0.000 C 
BRANCH  29  30
ATOM     30  C   UNL     1      43.236   4.642  11.749  0.00  0.00    +0.000 A 
ATOM     31  C   UNL     1      43.397   4.237  13.059  0.00  0.00    +0.000 A 
ATOM     32  N   UNL     1      43.504   2.875  13.006  0.00  0.00    +0.000 N 
ATOM     33  C   UNL     1      43.409   2.505  11.694  0.00  0.00    +0.000 A 
ATOM     34  N   UNL     1      43.250   3.545  10.912  0.00  0.00    +0.000 NA
ATOM     35  H   UNL     1      43.625   2.250  13.789  0.00  0.00    +0.000 HD
ENDBRANCH  29  30
ENDBRANCH  27  29
ENDBRANCH  26  27
ENDBRANCH  23  26
ENDBRANCH  19  20
ENDBRANCH   1  19
TORSDOF 10
ENDMDL
MODEL 3
REMARK VINA RESULT:    -7.483      1.778      2.346
REMARK INTER + INTRA:         -12.473
REMARK INTER:                 -11.336
REMARK INTRA:                  -1.138
REMARK UNBOUND:                -0.835
REMARK  Name = 
REMARK  10 active torsions:
REMARK  status: ('A' for Active; 'I' for Inactive)
REMARK    1  A    between atoms: N_1  and  C_2
REMARK    2  A    between atoms: C_2  and  C_3
REMARK    3  A    between atoms: C_3  and  N_4
REMARK    4  A    between atoms: C_3  and  C_20
REMARK    5  A    between atoms: N_4  and  C_5
REMARK    6  A    between atoms: C_5  and  C_6
REMARK    7  A    between atoms: C_9  and  C_10
REMARK    8  A    between atoms: C_10  and  N_11
REMARK    9  A    between atoms: N_11  and  C_12
REMARK   10  A    between atoms: C_12  and  C_13
REMARK                            x       y       z     vdW  Elec       q    Type
REMARK                         _______ _______ _______ _____ _____    ______ ____
ROOT
ATOM      1  N   UNL     1      48.167   5.914  14.999  0.00  0.00    +0.000 NA
ATOM      2  H   UNL     1      47.304   5.539  15.392  0.00  0.00    +0.000 HD
ENDROOT
BRANCH   1   3
ATOM      3  C   UNL     1      48.658   6.958  15.928  0.00  0.00    +0.000 C 
BRANCH   3   4
ATOM      4  C   UNL     1      50.102   6.594  16.266  0.00  0.00    +0.000 A 
ATOM      5  C   UNL     1      51.200   7.313  15.813  0.00  0.00    +0.000 A 
ATOM      6  S   UNL     1      52.695   6.690  16.339  0.00  0.00    +0.000 S 
ATOM      7  C   UNL     1      51.935   5.422  17.178  0.00  0.00    +0.000 A 
ATOM      8  N   UNL     1      52.668   4.499  17.854  0.00  0.00    +0.000 NA
ATOM      9  C   UNL     1      51.965   3.588  18.442  0.00  0.00    +0.000 A 
ATOM     10  N   UNL     1      50.594   3.520  18.416  0.00  0.00    +0.000 N 
ATOM     11  C   UNL     1      49.809   4.431  17.741  0.00  0.00    +0.000 A 
ATOM     12  O   UNL     1      48.583   4.334  17.733  0.00  0.00    +0.000 OA
ATOM     13  C   UNL     1      50.555   5.476  17.065  0.00  0.00    +0.000 A 
ATOM     14  H   UNL     1      50.110   2.780  18.897  0.00  0.00    +0.000 HD
ENDBRANCH   3   4
BRANCH   3  15
ATOM     15  C   UNL     1      48.531   8.419  15.368  0.00  0.00    +0.000 C 
BRANCH  15  16
ATOM     16  N   UNL     1      47.546   9.274  16.045  0.00  0.00    +0.000 NA
ATOM     17  H   UNL     1      47.738   9.315  17.043  0.00  0.00    +0.000 HD
ATOM     18  H   UNL     1      46.616   8.872  15.919  0.00  0.00    +0.000 HD
ENDBRANCH  15  16
ENDBRANCH   3  15
ENDBRANCH   1   3
BRANCH   1  19
ATOM     19  C   UNL     1      47.885   6.433  13.662  0.00  0.00    +0.000 C 
BRANCH  19  20
ATOM     20  C   UNL     1      46.834   5.623  12.948  0.00  0.00    +0.000 A 
ATOM     21  C   UNL     1      46.290   6.019  11.723  0.00  0.00    +0.000 A 
ATOM     22  C   UNL     1      45.347   5.214  11.089  0.00  0.00    +0.000 A 
ATOM     23  C   UNL     1      44.977   4.012  11.688  0.00  0.00    +0.000 A 
ATOM     24  N   UNL     1      45.497   3.599  12.870  0.00  0.00    +0.000 NA
ATOM     25  C   UNL     1      46.395   4.411  13.471  0.00  0.00    +0.000 A 
BRANCH  23  26
ATOM     26  C   UNL     1      43.920   3.128  11.053  0.00  0.00    +0.000 C 
BRANCH  26  27
ATOM     27  N   UNL     1      43.950   3.118   9.585  0.00  0.00    +0.000 NA
ATOM     28  H   UNL     1      44.471   3.951   9.290  0.00  0.00    +0.000 HD
BRANCH  27  29
ATOM     29  C   UNL     1      44.693   1.965   9.068  0.00  0.00    +0.000 C 
BRANCH  29  30
ATOM     30  C   UNL     1      45.781   2.469   8.176  0.00  0.00    +0.000 A 
ATOM     31  C   UNL     1      45.997   3.749   7.706  0.00  0.00    +0.000 A 
ATOM     32  N   UNL     1      47.124   3.665   6.937  0.00  0.00    +0.000 N 
ATOM     33  C   UNL     1      47.545   2.366   6.962  0.00  0.00    +0.000 A 
ATOM     34  N   UNL     1      46.756   1.619   7.696  0.00  0.00    +0.000 NA
ATOM     35  H   UNL     1      47.572   4.423   6.442  0.00  0.00    +0.000 HD
ENDBRANCH  29  30
ENDBRANCH  27  29
ENDBRANCH  26  27
ENDBRANCH  23  26
ENDBRANCH  19  20
ENDBRANCH   1  19
TORSDOF 10
ENDMDL
MODEL 4
REMARK VINA RESULT:    -7.406      2.398      3.218
REMARK INTER + INTRA:         -12.353
REMARK INTER:                 -11.306
REMARK INTRA:                  -1.047
REMARK UNBOUND:                -0.835
REMARK  Name = 
REMARK  10 active torsions:
REMARK  status: ('A' for Active; 'I' for Inactive)
REMARK    1  A    between atoms: N_1  and  C_2
REMARK    2  A    between atoms: C_2  and  C_3
REMARK    3  A    between atoms: C_3  and  N_4
REMARK    4  A    between atoms: C_3  and  C_20
REMARK    5  A    between atoms: N_4  and  C_5
REMARK    6  A    between atoms: C_5  and  C_6
REMARK    7  A    between atoms: C_9  and  C_10
REMARK    8  A    between atoms: C_10  and  N_11
REMARK    9  A    between atoms: N_11  and  C_12
REMARK   10  A    between atoms: C_12  and  C_13
REMARK                            x       y       z     vdW  Elec       q    Type
REMARK                         _______ _______ _______ _____ _____    ______ ____
ROOT
ATOM      1  N   UNL     1      47.301   4.932  15.952  0.00  0.00    +0.000 NA
ATOM      2  H   UNL     1      47.006   5.654  16.608  0.00  0.00    +0.000 HD
ENDROOT
BRANCH   1   3
ATOM      3  C   UNL     1      48.422   4.197  16.581  0.00  0.00    +0.000 C 
BRANCH   3   4
ATOM      4  C   UNL     1      49.218   5.223  17.384  0.00  0.00    +0.000 A 
ATOM      5  C   UNL     1      50.566   5.483  17.175  0.00  0.00    +0.000 A 
ATOM      6  S   UNL     1      51.205   6.675  18.210  0.00  0.00    +0.000 S 
ATOM      7  C   UNL     1      49.711   6.877  18.994  0.00  0.00    +0.000 A 
ATOM      8  N   UNL     1      49.575   7.765  20.013  0.00  0.00    +0.000 NA
ATOM      9  C   UNL     1      48.388   7.814  20.522  0.00  0.00    +0.000 A 
ATOM     10  N   UNL     1      47.325   7.056  20.100  0.00  0.00    +0.000 N 
ATOM     11  C   UNL     1      47.415   6.140  19.073  0.00  0.00    +0.000 A 
ATOM     12  O   UNL     1      46.443   5.471  18.727  0.00  0.00    +0.000 OA
ATOM     13  C   UNL     1      48.731   6.050  18.467  0.00  0.00    +0.000 A 
ATOM     14  H   UNL     1      46.426   7.144  20.543  0.00  0.00    +0.000 HD
ENDBRANCH   3   4
BRANCH   3  15
ATOM     15  C   UNL     1      47.970   2.978  17.462  0.00  0.00    +0.000 C 
BRANCH  15  16
ATOM     16  N   UNL     1      46.520   2.837  17.653  0.00  0.00    +0.000 NA
ATOM     17  H   UNL     1      46.287   2.873  18.642  0.00  0.00    +0.000 HD
ATOM     18  H   UNL     1      46.226   1.927  17.294  0.00  0.00    +0.000 HD
ENDBRANCH  15  16
ENDBRANCH   3  15
ENDBRANCH   1   3
BRANCH   1  19
ATOM     19  C   UNL     1      47.678   5.569  14.692  0.00  0.00    +0.000 C 
BRANCH  19  20
ATOM     20  C   UNL     1      46.729   5.223  13.574  0.00  0.00    +0.000 A 
ATOM     21  C   UNL     1      46.239   3.928  13.385  0.00  0.00    +0.000 A 
ATOM     22  C   UNL     1      45.336   3.670  12.357  0.00  0.00    +0.000 A 
ATOM     23  C   UNL     1      44.924   4.723  11.543  0.00  0.00    +0.000 A 
ATOM     24  N   UNL     1      45.376   5.991  11.711  0.00  0.00    +0.000 NA
ATOM     25  C   UNL     1      46.266   6.206  12.705  0.00  0.00    +0.000 A 
BRANCH  23  26
ATOM     26  C   UNL     1      43.977   4.477  10.384  0.00  0.00    +0.000 C 
BRANCH  26  27
ATOM     27  N   UNL     1      44.643   4.352   9.081  0.00  0.00    +0.000 NA
ATOM     28  H   UNL     1      45.611   4.667   9.209  0.00  0.00    +0.000 HD
BRANCH  27  29
ATOM     29  C   UNL     1      44.720   2.954   8.645  0.00  0.00    +0.000 C 
BRANCH  29  30
ATOM     30  C   UNL     1      45.992   2.770   7.884  0.00  0.00    +0.000 A 
ATOM     31  C   UNL     1      46.726   3.701   7.177  0.00  0.00    +0.000 A 
ATOM     32  N   UNL     1      47.797   3.013   6.678  0.00  0.00    +0.000 N 
ATOM     33  C   UNL     1      47.681   1.715   7.087  0.00  0.00    +0.000 A 
ATOM     34  N   UNL     1      46.603   1.534   7.811  0.00  0.00    +0.000 NA
ATOM     35  H   UNL     1      48.545   3.391   6.115  0.00  0.00    +0.000 HD
ENDBRANCH  29  30
ENDBRANCH  27  29
ENDBRANCH  26  27
ENDBRANCH  23  26
ENDBRANCH  19  20
ENDBRANCH   1  19
TORSDOF 10
ENDMDL
MODEL 5
REMARK VINA RESULT:    -6.957      2.839      3.843
REMARK INTER + INTRA:         -11.656
REMARK INTER:                 -10.723
REMARK INTRA:                  -0.933
REMARK UNBOUND:                -0.835
REMARK  Name = 
REMARK  10 active torsions:
REMARK  status: ('A' for Active; 'I' for Inactive)
REMARK    1  A    between atoms: N_1  and  C_2
REMARK    2  A    between atoms: C_2  and  C_3
REMARK    3  A    between atoms: C_3  and  N_4
REMARK    4  A    between atoms: C_3  and  C_20
REMARK    5  A    between atoms: N_4  and  C_5
REMARK    6  A    between atoms: C_5  and  C_6
REMARK    7  A    between atoms: C_9  and  C_10
REMARK    8  A    between atoms: C_10  and  N_11
REMARK    9  A    between atoms: N_11  and  C_12
REMARK   10  A    between atoms: C_12  and  C_13
REMARK                            x       y       z     vdW  Elec       q    Type
REMARK                         _______ _______ _______ _____ _____    ______ ____
ROOT
ATOM      1  N   UNL     1      48.432   6.016  14.548  0.00  0.00    +0.000 NA
ATOM      2  H   UNL     1      47.946   5.218  14.956  0.00  0.00    +0.000 HD
ENDROOT
BRANCH   1   3
ATOM      3  C   UNL     1      48.939   6.843  15.667  0.00  0.00    +0.000 C 
BRANCH   3   4
ATOM      4  C   UNL     1      48.732   6.025  16.940  0.00  0.00    +0.000 A 
ATOM      5  C   UNL     1      48.926   4.653  17.011  0.00  0.00    +0.000 A 
ATOM      6  S   UNL     1      48.624   3.993  18.551  0.00  0.00    +0.000 S 
ATOM      7  C   UNL     1      48.202   5.514  19.182  0.00  0.00    +0.000 A 
ATOM      8  N   UNL     1      47.823   5.647  20.480  0.00  0.00    +0.000 NA
ATOM      9  C   UNL     1      47.524   6.856  20.826  0.00  0.00    +0.000 A 
ATOM     10  N   UNL     1      47.575   7.943  19.990  0.00  0.00    +0.000 N 
ATOM     11  C   UNL     1      47.951   7.857  18.666  0.00  0.00    +0.000 A 
ATOM     12  O   UNL     1      47.977   8.852  17.944  0.00  0.00    +0.000 OA
ATOM     13  C   UNL     1      48.298   6.517  18.230  0.00  0.00    +0.000 A 
ATOM     14  H   UNL     1      47.328   8.859  20.327  0.00  0.00    +0.000 HD
ENDBRANCH   3   4
BRANCH   3  15
ATOM     15  C   UNL     1      50.431   7.300  15.495  0.00  0.00    +0.000 C 
BRANCH  15  16
ATOM     16  N   UNL     1      50.657   8.377  14.522  0.00  0.00    +0.000 NA
ATOM     17  H   UNL     1      49.769   8.740  14.182  0.00  0.00    +0.000 HD
ATOM     18  H   UNL     1      51.168   8.000  13.722  0.00  0.00    +0.000 HD
ENDBRANCH  15  16
ENDBRANCH   3  15
ENDBRANCH   1   3
BRANCH   1  19
ATOM     19  C   UNL     1      47.500   6.740  13.686  0.00  0.00    +0.000 C 
BRANCH  19  20
ATOM     20  C   UNL     1      46.583   5.811  12.933  0.00  0.00    +0.000 A 
ATOM     21  C   UNL     1      46.154   6.079  11.630  0.00  0.00    +0.000 A 
ATOM     22  C   UNL     1      45.336   5.168  10.968  0.00  0.00    +0.000 A 
ATOM     23  C   UNL     1      44.974   3.991  11.619  0.00  0.00    +0.000 A 
ATOM     24  N   UNL     1      45.385   3.701  12.878  0.00  0.00    +0.000 NA
ATOM     25  C   UNL     1      46.162   4.613  13.503  0.00  0.00    +0.000 A 
BRANCH  23  26
ATOM     26  C   UNL     1      44.047   2.994  10.949  0.00  0.00    +0.000 C 
BRANCH  26  27
ATOM     27  N   UNL     1      44.147   2.972   9.485  0.00  0.00    +0.000 NA
ATOM     28  H   UNL     1      44.688   3.798   9.209  0.00  0.00    +0.000 HD
BRANCH  27  29
ATOM     29  C   UNL     1      44.903   1.808   9.011  0.00  0.00    +0.000 C 
BRANCH  29  30
ATOM     30  C   UNL     1      45.994   2.292   8.113  0.00  0.00    +0.000 A 
ATOM     31  C   UNL     1      46.229   3.566   7.637  0.00  0.00    +0.000 A 
ATOM     32  N   UNL     1      47.351   3.461   6.864  0.00  0.00    +0.000 N 
ATOM     33  C   UNL     1      47.750   2.155   6.890  0.00  0.00    +0.000 A 
ATOM     34  N   UNL     1      46.952   1.424   7.631  0.00  0.00    +0.000 NA
ATOM     35  H   UNL     1      47.809   4.210   6.364  0.00  0.00    +0.000 HD
ENDBRANCH  29  30
ENDBRANCH  27  29
ENDBRANCH  26  27
ENDBRANCH  23  26
ENDBRANCH  19  20
ENDBRANCH   1  19
TORSDOF 10
ENDMDL
MODEL 6
REMARK VINA RESULT:    -6.924      3.406      8.608
REMARK INTER + INTRA:         -11.604
REMARK INTER:                 -10.392
REMARK INTRA:                  -1.211
REMARK UNBOUND:                -0.835
REMARK  Name = 
REMARK  10 active torsions:
REMARK  status: ('A' for Active; 'I' for Inactive)
REMARK    1  A    between atoms: N_1  and  C_2
REMARK    2  A    between atoms: C_2  and  C_3
REMARK    3  A    between atoms: C_3  and  N_4
REMARK    4  A    between atoms: C_3  and  C_20
REMARK    5  A    between atoms: N_4  and  C_5
REMARK    6  A    between atoms: C_5  and  C_6
REMARK    7  A    between atoms: C_9  and  C_10
REMARK    8  A    between atoms: C_10  and  N_11
REMARK    9  A    between atoms: N_11  and  C_12
REMARK   10  A    between atoms: C_12  and  C_13
REMARK                            x       y       z     vdW  Elec       q    Type
REMARK                         _______ _______ _______ _____ _____    ______ ____
ROOT
ATOM      1  N   UNL     1      47.035   6.567  11.341  0.00  0.00    +0.000 NA
ATOM      2  H   UNL     1      47.503   6.271  10.485  0.00  0.00    +0.000 HD
ENDROOT
BRANCH   1   3
ATOM      3  C   UNL     1      45.607   6.782  11.011  0.00  0.00    +0.000 C 
BRANCH   3   4
ATOM      4  C   UNL     1      44.919   5.427  11.156  0.00  0.00    +0.000 A 
ATOM      5  C   UNL     1      44.198   5.049  12.280  0.00  0.00    +0.000 A 
ATOM      6  S   UNL     1      43.534   3.484  12.178  0.00  0.00    +0.000 S 
ATOM      7  C   UNL     1      44.201   3.241  10.634  0.00  0.00    +0.000 A 
ATOM      8  N   UNL     1      44.011   2.069   9.972  0.00  0.00    +0.000 NA
ATOM      9  C   UNL     1      44.577   2.016   8.811  0.00  0.00    +0.000 A 
ATOM     10  N   UNL     1      45.313   3.031   8.253  0.00  0.00    +0.000 N 
ATOM     11  C   UNL     1      45.534   4.236   8.887  0.00  0.00    +0.000 A 
ATOM     12  O   UNL     1      46.206   5.121   8.360  0.00  0.00    +0.000 OA
ATOM     13  C   UNL     1      44.916   4.344  10.196  0.00  0.00    +0.000 A 
ATOM     14  H   UNL     1      45.727   2.922   7.342  0.00  0.00    +0.000 HD
ENDBRANCH   3   4
BRANCH   3  15
ATOM     15  C   UNL     1      44.914   7.893  11.877  0.00  0.00    +0.000 C 
BRANCH  15  16
ATOM     16  N   UNL     1      43.795   8.594  11.233  0.00  0.00    +0.000 NA
ATOM     17  H   UNL     1      44.142   9.296  10.584  0.00  0.00    +0.000 HD
ATOM     18  H   UNL     1      43.247   9.072  11.949  0.00  0.00    +0.000 HD
ENDBRANCH  15  16
ENDBRANCH   3  15
ENDBRANCH   1   3
BRANCH   1  19
ATOM     19  C   UNL     1      47.690   7.775  11.838  0.00  0.00    +0.000 C 
BRANCH  19  20
ATOM     20  C   UNL     1      48.492   7.514  13.087  0.00  0.00    +0.000 A 
ATOM     21  C   UNL     1      49.662   8.218  13.383  0.00  0.00    +0.000 A 
ATOM     22  C   UNL     1      50.345   7.961  14.569  0.00  0.00    +0.000 A 
ATOM     23  C   UNL     1      49.833   7.011  15.449  0.00  0.00    +0.000 A 
ATOM     24  N   UNL     1      48.694   6.321  15.190  0.00  0.00    +0.000 NA
ATOM     25  C   UNL     1      48.064   6.578  14.023  0.00  0.00    +0.000 A 
BRANCH  23  26
ATOM     26  C   UNL     1      50.570   6.669  16.729  0.00  0.00    +0.000 C 
BRANCH  26  27
ATOM     27  N   UNL     1      51.104   5.302  16.767  0.00  0.00    +0.000 NA
ATOM     28  H   UNL     1      52.126   5.379  16.728  0.00  0.00    +0.000 HD
BRANCH  27  29
ATOM     29  C   UNL     1      50.791   4.634  18.034  0.00  0.00    +0.000 C 
BRANCH  29  30
ATOM     30  C   UNL     1      49.474   3.944  17.888  0.00  0.00    +0.000 A 
ATOM     31  C   UNL     1      48.477   3.766  18.826  0.00  0.00    +0.000 A 
ATOM     32  N   UNL     1      47.490   3.077  18.177  0.00  0.00    +0.000 N 
ATOM     33  C   UNL     1      47.912   2.861  16.895  0.00  0.00    +0.000 A 
ATOM     34  N   UNL     1      49.104   3.368  16.690  0.00  0.00    +0.000 NA
ATOM     35  H   UNL     1      46.606   2.783  18.565  0.00  0.00    +0.000 HD
ENDBRANCH  29  30
ENDBRANCH  27  29
ENDBRANCH  26  27
ENDBRANCH  23  26
ENDBRANCH  19  20
ENDBRANCH   1  19
TORSDOF 10
ENDMDL
MODEL 7
REMARK VINA RESULT:    -6.818      2.186      3.069
REMARK INTER + INTRA:         -11.438
REMARK INTER:                 -10.691
REMARK INTRA:                  -0.748
REMARK UNBOUND:                -0.835
REMARK  Name = 
REMARK  10 active torsions:
REMARK  status: ('A' for Active; 'I' for Inactive)
REMARK    1  A    between atoms: N_1  and  C_2
REMARK    2  A    between atoms: C_2  and  C_3
REMARK    3  A    between atoms: C_3  and  N_4
REMARK    4  A    between atoms: C_3  and  C_20
REMARK    5  A    between atoms: N_4  and  C_5
REMARK    6  A    between atoms: C_5  and  C_6
REMARK    7  A    between atoms: C_9  and  C_10
REMARK    8  A    between atoms: C_10  and  N_11
REMARK    9  A    between atoms: N_11  and  C_12
REMARK   10  A    between atoms: C_12  and  C_13
REMARK                            x       y       z     vdW  Elec       q    Type
REMARK                         _______ _______ _______ _____ _____    ______ ____
ROOT
ATOM      1  N   UNL     1      48.690   6.441  15.047  0.00  0.00    +0.000 NA
ATOM      2  H   UNL     1      47.913   6.119  15.624  0.00  0.00    +0.000 HD
ENDROOT
BRANCH   1   3
ATOM      3  C   UNL     1      49.517   7.340  15.885  0.00  0.00    +0.000 C 
BRANCH   3   4
ATOM      4  C   UNL     1      48.974   7.230  17.307  0.00  0.00    +0.000 A 
ATOM      5  C   UNL     1      48.420   8.297  18.002  0.00  0.00    +0.000 A 
ATOM      6  S   UNL     1      47.892   7.898  19.571  0.00  0.00    +0.000 S 
ATOM      7  C   UNL     1      48.400   6.286  19.393  0.00  0.00    +0.000 A 
ATOM      8  N   UNL     1      48.242   5.392  20.404  0.00  0.00    +0.000 NA
ATOM      9  C   UNL     1      48.677   4.205  20.137  0.00  0.00    +0.000 A 
ATOM     10  N   UNL     1      49.251   3.832  18.948  0.00  0.00    +0.000 N 
ATOM     11  C   UNL     1      49.434   4.703  17.895  0.00  0.00    +0.000 A 
ATOM     12  O   UNL     1      49.960   4.335  16.846  0.00  0.00    +0.000 OA
ATOM     13  C   UNL     1      48.960   6.052  18.147  0.00  0.00    +0.000 A 
ATOM     14  H   UNL     1      49.568   2.887  18.807  0.00  0.00    +0.000 HD
ENDBRANCH   3   4
BRANCH   3  15
ATOM     15  C   UNL     1      51.056   7.037  15.815  0.00  0.00    +0.000 C 
BRANCH  15  16
ATOM     16  N   UNL     1      51.758   7.581  14.645  0.00  0.00    +0.000 NA
ATOM     17  H   UNL     1      51.588   7.000  13.827  0.00  0.00    +0.000 HD
ATOM     18  H   UNL     1      52.762   7.578  14.829  0.00  0.00    +0.000 HD
ENDBRANCH  15  16
ENDBRANCH   3  15
ENDBRANCH   1   3
BRANCH   1  19
ATOM     19  C   UNL     1      48.149   7.108  13.864  0.00  0.00    +0.000 C 
BRANCH  19  20
ATOM     20  C   UNL     1      47.155   6.245  13.131  0.00  0.00    +0.000 A 
ATOM     21  C   UNL     1      46.590   6.630  11.912  0.00  0.00    +0.000 A 
ATOM     22  C   UNL     1      45.703   5.777  11.259  0.00  0.00    +0.000 A 
ATOM     23  C   UNL     1      45.410   4.542  11.833  0.00  0.00    +0.000 A 
ATOM     24  N   UNL     1      45.953   4.141  13.009  0.00  0.00    +0.000 NA
ATOM     25  C   UNL     1      46.795   4.997  13.629  0.00  0.00    +0.000 A 
BRANCH  23  26
ATOM     26  C   UNL     1      44.415   3.604  11.177  0.00  0.00    +0.000 C 
BRANCH  26  27
ATOM     27  N   UNL     1      45.031   2.469  10.479  0.00  0.00    +0.000 NA
ATOM     28  H   UNL     1      44.688   1.616  10.934  0.00  0.00    +0.000 HD
BRANCH  27  29
ATOM     29  C   UNL     1      44.595   2.392   9.081  0.00  0.00    +0.000 C 
BRANCH  29  30
ATOM     30  C   UNL     1      45.790   2.582   8.205  0.00  0.00    +0.000 A 
ATOM     31  C   UNL     1      46.272   3.740   7.630  0.00  0.00    +0.000 A 
ATOM     32  N   UNL     1      47.386   3.361   6.934  0.00  0.00    +0.000 N 
ATOM     33  C   UNL     1      47.540   2.015   7.103  0.00  0.00    +0.000 A 
ATOM     34  N   UNL     1      46.594   1.514   7.860  0.00  0.00    +0.000 NA
ATOM     35  H   UNL     1      47.992   3.963   6.395  0.00  0.00    +0.000 HD
ENDBRANCH  29  30
ENDBRANCH  27  29
ENDBRANCH  26  27
ENDBRANCH  23  26
ENDBRANCH  19  20
ENDBRANCH   1  19
TORSDOF 10
ENDMDL
MODEL 8
REMARK VINA RESULT:    -6.618      3.461      8.998
REMARK INTER + INTRA:         -11.128
REMARK INTER:                 -10.040
REMARK INTRA:                  -1.088
REMARK UNBOUND:                -0.835
REMARK  Name = 
REMARK  10 active torsions:
REMARK  status: ('A' for Active; 'I' for Inactive)
REMARK    1  A    between atoms: N_1  and  C_2
REMARK    2  A    between atoms: C_2  and  C_3
REMARK    3  A    between atoms: C_3  and  N_4
REMARK    4  A    between atoms: C_3  and  C_20
REMARK    5  A    between atoms: N_4  and  C_5
REMARK    6  A    between atoms: C_5  and  C_6
REMARK    7  A    between atoms: C_9  and  C_10
REMARK    8  A    between atoms: C_10  and  N_11
REMARK    9  A    between atoms: N_11  and  C_12
REMARK   10  A    between atoms: C_12  and  C_13
REMARK                            x       y       z     vdW  Elec       q    Type
REMARK                         _______ _______ _______ _____ _____    ______ ____
ROOT
ATOM      1  N   UNL     1      46.973   6.490  11.683  0.00  0.00    +0.000 NA
ATOM      2  H   UNL     1      47.645   6.842  11.002  0.00  0.00    +0.000 HD
ENDROOT
BRANCH   1   3
ATOM      3  C   UNL     1      45.620   6.696  11.116  0.00  0.00    +0.000 C 
BRANCH   3   4
ATOM      4  C   UNL     1      44.920   5.340  11.160  0.00  0.00    +0.000 A 
ATOM      5  C   UNL     1      44.171   4.897  12.242  0.00  0.00    +0.000 A 
ATOM      6  S   UNL     1      43.499   3.348  12.027  0.00  0.00    +0.000 S 
ATOM      7  C   UNL     1      44.198   3.197  10.485  0.00  0.00    +0.000 A 
ATOM      8  N   UNL     1      44.014   2.071   9.746  0.00  0.00    +0.000 NA
ATOM      9  C   UNL     1      44.606   2.087   8.597  0.00  0.00    +0.000 A 
ATOM     10  N   UNL     1      45.360   3.129   8.120  0.00  0.00    +0.000 N 
ATOM     11  C   UNL     1      45.576   4.289   8.834  0.00  0.00    +0.000 A 
ATOM     12  O   UNL     1      46.265   5.200   8.378  0.00  0.00    +0.000 OA
ATOM     13  C   UNL     1      44.931   4.320  10.134  0.00  0.00    +0.000 A 
ATOM     14  H   UNL     1      45.794   3.074   7.214  0.00  0.00    +0.000 HD
ENDBRANCH   3   4
BRANCH   3  15
ATOM     15  C   UNL     1      44.790   7.814  11.840  0.00  0.00    +0.000 C 
BRANCH  15  16
ATOM     16  N   UNL     1      43.605   8.293  11.117  0.00  0.00    +0.000 NA
ATOM     17  H   UNL     1      43.446   9.280  11.310  0.00  0.00    +0.000 HD
ATOM     18  H   UNL     1      42.787   7.774  11.440  0.00  0.00    +0.000 HD
ENDBRANCH  15  16
ENDBRANCH   3  15
ENDBRANCH   1   3
BRANCH   1  19
ATOM     19  C   UNL     1      47.172   7.197  12.946  0.00  0.00    +0.000 C 
BRANCH  19  20
ATOM     20  C   UNL     1      47.547   6.264  14.068  0.00  0.00    +0.000 A 
ATOM     21  C   UNL     1      48.400   6.649  15.105  0.00  0.00    +0.000 A 
ATOM     22  C   UNL     1      48.685   5.758  16.137  0.00  0.00    +0.000 A 
ATOM     23  C   UNL     1      48.095   4.496  16.118  0.00  0.00    +0.000 A 
ATOM     24  N   UNL     1      47.256   4.101  15.129  0.00  0.00    +0.000 NA
ATOM     25  C   UNL     1      47.014   4.981  14.132  0.00  0.00    +0.000 A 
BRANCH  23  26
ATOM     26  C   UNL     1      48.415   3.480  17.198  0.00  0.00    +0.000 C 
BRANCH  26  27
ATOM     27  N   UNL     1      47.718   3.715  18.469  0.00  0.00    +0.000 NA
ATOM     28  H   UNL     1      47.318   2.818  18.761  0.00  0.00    +0.000 HD
BRANCH  27  29
ATOM     29  C   UNL     1      48.648   4.116  19.529  0.00  0.00    +0.000 C 
BRANCH  29  30
ATOM     30  C   UNL     1      48.613   5.605  19.646  0.00  0.00    +0.000 A 
ATOM     31  C   UNL     1      49.662   6.492  19.779  0.00  0.00    +0.000 A 
ATOM     32  N   UNL     1      49.084   7.729  19.839  0.00  0.00    +0.000 N 
ATOM     33  C   UNL     1      47.732   7.557  19.747  0.00  0.00    +0.000 A 
ATOM     34  N   UNL     1      47.415   6.290  19.633  0.00  0.00    +0.000 NA
ATOM     35  H   UNL     1      49.563   8.613  19.930  0.00  0.00    +0.000 HD
ENDBRANCH  29  30
ENDBRANCH  27  29
ENDBRANCH  26  27
ENDBRANCH  23  26
ENDBRANCH  19  20
ENDBRANCH   1  19
TORSDOF 10
ENDMDL
MODEL 9
REMARK VINA RESULT:    -6.607      2.089      2.739
REMARK INTER + INTRA:         -11.112
REMARK INTER:                 -10.166
REMARK INTRA:                  -0.945
REMARK UNBOUND:                -0.835
REMARK  Name = 
REMARK  10 active torsions:
REMARK  status: ('A' for Active; 'I' for Inactive)
REMARK    1  A    between atoms: N_1  and  C_2
REMARK    2  A    between atoms: C_2  and  C_3
REMARK    3  A    between atoms: C_3  and  N_4
REMARK    4  A    between atoms: C_3  and  C_20
REMARK    5  A    between atoms: N_4  and  C_5
REMARK    6  A    between atoms: C_5  and  C_6
REMARK    7  A    between atoms: C_9  and  C_10
REMARK    8  A    between atoms: C_10  and  N_11
REMARK    9  A    between atoms: N_11  and  C_12
REMARK   10  A    between atoms: C_12  and  C_13
REMARK                            x       y       z     vdW  Elec       q    Type
REMARK                         _______ _______ _______ _____ _____    ______ ____
ROOT
ATOM      1  N   UNL     1      47.188   5.106  16.048  0.00  0.00    +0.000 NA
ATOM      2  H   UNL     1      47.822   5.860  15.786  0.00  0.00    +0.000 HD
ENDROOT
BRANCH   1   3
ATOM      3  C   UNL     1      47.553   4.678  17.418  0.00  0.00    +0.000 C 
BRANCH   3   4
ATOM      4  C   UNL     1      49.074   4.550  17.442  0.00  0.00    +0.000 A 
ATOM      5  C   UNL     1      49.743   3.420  17.891  0.00  0.00    +0.000 A 
ATOM      6  S   UNL     1      51.439   3.544  17.809  0.00  0.00    +0.000 S 
ATOM      7  C   UNL     1      51.349   5.123  17.187  0.00  0.00    +0.000 A 
ATOM      8  N   UNL     1      52.479   5.822  16.900  0.00  0.00    +0.000 NA
ATOM      9  C   UNL     1      52.266   7.011  16.439  0.00  0.00    +0.000 A 
ATOM     10  N   UNL     1      51.025   7.561  16.238  0.00  0.00    +0.000 N 
ATOM     11  C   UNL     1      49.852   6.892  16.517  0.00  0.00    +0.000 A 
ATOM     12  O   UNL     1      48.757   7.420  16.331  0.00  0.00    +0.000 OA
ATOM     13  C   UNL     1      50.039   5.550  17.036  0.00  0.00    +0.000 A 
ATOM     14  H   UNL     1      50.933   8.495  15.876  0.00  0.00    +0.000 HD
ENDBRANCH   3   4
BRANCH   3  15
ATOM     15  C   UNL     1      47.022   5.632  18.546  0.00  0.00    +0.000 C 
BRANCH  15  16
ATOM     16  N   UNL     1      47.396   5.264  19.918  0.00  0.00    +0.000 NA
ATOM     17  H   UNL     1      48.287   5.687  20.168  0.00  0.00    +0.000 HD
ATOM     18  H   UNL     1      47.504   4.250  19.971  0.00  0.00    +0.000 HD
ENDBRANCH  15  16
ENDBRANCH   3  15
ENDBRANCH   1   3
BRANCH   1  19
ATOM     19  C   UNL     1      47.309   4.030  15.067  0.00  0.00    +0.000 C 
BRANCH  19  20
ATOM     20  C   UNL     1      46.468   4.280  13.842  0.00  0.00    +0.000 A 
ATOM     21  C   UNL     1      46.166   5.569  13.394  0.00  0.00    +0.000 A 
ATOM     22  C   UNL     1      45.414   5.743  12.235  0.00  0.00    +0.000 A 
ATOM     23  C   UNL     1      44.990   4.617  11.533  0.00  0.00    +0.000 A 
ATOM     24  N   UNL     1      45.278   3.356  11.939  0.00  0.00    +0.000 NA
ATOM     25  C   UNL     1      45.993   3.218  13.078  0.00  0.00    +0.000 A 
BRANCH  23  26
ATOM     26  C   UNL     1      44.131   4.762  10.291  0.00  0.00    +0.000 C 
BRANCH  26  27
ATOM     27  N   UNL     1      44.262   3.653   9.338  0.00  0.00    +0.000 NA
ATOM     28  H   UNL     1      43.327   3.474   8.957  0.00  0.00    +0.000 HD
BRANCH  27  29
ATOM     29  C   UNL     1      45.108   4.017   8.198  0.00  0.00    +0.000 C 
BRANCH  29  30
ATOM     30  C   UNL     1      45.954   2.837   7.845  0.00  0.00    +0.000 A 
ATOM     31  C   UNL     1      45.966   1.576   8.407  0.00  0.00    +0.000 A 
ATOM     32  N   UNL     1      46.919   0.882   7.715  0.00  0.00    +0.000 N 
ATOM     33  C   UNL     1      47.445   1.724   6.778  0.00  0.00    +0.000 A 
ATOM     34  N   UNL     1      46.888   2.910   6.832  0.00  0.00    +0.000 NA
ATOM     35  H   UNL     1      47.186  -0.081   7.861  0.00  0.00    +0.000 HD
ENDBRANCH  29  30
ENDBRANCH  27  29
ENDBRANCH  26  27
ENDBRANCH  23  26
ENDBRANCH  19  20
ENDBRANCH   1  19
TORSDOF 10
ENDMDL
