MODEL 1
REMARK VINA RESULT:    -6.117      0.000      0.000
REMARK INTER + INTRA:          -8.115
REMARK INTER:                  -7.726
REMARK INTRA:                  -0.389
REMARK UNBOUND:                -0.389
REMARK  Name = 
REMARK  5 active torsions:
REMARK  status: ('A' for Active; 'I' for Inactive)
REMARK    1  A    between atoms: N_1  and  C_2
REMARK    2  A    between atoms: C_2  and  C_3
REMARK    3  A    between atoms: C_6  and  C_7
REMARK    4  A    between atoms: C_8  and  C_9
REMARK    5  A    between atoms: C_12  and  C_13
REMARK                            x       y       z     vdW  Elec       q    Type
REMARK                         _______ _______ _______ _____ _____    ______ ____
ROOT
ATOM      1  C   UNL     1      47.262   4.180  14.673  0.00  0.00    +0.000 C 
ATOM      2  C   UNL     1      46.178   4.748  14.117  0.00  0.00    +0.000 C 
ENDROOT
BRANCH   1   6
ATOM      3  C   UNL     1      48.570   4.776  18.720  0.00  0.00    +0.000 A 
ATOM      4  C   UNL     1      48.003   3.553  18.337  0.00  0.00    +0.000 A 
ATOM      5  C   UNL     1      47.571   3.345  17.025  0.00  0.00    +0.000 A 
ATOM      6  C   UNL     1      47.680   4.362  16.070  0.00  0.00    +0.000 A 
ATOM      7  C   UNL     1      48.266   5.577  16.446  0.00  0.00    +0.000 A 
ATOM      8  C   UNL     1      48.703   5.785  17.759  0.00  0.00    +0.000 A 
BRANCH   3   9
ATOM      9  C   UNL     1      49.002   5.006  20.146  0.00  0.00    +0.000 C 
BRANCH   9  10
ATOM     10  N   UNL     1      48.475   3.983  21.043  0.00  0.00    +0.000 NA
ATOM     11  H   UNL     1      48.950   4.051  21.940  0.00  0.00    +0.000 HD
ATOM     12  H   UNL     1      48.704   3.066  20.663  0.00  0.00    +0.000 HD
ENDBRANCH   9  10
ENDBRANCH   3   9
ENDBRANCH   1   6
BRANCH   2  13
ATOM     13  C   UNL     1      45.784   4.539  12.718  0.00  0.00    +0.000 A 
ATOM     14  C   UNL     1      45.887   5.576  11.796  0.00  0.00    +0.000 A 
ATOM     15  C   UNL     1      45.507   5.342  10.474  0.00  0.00    +0.000 A 
ATOM     16  C   UNL     1      45.034   4.082  10.103  0.00  0.00    +0.000 A 
ATOM     17  C   UNL     1      44.959   3.112  11.089  0.00  0.00    +0.000 A 
ATOM     18  N   UNL     1      45.322   3.313  12.376  0.00  0.00    +0.000 NA
BRANCH  16  19
ATOM     19  C   UNL     1      44.620   3.743   8.705  0.00  0.00    +0.000 C 
ATOM     20  F   UNL     1      43.610   4.525   8.234  0.00  0.00    +0.000 F 
ATOM     21  F   UNL     1      45.641   3.875   7.814  0.00  0.00    +0.000 F 
ATOM     22  F   UNL     1      44.185   2.459   8.586  0.00  0.00    +0.000 F 
ENDBRANCH  16  19
ENDBRANCH   2  13
TORSDOF 5
ENDMDL
MODEL 2
REMARK VINA RESULT:    -5.951      5.277      8.903
REMARK INTER + INTRA:          -7.906
REMARK INTER:                  -7.531
REMARK INTRA:                  -0.375
REMARK UNBOUND:                -0.389
REMARK  Name = 
REMARK  5 active torsions:
REMARK  status: ('A' for Active; 'I' for Inactive)
REMARK    1  A    between atoms: N_1  and  C_2
REMARK    2  A    between atoms: C_2  and  C_3
REMARK    3  A    between atoms: C_6  and  C_7
REMARK    4  A    between atoms: C_8  and  C_9
REMARK    5  A    between atoms: C_12  and  C_13
REMARK                            x       y       z     vdW  Elec       q    Type
REMARK                         _______ _______ _______ _____ _____    ______ ____
ROOT
ATOM      1  C   UNL     1      46.079   4.809  13.904  0.00  0.00    +0.000 C 
ATOM      2  C   UNL     1      47.129   4.240  14.521  0.00  0.00    +0.000 C 
ENDROOT
BRANCH   1   6
ATOM      3  C   UNL     1      44.932   4.209   9.809  0.00  0.00    +0.000 A 
ATOM      4  C   UNL     1      44.735   3.190  10.751  0.00  0.00    +0.000 A 
ATOM      5  C   UNL     1      45.105   3.369  12.086  0.00  0.00    +0.000 A 
ATOM      6  C   UNL     1      45.696   4.567  12.507  0.00  0.00    +0.000 A 
ATOM      7  C   UNL     1      45.872   5.593  11.571  0.00  0.00    +0.000 A 
ATOM      8  C   UNL     1      45.499   5.416  10.235  0.00  0.00    +0.000 A 
BRANCH   3   9
ATOM      9  C   UNL     1      44.562   3.995   8.363  0.00  0.00    +0.000 C 
BRANCH   9  10
ATOM     10  N   UNL     1      45.735   4.006   7.497  0.00  0.00    +0.000 NA
ATOM     11  H   UNL     1      45.912   4.960   7.190  0.00  0.00    +0.000 HD
ATOM     12  H   UNL     1      45.526   3.466   6.658  0.00  0.00    +0.000 HD
ENDBRANCH   9  10
ENDBRANCH   3   9
ENDBRANCH   1   6
BRANCH   2  13
ATOM     13  C   UNL     1      47.479   4.499  15.924  0.00  0.00    +0.000 A 
ATOM     14  C   UNL     1      48.324   5.554  16.254  0.00  0.00    +0.000 A 
ATOM     15  C   UNL     1      48.634   5.774  17.596  0.00  0.00    +0.000 A 
ATOM     16  C   UNL     1      48.095   4.938  18.577  0.00  0.00    +0.000 A 
ATOM     17  C   UNL     1      47.270   3.908  18.155  0.00  0.00    +0.000 A 
ATOM     18  N   UNL     1      46.953   3.676  16.861  0.00  0.00    +0.000 NA
BRANCH  16  19
ATOM     19  C   UNL     1      48.364   5.113  20.038  0.00  0.00    +0.000 C 
ATOM     20  F   UNL     1      48.551   3.937  20.700  0.00  0.00    +0.000 F 
ATOM     21  F   UNL     1      49.479   5.856  20.276  0.00  0.00    +0.000 F 
ATOM     22  F   UNL     1      47.348   5.747  20.685  0.00  0.00    +0.000 F 
ENDBRANCH  16  19
ENDBRANCH   2  13
TORSDOF 5
ENDMDL
MODEL 3
REMARK VINA RESULT:    -5.522      5.494      9.083
REMARK INTER + INTRA:          -7.364
REMARK INTER:                  -6.957
REMARK INTRA:                  -0.407
REMARK UNBOUND:                -0.389
REMARK  Name = 
REMARK  5 active torsions:
REMARK  status: ('A' for Active; 'I' for Inactive)
REMARK    1  A    between atoms: N_1  and  C_2
REMARK    2  A    between atoms: C_2  and  C_3
REMARK    3  A    between atoms: C_6  and  C_7
REMARK    4  A    between atoms: C_8  and  C_9
REMARK    5  A    between atoms: C_12  and  C_13
REMARK                            x       y       z     vdW  Elec       q    Type
REMARK                         _______ _______ _______ _____ _____    ______ ____
ROOT
ATOM      1  C   UNL     1      47.126   5.233  14.163  0.00  0.00    +0.000 C 
ATOM      2  C   UNL     1      47.142   4.386  15.206  0.00  0.00    +0.000 C 
ENDROOT
BRANCH   1   6
ATOM      3  C   UNL     1      44.937   4.500  10.540  0.00  0.00    +0.000 A 
ATOM      4  C   UNL     1      45.642   5.700  10.706  0.00  0.00    +0.000 A 
ATOM      5  C   UNL     1      46.357   5.954  11.880  0.00  0.00    +0.000 A 
ATOM      6  C   UNL     1      46.369   5.019  12.921  0.00  0.00    +0.000 A 
ATOM      7  C   UNL     1      45.683   3.811  12.748  0.00  0.00    +0.000 A 
ATOM      8  C   UNL     1      44.971   3.555  11.572  0.00  0.00    +0.000 A 
BRANCH   3   9
ATOM      9  C   UNL     1      44.140   4.249   9.286  0.00  0.00    +0.000 C 
BRANCH   9  10
ATOM     10  N   UNL     1      44.145   2.839   8.915  0.00  0.00    +0.000 NA
ATOM     11  H   UNL     1      44.717   2.716   8.083  0.00  0.00    +0.000 HD
ATOM     12  H   UNL     1      43.197   2.566   8.656  0.00  0.00    +0.000 HD
ENDBRANCH   9  10
ENDBRANCH   3   9
ENDBRANCH   1   6
BRANCH   2  13
ATOM     13  C   UNL     1      47.906   4.633  16.436  0.00  0.00    +0.000 A 
ATOM     14  C   UNL     1      47.372   4.294  17.675  0.00  0.00    +0.000 A 
ATOM     15  C   UNL     1      48.126   4.540  18.823  0.00  0.00    +0.000 A 
ATOM     16  C   UNL     1      49.392   5.117  18.709  0.00  0.00    +0.000 A 
ATOM     17  C   UNL     1      49.839   5.428  17.435  0.00  0.00    +0.000 A 
ATOM     18  N   UNL     1      49.130   5.199  16.308  0.00  0.00    +0.000 NA
BRANCH  16  19
ATOM     19  C   UNL     1      50.270   5.401  19.887  0.00  0.00    +0.000 C 
ATOM     20  F   UNL     1      50.171   6.680  20.343  0.00  0.00    +0.000 F 
ATOM     21  F   UNL     1      49.986   4.602  20.952  0.00  0.00    +0.000 F 
ATOM     22  F   UNL     1      51.590   5.204  19.614  0.00  0.00    +0.000 F 
ENDBRANCH  16  19
ENDBRANCH   2  13
TORSDOF 5
ENDMDL
MODEL 4
REMARK VINA RESULT:    -5.021      5.421      6.565
REMARK INTER + INTRA:          -6.730
REMARK INTER:                  -6.313
REMARK INTRA:                  -0.418
REMARK UNBOUND:                -0.389
REMARK  Name = 
REMARK  5 active torsions:
REMARK  status: ('A' for Active; 'I' for Inactive)
REMARK    1  A    between atoms: N_1  and  C_2
REMARK    2  A    between atoms: C_2  and  C_3
REMARK    3  A    between atoms: C_6  and  C_7
REMARK    4  A    between atoms: C_8  and  C_9
REMARK    5  A    between atoms: C_12  and  C_13
REMARK                            x       y       z     vdW  Elec       q    Type
REMARK                         _______ _______ _______ _____ _____    ______ ____
ROOT
ATOM      1  C   UNL     1      48.847   7.716  11.444  0.00  0.00    +0.000 C 
ATOM      2  C   UNL     1      48.409   6.920  12.434  0.00  0.00    +0.000 C 
ENDROOT
BRANCH   1   6
ATOM      3  C   UNL     1      52.555   9.884  11.427  0.00  0.00    +0.000 A 
ATOM      4  C   UNL     1      52.514   8.558  10.976  0.00  0.00    +0.000 A 
ATOM      5  C   UNL     1      51.316   7.838  10.978  0.00  0.00    +0.000 A 
ATOM      6  C   UNL     1      50.134   8.425  11.446  0.00  0.00    +0.000 A 
ATOM      7  C   UNL     1      50.171   9.757  11.876  0.00  0.00    +0.000 A 
ATOM      8  C   UNL     1      51.369  10.479  11.871  0.00  0.00    +0.000 A 
BRANCH   3   9
ATOM      9  C   UNL     1      53.858  10.641  11.455  0.00  0.00    +0.000 C 
BRANCH   9  10
ATOM     10  N   UNL     1      54.039  11.362  12.709  0.00  0.00    +0.000 NA
ATOM     11  H   UNL     1      53.227  11.952  12.874  0.00  0.00    +0.000 HD
ATOM     12  H   UNL     1      54.837  11.989  12.614  0.00  0.00    +0.000 HD
ENDBRANCH   9  10
ENDBRANCH   3   9
ENDBRANCH   1   6
BRANCH   2  13
ATOM     13  C   UNL     1      47.118   6.220  12.397  0.00  0.00    +0.000 A 
ATOM     14  C   UNL     1      46.330   6.260  11.251  0.00  0.00    +0.000 A 
ATOM     15  C   UNL     1      45.111   5.581  11.249  0.00  0.00    +0.000 A 
ATOM     16  C   UNL     1      44.708   4.878  12.387  0.00  0.00    +0.000 A 
ATOM     17  C   UNL     1      45.554   4.900  13.483  0.00  0.00    +0.000 A 
ATOM     18  N   UNL     1      46.740   5.548  13.510  0.00  0.00    +0.000 NA
BRANCH  16  19
ATOM     19  C   UNL     1      43.425   4.113  12.463  0.00  0.00    +0.000 C 
ATOM     20  F   UNL     1      43.602   2.770  12.605  0.00  0.00    +0.000 F 
ATOM     21  F   UNL     1      42.649   4.499  13.512  0.00  0.00    +0.000 F 
ATOM     22  F   UNL     1      42.655   4.272  11.351  0.00  0.00    +0.000 F 
ENDBRANCH  16  19
ENDBRANCH   2  13
TORSDOF 5
ENDMDL
MODEL 5
REMARK VINA RESULT:    -4.752      2.659      3.297
REMARK INTER + INTRA:          -6.391
REMARK INTER:                  -5.994
REMARK INTRA:                  -0.397
REMARK UNBOUND:                -0.389
REMARK  Name = 
REMARK  5 active torsions:
REMARK  status: ('A' for Active; 'I' for Inactive)
REMARK    1  A    between atoms: N_1  and  C_2
REMARK    2  A    between atoms: C_2  and  C_3
REMARK    3  A    between atoms: C_6  and  C_7
REMARK    4  A    between atoms: C_8  and  C_9
REMARK    5  A    between atoms: C_12  and  C_13
REMARK                            x       y       z     vdW  Elec       q    Type
REMARK                         _______ _______ _______ _____ _____    ______ ____
ROOT
ATOM      1  C   UNL     1      47.763   6.651  13.428  0.00  0.00    +0.000 C 
ATOM      2  C   UNL     1      46.485   6.277  13.248  0.00  0.00    +0.000 C 
ENDROOT
BRANCH   1   6
ATOM      3  C   UNL     1      49.132   9.045  16.722  0.00  0.00    +0.000 A 
ATOM      4  C   UNL     1      48.549   9.655  15.603  0.00  0.00    +0.000 A 
ATOM      5  C   UNL     1      48.101   8.890  14.522  0.00  0.00    +0.000 A 
ATOM      6  C   UNL     1      48.241   7.498  14.530  0.00  0.00    +0.000 A 
ATOM      7  C   UNL     1      48.804   6.886  15.657  0.00  0.00    +0.000 A 
ATOM      8  C   UNL     1      49.249   7.650  16.740  0.00  0.00    +0.000 A 
BRANCH   3   9
ATOM      9  C   UNL     1      49.645   9.879  17.868  0.00  0.00    +0.000 C 
BRANCH   9  10
ATOM     10  N   UNL     1      50.834   9.294  18.475  0.00  0.00    +0.000 NA
ATOM     11  H   UNL     1      50.553   8.533  19.089  0.00  0.00    +0.000 HD
ATOM     12  H   UNL     1      51.277   9.995  19.067  0.00  0.00    +0.000 HD
ENDBRANCH   9  10
ENDBRANCH   3   9
ENDBRANCH   1   6
BRANCH   2  13
ATOM     13  C   UNL     1      46.042   5.423  12.138  0.00  0.00    +0.000 A 
ATOM     14  C   UNL     1      46.003   5.923  10.840  0.00  0.00    +0.000 A 
ATOM     15  C   UNL     1      45.580   5.083   9.809  0.00  0.00    +0.000 A 
ATOM     16  C   UNL     1      45.207   3.769  10.095  0.00  0.00    +0.000 A 
ATOM     17  C   UNL     1      45.271   3.361  11.417  0.00  0.00    +0.000 A 
ATOM     18  N   UNL     1      45.678   4.153  12.434  0.00  0.00    +0.000 NA
BRANCH  16  19
ATOM     19  C   UNL     1      44.756   2.800   9.047  0.00  0.00    +0.000 C 
ATOM     20  F   UNL     1      44.176   3.397   7.970  0.00  0.00    +0.000 F 
ATOM     21  F   UNL     1      45.781   2.054   8.553  0.00  0.00    +0.000 F 
ATOM     22  F   UNL     1      43.840   1.910   9.518  0.00  0.00    +0.000 F 
ENDBRANCH  16  19
ENDBRANCH   2  13
TORSDOF 5
ENDMDL
MODEL 6
REMARK VINA RESULT:    -4.730      3.675      4.279
REMARK INTER + INTRA:          -6.363
REMARK INTER:                  -5.941
REMARK INTRA:                  -0.422
REMARK UNBOUND:                -0.389
REMARK  Name = 
REMARK  5 active torsions:
REMARK  status: ('A' for Active; 'I' for Inactive)
REMARK    1  A    between atoms: N_1  and  C_2
REMARK    2  A    between atoms: C_2  and  C_3
REMARK    3  A    between atoms: C_6  and  C_7
REMARK    4  A    between atoms: C_8  and  C_9
REMARK    5  A    between atoms: C_12  and  C_13
REMARK                            x       y       z     vdW  Elec       q    Type
REMARK                         _______ _______ _______ _____ _____    ______ ____
ROOT
ATOM      1  C   UNL     1      48.917   6.980  13.501  0.00  0.00    +0.000 C 
ATOM      2  C   UNL     1      47.878   6.247  13.936  0.00  0.00    +0.000 C 
ENDROOT
BRANCH   1   6
ATOM      3  C   UNL     1      52.001   8.708  15.941  0.00  0.00    +0.000 A 
ATOM      4  C   UNL     1      51.251   7.625  16.418  0.00  0.00    +0.000 A 
ATOM      5  C   UNL     1      50.243   7.053  15.637  0.00  0.00    +0.000 A 
ATOM      6  C   UNL     1      49.951   7.564  14.367  0.00  0.00    +0.000 A 
ATOM      7  C   UNL     1      50.715   8.632  13.881  0.00  0.00    +0.000 A 
ATOM      8  C   UNL     1      51.726   9.203  14.660  0.00  0.00    +0.000 A 
BRANCH   3   9
ATOM      9  C   UNL     1      53.063   9.342  16.803  0.00  0.00    +0.000 C 
BRANCH   9  10
ATOM     10  N   UNL     1      54.058  10.049  16.006  0.00  0.00    +0.000 NA
ATOM     11  H   UNL     1      53.598  10.484  15.209  0.00  0.00    +0.000 HD
ATOM     12  H   UNL     1      54.714   9.368  15.624  0.00  0.00    +0.000 HD
ENDBRANCH   9  10
ENDBRANCH   3   9
ENDBRANCH   1   6
BRANCH   2  13
ATOM     13  C   UNL     1      46.865   5.672  13.041  0.00  0.00    +0.000 A 
ATOM     14  C   UNL     1      46.590   6.268  11.814  0.00  0.00    +0.000 A 
ATOM     15  C   UNL     1      45.624   5.693  10.988  0.00  0.00    +0.000 A 
ATOM     16  C   UNL     1      44.956   4.540  11.403  0.00  0.00    +0.000 A 
ATOM     17  C   UNL     1      45.290   4.020  12.643  0.00  0.00    +0.000 A 
ATOM     18  N   UNL     1      46.222   4.556  13.461  0.00  0.00    +0.000 NA
BRANCH  16  19
ATOM     19  C   UNL     1      43.918   3.852  10.572  0.00  0.00    +0.000 C 
ATOM     20  F   UNL     1      44.252   2.577  10.232  0.00  0.00    +0.000 F 
ATOM     21  F   UNL     1      42.717   3.767  11.207  0.00  0.00    +0.000 F 
ATOM     22  F   UNL     1      43.675   4.500   9.400  0.00  0.00    +0.000 F 
ENDBRANCH  16  19
ENDBRANCH   2  13
TORSDOF 5
ENDMDL
MODEL 7
REMARK VINA RESULT:    -4.663      6.092      8.791
REMARK INTER + INTRA:          -6.278
REMARK INTER:                  -5.888
REMARK INTRA:                  -0.391
REMARK UNBOUND:                -0.389
REMARK  Name = 
REMARK  5 active torsions:
REMARK  status: ('A' for Active; 'I' for Inactive)
REMARK    1  A    between atoms: N_1  and  C_2
REMARK    2  A    between atoms: C_2  and  C_3
REMARK    3  A    between atoms: C_6  and  C_7
REMARK    4  A    between atoms: C_8  and  C_9
REMARK    5  A    between atoms: C_12  and  C_13
REMARK                            x       y       z     vdW  Elec       q    Type
REMARK                         _______ _______ _______ _____ _____    ______ ____
ROOT
ATOM      1  C   UNL     1      47.656   6.136  13.648  0.00  0.00    +0.000 C 
ATOM      2  C   UNL     1      48.573   6.963  13.116  0.00  0.00    +0.000 C 
ENDROOT
BRANCH   1   6
ATOM      3  C   UNL     1      44.800   3.837  11.410  0.00  0.00    +0.000 A 
ATOM      4  C   UNL     1      45.128   5.138  11.005  0.00  0.00    +0.000 A 
ATOM      5  C   UNL     1      46.053   5.899  11.724  0.00  0.00    +0.000 A 
ATOM      6  C   UNL     1      46.660   5.382  12.875  0.00  0.00    +0.000 A 
ATOM      7  C   UNL     1      46.349   4.074  13.267  0.00  0.00    +0.000 A 
ATOM      8  C   UNL     1      45.426   3.310  12.546  0.00  0.00    +0.000 A 
BRANCH   3   9
ATOM      9  C   UNL     1      43.775   3.035  10.650  0.00  0.00    +0.000 C 
BRANCH   9  10
ATOM     10  N   UNL     1      43.026   2.143  11.527  0.00  0.00    +0.000 NA
ATOM     11  H   UNL     1      43.576   1.304  11.697  0.00  0.00    +0.000 HD
ATOM     12  H   UNL     1      42.182   1.841  11.041  0.00  0.00    +0.000 HD
ENDBRANCH   9  10
ENDBRANCH   3   9
ENDBRANCH   1   6
BRANCH   2  13
ATOM     13  C   UNL     1      49.560   7.698  13.919  0.00  0.00    +0.000 A 
ATOM     14  C   UNL     1      49.860   9.023  13.622  0.00  0.00    +0.000 A 
ATOM     15  C   UNL     1      50.800   9.692  14.407  0.00  0.00    +0.000 A 
ATOM     16  C   UNL     1      51.417   9.025  15.467  0.00  0.00    +0.000 A 
ATOM     17  C   UNL     1      51.061   7.704  15.684  0.00  0.00    +0.000 A 
ATOM     18  N   UNL     1      50.153   7.034  14.939  0.00  0.00    +0.000 NA
BRANCH  16  19
ATOM     19  C   UNL     1      52.424   9.673  16.365  0.00  0.00    +0.000 C 
ATOM     20  F   UNL     1      52.918   8.836  17.319  0.00  0.00    +0.000 F 
ATOM     21  F   UNL     1      53.505  10.140  15.683  0.00  0.00    +0.000 F 
ATOM     22  F   UNL     1      51.914  10.742  17.036  0.00  0.00    +0.000 F 
ENDBRANCH  16  19
ENDBRANCH   2  13
TORSDOF 5
ENDMDL
MODEL 8
REMARK VINA RESULT:    -4.515      5.928      9.073
REMARK INTER + INTRA:          -6.092
REMARK INTER:                  -5.683
REMARK INTRA:                  -0.409
REMARK UNBOUND:                -0.389
REMARK  Name = 
REMARK  5 active torsions:
REMARK  status: ('A' for Active; 'I' for Inactive)
REMARK    1  A    between atoms: N_1  and  C_2
REMARK    2  A    between atoms: C_2  and  C_3
REMARK    3  A    between atoms: C_6  and  C_7
REMARK    4  A    between atoms: C_8  and  C_9
REMARK    5  A    between atoms: C_12  and  C_13
REMARK                            x       y       z     vdW  Elec       q    Type
REMARK                         _______ _______ _______ _____ _____    ______ ____
ROOT
ATOM      1  C   UNL     1      47.498   5.499  14.355  0.00  0.00    +0.000 C 
ATOM      2  C   UNL     1      48.280   6.591  14.328  0.00  0.00    +0.000 C 
ENDROOT
BRANCH   1   6
ATOM      3  C   UNL     1      44.957   4.299  11.106  0.00  0.00    +0.000 A 
ATOM      4  C   UNL     1      45.209   3.417  12.165  0.00  0.00    +0.000 A 
ATOM      5  C   UNL     1      46.035   3.791  13.228  0.00  0.00    +0.000 A 
ATOM      6  C   UNL     1      46.642   5.053  13.247  0.00  0.00    +0.000 A 
ATOM      7  C   UNL     1      46.374   5.943  12.201  0.00  0.00    +0.000 A 
ATOM      8  C   UNL     1      45.544   5.570  11.138  0.00  0.00    +0.000 A 
BRANCH   3   9
ATOM      9  C   UNL     1      44.093   3.875   9.946  0.00  0.00    +0.000 C 
BRANCH   9  10
ATOM     10  N   UNL     1      44.382   4.649   8.744  0.00  0.00    +0.000 NA
ATOM     11  H   UNL     1      45.386   4.797   8.677  0.00  0.00    +0.000 HD
ATOM     12  H   UNL     1      43.959   5.572   8.841  0.00  0.00    +0.000 HD
ENDBRANCH   9  10
ENDBRANCH   3   9
ENDBRANCH   1   6
BRANCH   2  13
ATOM     13  C   UNL     1      49.130   7.005  15.452  0.00  0.00    +0.000 A 
ATOM     14  C   UNL     1      49.240   8.350  15.792  0.00  0.00    +0.000 A 
ATOM     15  C   UNL     1      50.054   8.708  16.868  0.00  0.00    +0.000 A 
ATOM     16  C   UNL     1      50.736   7.718  17.579  0.00  0.00    +0.000 A 
ATOM     17  C   UNL     1      50.571   6.406  17.165  0.00  0.00    +0.000 A 
ATOM     18  N   UNL     1      49.788   6.034  16.127  0.00  0.00    +0.000 NA
BRANCH  16  19
ATOM     19  C   UNL     1      51.616   8.014  18.752  0.00  0.00    +0.000 C 
ATOM     20  F   UNL     1      52.802   7.346  18.724  0.00  0.00    +0.000 F 
ATOM     21  F   UNL     1      51.934   9.335  18.844  0.00  0.00    +0.000 F 
ATOM     22  F   UNL     1      51.032   7.688  19.938  0.00  0.00    +0.000 F 
ENDBRANCH  16  19
ENDBRANCH   2  13
TORSDOF 5
ENDMDL
MODEL 9
REMARK VINA RESULT:    -4.383     10.137     10.945
REMARK INTER + INTRA:          -5.925
REMARK INTER:                  -5.525
REMARK INTRA:                  -0.400
REMARK UNBOUND:                -0.389
REMARK  Name = 
REMARK  5 active torsions:
REMARK  status: ('A' for Active; 'I' for Inactive)
REMARK    1  A    between atoms: N_1  and  C_2
REMARK    2  A    between atoms: C_2  and  C_3
REMARK    3  A    between atoms: C_6  and  C_7
REMARK    4  A    between atoms: C_8  and  C_9
REMARK    5  A    between atoms: C_12  and  C_13
REMARK                            x       y       z     vdW  Elec       q    Type
REMARK                         _______ _______ _______ _____ _____    ______ ____
ROOT
ATOM      1  C   UNL     1      40.469  -1.968  16.556  0.00  0.00    +0.000 C 
ATOM      2  C   UNL     1      39.275  -1.741  15.981  0.00  0.00    +0.000 C 
ENDROOT
BRANCH   1   6
ATOM      3  C   UNL     1      42.533  -5.726  16.303  0.00  0.00    +0.000 A 
ATOM      4  C   UNL     1      42.547  -4.994  17.498  0.00  0.00    +0.000 A 
ATOM      5  C   UNL     1      41.883  -3.769  17.595  0.00  0.00    +0.000 A 
ATOM      6  C   UNL     1      41.201  -3.240  16.493  0.00  0.00    +0.000 A 
ATOM      7  C   UNL     1      41.168  -3.980  15.305  0.00  0.00    +0.000 A 
ATOM      8  C   UNL     1      41.829  -5.209  15.208  0.00  0.00    +0.000 A 
BRANCH   3   9
ATOM      9  C   UNL     1      43.281  -7.030  16.195  0.00  0.00    +0.000 C 
BRANCH   9  10
ATOM     10  N   UNL     1      44.650  -6.911  16.684  0.00  0.00    +0.000 NA
ATOM     11  H   UNL     1      45.179  -7.730  16.395  0.00  0.00    +0.000 HD
ATOM     12  H   UNL     1      44.634  -6.922  17.704  0.00  0.00    +0.000 HD
ENDBRANCH   9  10
ENDBRANCH   3   9
ENDBRANCH   1   6
BRANCH   2  13
ATOM     13  C   UNL     1      38.572  -0.454  16.058  0.00  0.00    +0.000 A 
ATOM     14  C   UNL     1      37.608  -0.122  15.112  0.00  0.00    +0.000 A 
ATOM     15  C   UNL     1      36.958   1.109  15.217  0.00  0.00    +0.000 A 
ATOM     16  C   UNL     1      37.283   1.976  16.262  0.00  0.00    +0.000 A 
ATOM     17  C   UNL     1      38.260   1.564  17.153  0.00  0.00    +0.000 A 
ATOM     18  N   UNL     1      38.903   0.378  17.074  0.00  0.00    +0.000 NA
BRANCH  16  19
ATOM     19  C   UNL     1      36.623   3.306  16.455  0.00  0.00    +0.000 C 
ATOM     20  F   UNL     1      35.768   3.639  15.449  0.00  0.00    +0.000 F 
ATOM     21  F   UNL     1      35.891   3.361  17.601  0.00  0.00    +0.000 F 
ATOM     22  F   UNL     1      37.520   4.327  16.535  0.00  0.00    +0.000 F 
ENDBRANCH  16  19
ENDBRANCH   2  13
TORSDOF 5
ENDMDL
