MODEL 1
REMARK VINA RESULT:    -9.407      0.000      0.000
REMARK INTER + INTRA:         -14.231
REMARK INTER:                 -13.256
REMARK INTRA:                  -0.975
REMARK UNBOUND:                -0.975
REMARK  Name = 
REMARK  7 active torsions:
REMARK  status: ('A' for Active; 'I' for Inactive)
REMARK    1  A    between atoms: C_2  and  C_4
REMARK    2  A    between atoms: C_7  and  N_8
REMARK    3  A    between atoms: N_8  and  C_9
REMARK    4  A    between atoms: C_9  and  C_10
REMARK    5  A    between atoms: C_10  and  C_13
REMARK    6  A    between atoms: C_17  and  O_18
REMARK    7  A    between atoms: O_18  and  C_19
REMARK                            x       y       z     vdW  Elec       q    Type
REMARK                         _______ _______ _______ _____ _____    ______ ____
ROOT
ATOM      1  C   UNL     1      43.624   5.614  12.106  0.00  0.00    +0.000 C 
ATOM      2  F   UNL     1      43.135   6.785  11.601  0.00  0.00    +0.000 F 
ATOM      3  F   UNL     1      42.907   5.391  13.252  0.00  0.00    +0.000 F 
ENDROOT
BRANCH   1   4
ATOM      4  C   UNL     1      45.116   5.718  12.405  0.00  0.00    +0.000 A 
ATOM      5  C   UNL     1      45.894   6.679  11.744  0.00  0.00    +0.000 A 
ATOM      6  C   UNL     1      47.255   6.822  12.044  0.00  0.00    +0.000 A 
ATOM      7  C   UNL     1      47.863   6.009  13.007  0.00  0.00    +0.000 A 
ATOM      8  C   UNL     1      47.107   5.044  13.655  0.00  0.00    +0.000 A 
ATOM      9  C   UNL     1      45.755   4.900  13.351  0.00  0.00    +0.000 A 
BRANCH   8  10
ATOM     10  O   UNL     1      47.538   4.211  14.651  0.00  0.00    +0.000 OA
BRANCH  10  11
ATOM     11  C   UNL     1      47.304   4.567  16.029  0.00  0.00    +0.000 C 
ATOM     12  C   UNL     1      48.456   5.233  16.804  0.00  0.00    +0.000 C 
ATOM     13  N   UNL     1      48.320   4.177  17.785  0.00  0.00    +0.000 N 
ATOM     14  C   UNL     1      48.724   4.140  19.075  0.00  0.00    +0.000 C 
ATOM     15  N   UNL     1      48.368   3.023  19.757  0.00  0.00    +0.000 N 
ATOM     16  O   UNL     1      49.355   5.032  19.626  0.00  0.00    +0.000 OA
ATOM     17  C   UNL     1      47.417   3.372  17.002  0.00  0.00    +0.000 C 
ATOM     18  H   UNL     1      48.355   2.157  19.239  0.00  0.00    +0.000 HD
ATOM     19  H   UNL     1      48.781   2.971  20.679  0.00  0.00    +0.000 HD
ENDBRANCH  10  11
ENDBRANCH   8  10
ENDBRANCH   1   4
BRANCH   1  20
ATOM     20  C   UNL     1      43.289   4.466  11.117  0.00  0.00    +0.000 C 
BRANCH  20  21
ATOM     21  N   UNL     1      43.635   4.712   9.708  0.00  0.00    +0.000 N 
ATOM     22  H   UNL     1      42.827   4.866   9.105  0.00  0.00    +0.000 HD
BRANCH  21  26
ATOM     23  C   UNL     1      46.410   2.226   7.858  0.00  0.00    +0.000 A 
ATOM     24  C   UNL     1      46.502   3.584   7.598  0.00  0.00    +0.000 A 
ATOM     25  C   UNL     1      45.595   4.435   8.227  0.00  0.00    +0.000 A 
ATOM     26  C   UNL     1      44.640   3.936   9.123  0.00  0.00    +0.000 A 
ATOM     27  C   UNL     1      44.643   2.549   9.300  0.00  0.00    +0.000 A 
ATOM     28  N   UNL     1      45.496   1.679   8.703  0.00  0.00    +0.000 NA
BRANCH  23  30
ATOM     29  N   UNL     1      48.365   1.865   6.482  0.00  0.00    +0.000 N 
ATOM     30  C   UNL     1      47.329   1.276   7.153  0.00  0.00    +0.000 C 
ATOM     31  O   UNL     1      47.179   0.063   7.185  0.00  0.00    +0.000 OA
ATOM     32  H   UNL     1      49.050   1.289   6.018  0.00  0.00    +0.000 HD
ATOM     33  H   UNL     1      48.469   2.872   6.517  0.00  0.00    +0.000 HD
ENDBRANCH  23  30
ENDBRANCH  21  26
ENDBRANCH  20  21
ENDBRANCH   1  20
TORSDOF 7
ENDMDL
MODEL 2
REMARK VINA RESULT:    -7.903      2.124      7.829
REMARK INTER + INTRA:         -12.113
REMARK INTER:                 -10.998
REMARK INTRA:                  -1.115
REMARK UNBOUND:                -0.975
REMARK  Name = 
REMARK  7 active torsions:
REMARK  status: ('A' for Active; 'I' for Inactive)
REMARK    1  A    between atoms: C_2  and  C_4
REMARK    2  A    between atoms: C_7  and  N_8
REMARK    3  A    between atoms: N_8  and  C_9
REMARK    4  A    between atoms: C_9  and  C_10
REMARK    5  A    between atoms: C_10  and  C_13
REMARK    6  A    between atoms: C_17  and  O_18
REMARK    7  A    between atoms: O_18  and  C_19
REMARK                            x       y       z     vdW  Elec       q    Type
REMARK                         _______ _______ _______ _____ _____    ______ ____
ROOT
ATOM      1  C   UNL     1      45.529   7.833  12.109  0.00  0.00    +0.000 C 
ATOM      2  F   UNL     1      45.234   8.368  13.332  0.00  0.00    +0.000 F 
ATOM      3  F   UNL     1      45.269   8.832  11.209  0.00  0.00    +0.000 F 
ENDROOT
BRANCH   1   4
ATOM      4  C   UNL     1      44.676   6.601  11.823  0.00  0.00    +0.000 A 
ATOM      5  C   UNL     1      43.621   6.268  12.684  0.00  0.00    +0.000 A 
ATOM      6  C   UNL     1      42.796   5.170  12.408  0.00  0.00    +0.000 A 
ATOM      7  C   UNL     1      43.010   4.385  11.269  0.00  0.00    +0.000 A 
ATOM      8  C   UNL     1      44.060   4.696  10.419  0.00  0.00    +0.000 A 
ATOM      9  C   UNL     1      44.883   5.785  10.699  0.00  0.00    +0.000 A 
BRANCH   8  10
ATOM     10  O   UNL     1      44.368   4.063   9.246  0.00  0.00    +0.000 OA
BRANCH  10  11
ATOM     11  C   UNL     1      45.613   3.343   9.130  0.00  0.00    +0.000 C 
ATOM     12  C   UNL     1      46.299   3.311   7.751  0.00  0.00    +0.000 C 
ATOM     13  N   UNL     1      46.282   1.867   7.848  0.00  0.00    +0.000 N 
ATOM     14  C   UNL     1      47.032   0.949   7.198  0.00  0.00    +0.000 C 
ATOM     15  N   UNL     1      46.827  -0.335   7.580  0.00  0.00    +0.000 N 
ATOM     16  O   UNL     1      47.855   1.219   6.333  0.00  0.00    +0.000 OA
ATOM     17  C   UNL     1      45.432   1.814   9.011  0.00  0.00    +0.000 C 
ATOM     18  H   UNL     1      45.885  -0.590   7.837  0.00  0.00    +0.000 HD
ATOM     19  H   UNL     1      47.314  -1.006   6.998  0.00  0.00    +0.000 HD
ENDBRANCH  10  11
ENDBRANCH   8  10
ENDBRANCH   1   4
BRANCH   1  20
ATOM     20  C   UNL     1      47.051   7.536  12.050  0.00  0.00    +0.000 C 
BRANCH  20  21
ATOM     21  N   UNL     1      47.759   7.550  13.339  0.00  0.00    +0.000 N 
ATOM     22  H   UNL     1      48.633   8.075  13.325  0.00  0.00    +0.000 HD
BRANCH  21  26
ATOM     23  C   UNL     1      47.850   4.182  15.779  0.00  0.00    +0.000 A 
ATOM     24  C   UNL     1      47.150   4.084  14.587  0.00  0.00    +0.000 A 
ATOM     25  C   UNL     1      47.127   5.194  13.746  0.00  0.00    +0.000 A 
ATOM     26  C   UNL     1      47.821   6.365  14.079  0.00  0.00    +0.000 A 
ATOM     27  C   UNL     1      48.488   6.345  15.308  0.00  0.00    +0.000 A 
ATOM     28  N   UNL     1      48.530   5.294  16.165  0.00  0.00    +0.000 NA
BRANCH  23  30
ATOM     29  N   UNL     1      46.839   3.048  17.659  0.00  0.00    +0.000 N 
ATOM     30  C   UNL     1      47.846   3.029  16.734  0.00  0.00    +0.000 C 
ATOM     31  O   UNL     1      48.669   2.125  16.685  0.00  0.00    +0.000 OA
ATOM     32  H   UNL     1      46.744   2.284  18.311  0.00  0.00    +0.000 HD
ATOM     33  H   UNL     1      46.158   3.798  17.635  0.00  0.00    +0.000 HD
ENDBRANCH  23  30
ENDBRANCH  21  26
ENDBRANCH  20  21
ENDBRANCH   1  20
TORSDOF 7
ENDMDL
MODEL 3
REMARK VINA RESULT:    -7.820      2.578      8.549
REMARK INTER + INTRA:         -11.995
REMARK INTER:                 -11.522
REMARK INTRA:                  -0.473
REMARK UNBOUND:                -0.975
REMARK  Name = 
REMARK  7 active torsions:
REMARK  status: ('A' for Active; 'I' for Inactive)
REMARK    1  A    between atoms: C_2  and  C_4
REMARK    2  A    between atoms: C_7  and  N_8
REMARK    3  A    between atoms: N_8  and  C_9
REMARK    4  A    between atoms: C_9  and  C_10
REMARK    5  A    between atoms: C_10  and  C_13
REMARK    6  A    between atoms: C_17  and  O_18
REMARK    7  A    between atoms: O_18  and  C_19
REMARK                            x       y       z     vdW  Elec       q    Type
REMARK                         _______ _______ _______ _____ _____    ______ ____
ROOT
ATOM      1  C   UNL     1      46.973   4.528  13.597  0.00  0.00    +0.000 C 
ATOM      2  F   UNL     1      47.951   5.364  13.134  0.00  0.00    +0.000 F 
ATOM      3  F   UNL     1      47.517   3.272  13.533  0.00  0.00    +0.000 F 
ENDROOT
BRANCH   1   4
ATOM      4  C   UNL     1      45.711   4.625  12.747  0.00  0.00    +0.000 A 
ATOM      5  C   UNL     1      44.994   5.828  12.697  0.00  0.00    +0.000 A 
ATOM      6  C   UNL     1      43.862   5.949  11.882  0.00  0.00    +0.000 A 
ATOM      7  C   UNL     1      43.425   4.872  11.102  0.00  0.00    +0.000 A 
ATOM      8  C   UNL     1      44.117   3.672  11.155  0.00  0.00    +0.000 A 
ATOM      9  C   UNL     1      45.240   3.552  11.972  0.00  0.00    +0.000 A 
BRANCH   8  10
ATOM     10  O   UNL     1      43.851   2.548  10.421  0.00  0.00    +0.000 OA
BRANCH  10  11
ATOM     11  C   UNL     1      44.271   2.482   9.042  0.00  0.00    +0.000 C 
ATOM     12  C   UNL     1      45.288   1.394   8.653  0.00  0.00    +0.000 C 
ATOM     13  N   UNL     1      46.121   2.453   8.124  0.00  0.00    +0.000 N 
ATOM     14  C   UNL     1      47.125   2.393   7.221  0.00  0.00    +0.000 C 
ATOM     15  N   UNL     1      47.657   3.590   6.871  0.00  0.00    +0.000 N 
ATOM     16  O   UNL     1      47.544   1.356   6.723  0.00  0.00    +0.000 OA
ATOM     17  C   UNL     1      45.340   3.534   8.672  0.00  0.00    +0.000 C 
ATOM     18  H   UNL     1      47.710   4.293   7.593  0.00  0.00    +0.000 HD
ATOM     19  H   UNL     1      48.479   3.505   6.287  0.00  0.00    +0.000 HD
ENDBRANCH  10  11
ENDBRANCH   8  10
ENDBRANCH   1   4
BRANCH   1  20
ATOM     20  C   UNL     1      46.714   4.847  15.094  0.00  0.00    +0.000 C 
BRANCH  20  21
ATOM     21  N   UNL     1      46.813   3.708  16.019  0.00  0.00    +0.000 N 
ATOM     22  H   UNL     1      46.036   3.642  16.678  0.00  0.00    +0.000 HD
BRANCH  21  26
ATOM     23  C   UNL     1      50.612   2.743  17.411  0.00  0.00    +0.000 A 
ATOM     24  C   UNL     1      50.114   3.993  17.740  0.00  0.00    +0.000 A 
ATOM     25  C   UNL     1      48.834   4.326  17.302  0.00  0.00    +0.000 A 
ATOM     26  C   UNL     1      48.059   3.409  16.580  0.00  0.00    +0.000 A 
ATOM     27  C   UNL     1      48.671   2.182  16.305  0.00  0.00    +0.000 A 
ATOM     28  N   UNL     1      49.916   1.816  16.699  0.00  0.00    +0.000 NA
BRANCH  23  30
ATOM     29  N   UNL     1      52.186   1.059  18.142  0.00  0.00    +0.000 N 
ATOM     30  C   UNL     1      52.007   2.375  17.813  0.00  0.00    +0.000 C 
ATOM     31  O   UNL     1      52.926   3.182  17.832  0.00  0.00    +0.000 OA
ATOM     32  H   UNL     1      53.106   0.725  18.384  0.00  0.00    +0.000 HD
ATOM     33  H   UNL     1      51.402   0.420  18.074  0.00  0.00    +0.000 HD
ENDBRANCH  23  30
ENDBRANCH  21  26
ENDBRANCH  20  21
ENDBRANCH   1  20
TORSDOF 7
ENDMDL
MODEL 4
REMARK VINA RESULT:    -7.620      1.967      8.757
REMARK INTER + INTRA:         -11.714
REMARK INTER:                 -11.263
REMARK INTRA:                  -0.451
REMARK UNBOUND:                -0.975
REMARK  Name = 
REMARK  7 active torsions:
REMARK  status: ('A' for Active; 'I' for Inactive)
REMARK    1  A    between atoms: C_2  and  C_4
REMARK    2  A    between atoms: C_7  and  N_8
REMARK    3  A    between atoms: N_8  and  C_9
REMARK    4  A    between atoms: C_9  and  C_10
REMARK    5  A    between atoms: C_10  and  C_13
REMARK    6  A    between atoms: C_17  and  O_18
REMARK    7  A    between atoms: O_18  and  C_19
REMARK                            x       y       z     vdW  Elec       q    Type
REMARK                         _______ _______ _______ _____ _____    ______ ____
ROOT
ATOM      1  C   UNL     1      46.761   6.606  12.260  0.00  0.00    +0.000 C 
ATOM      2  F   UNL     1      46.523   7.841  12.795  0.00  0.00    +0.000 F 
ATOM      3  F   UNL     1      47.583   6.832  11.188  0.00  0.00    +0.000 F 
ENDROOT
BRANCH   1   4
ATOM      4  C   UNL     1      45.465   5.931  11.824  0.00  0.00    +0.000 A 
ATOM      5  C   UNL     1      44.270   6.663  11.803  0.00  0.00    +0.000 A 
ATOM      6  C   UNL     1      43.080   6.073  11.356  0.00  0.00    +0.000 A 
ATOM      7  C   UNL     1      43.062   4.742  10.924  0.00  0.00    +0.000 A 
ATOM      8  C   UNL     1      44.235   4.003  10.956  0.00  0.00    +0.000 A 
ATOM      9  C   UNL     1      45.416   4.591  11.406  0.00  0.00    +0.000 A 
BRANCH   8  10
ATOM     10  O   UNL     1      44.394   2.715  10.522  0.00  0.00    +0.000 OA
BRANCH  10  11
ATOM     11  C   UNL     1      44.521   2.449   9.110  0.00  0.00    +0.000 C 
ATOM     12  C   UNL     1      45.627   1.477   8.659  0.00  0.00    +0.000 C 
ATOM     13  N   UNL     1      46.107   2.530   7.789  0.00  0.00    +0.000 N 
ATOM     14  C   UNL     1      46.893   2.453   6.691  0.00  0.00    +0.000 C 
ATOM     15  N   UNL     1      47.094   3.628   6.045  0.00  0.00    +0.000 N 
ATOM     16  O   UNL     1      47.392   1.417   6.273  0.00  0.00    +0.000 OA
ATOM     17  C   UNL     1      45.262   3.562   8.337  0.00  0.00    +0.000 C 
ATOM     18  H   UNL     1      47.159   4.457   6.616  0.00  0.00    +0.000 HD
ATOM     19  H   UNL     1      47.777   3.560   5.300  0.00  0.00    +0.000 HD
ENDBRANCH  10  11
ENDBRANCH   8  10
ENDBRANCH   1   4
BRANCH   1  20
ATOM     20  C   UNL     1      47.559   5.763  13.290  0.00  0.00    +0.000 C 
BRANCH  20  21
ATOM     21  N   UNL     1      46.774   5.184  14.392  0.00  0.00    +0.000 N 
ATOM     22  H   UNL     1      45.860   5.619  14.521  0.00  0.00    +0.000 HD
BRANCH  21  26
ATOM     23  C   UNL     1      48.649   4.543  18.049  0.00  0.00    +0.000 A 
ATOM     24  C   UNL     1      47.735   3.591  17.629  0.00  0.00    +0.000 A 
ATOM     25  C   UNL     1      47.113   3.776  16.396  0.00  0.00    +0.000 A 
ATOM     26  C   UNL     1      47.430   4.877  15.588  0.00  0.00    +0.000 A 
ATOM     27  C   UNL     1      48.364   5.770  16.121  0.00  0.00    +0.000 A 
ATOM     28  N   UNL     1      48.987   5.639  17.319  0.00  0.00    +0.000 NA
BRANCH  23  30
ATOM     29  N   UNL     1      48.581   3.670  20.303  0.00  0.00    +0.000 N 
ATOM     30  C   UNL     1      49.291   4.406  19.395  0.00  0.00    +0.000 C 
ATOM     31  O   UNL     1      50.378   4.899  19.664  0.00  0.00    +0.000 OA
ATOM     32  H   UNL     1      48.967   3.498  21.218  0.00  0.00    +0.000 HD
ATOM     33  H   UNL     1      47.703   3.248  20.020  0.00  0.00    +0.000 HD
ENDBRANCH  23  30
ENDBRANCH  21  26
ENDBRANCH  20  21
ENDBRANCH   1  20
TORSDOF 7
ENDMDL
MODEL 5
REMARK VINA RESULT:    -7.377      3.450      4.120
REMARK INTER + INTRA:         -11.371
REMARK INTER:                 -10.593
REMARK INTRA:                  -0.779
REMARK UNBOUND:                -0.975
REMARK  Name = 
REMARK  7 active torsions:
REMARK  status: ('A' for Active; 'I' for Inactive)
REMARK    1  A    between atoms: C_2  and  C_4
REMARK    2  A    between atoms: C_7  and  N_8
REMARK    3  A    between atoms: N_8  and  C_9
REMARK    4  A    between atoms: C_9  and  C_10
REMARK    5  A    between atoms: C_10  and  C_13
REMARK    6  A    between atoms: C_17  and  O_18
REMARK    7  A    between atoms: O_18  and  C_19
REMARK                            x       y       z     vdW  Elec       q    Type
REMARK                         _______ _______ _______ _____ _____    ______ ____
ROOT
ATOM      1  C   UNL     1      43.511   5.404  12.180  0.00  0.00    +0.000 C 
ATOM      2  F   UNL     1      42.395   5.568  11.408  0.00  0.00    +0.000 F 
ATOM      3  F   UNL     1      43.039   5.176  13.446  0.00  0.00    +0.000 F 
ENDROOT
BRANCH   1   4
ATOM      4  C   UNL     1      44.400   6.643  12.141  0.00  0.00    +0.000 A 
ATOM      5  C   UNL     1      44.007   7.759  11.389  0.00  0.00    +0.000 A 
ATOM      6  C   UNL     1      44.786   8.923  11.383  0.00  0.00    +0.000 A 
ATOM      7  C   UNL     1      45.970   8.994  12.126  0.00  0.00    +0.000 A 
ATOM      8  C   UNL     1      46.376   7.891  12.861  0.00  0.00    +0.000 A 
ATOM      9  C   UNL     1      45.602   6.732  12.861  0.00  0.00    +0.000 A 
BRANCH   8  10
ATOM     10  O   UNL     1      47.474   7.817  13.675  0.00  0.00    +0.000 OA
BRANCH  10  11
ATOM     11  C   UNL     1      48.719   7.313  13.149  0.00  0.00    +0.000 C 
ATOM     12  C   UNL     1      50.015   7.687  13.891  0.00  0.00    +0.000 C 
ATOM     13  N   UNL     1      50.506   8.210  12.634  0.00  0.00    +0.000 N 
ATOM     14  C   UNL     1      51.776   8.449  12.234  0.00  0.00    +0.000 C 
ATOM     15  N   UNL     1      51.906   8.867  10.951  0.00  0.00    +0.000 N 
ATOM     16  O   UNL     1      52.762   8.298  12.944  0.00  0.00    +0.000 OA
ATOM     17  C   UNL     1      49.247   8.114  11.939  0.00  0.00    +0.000 C 
ATOM     18  H   UNL     1      51.176   9.462  10.589  0.00  0.00    +0.000 HD
ATOM     19  H   UNL     1      52.850   9.148  10.718  0.00  0.00    +0.000 HD
ENDBRANCH  10  11
ENDBRANCH   8  10
ENDBRANCH   1   4
BRANCH   1  20
ATOM     20  C   UNL     1      44.251   4.120  11.720  0.00  0.00    +0.000 C 
BRANCH  20  21
ATOM     21  N   UNL     1      43.858   3.589  10.406  0.00  0.00    +0.000 N 
ATOM     22  H   UNL     1      43.156   2.850  10.453  0.00  0.00    +0.000 HD
BRANCH  21  26
ATOM     23  C   UNL     1      46.640   2.723   7.437  0.00  0.00    +0.000 A 
ATOM     24  C   UNL     1      46.325   4.056   7.643  0.00  0.00    +0.000 A 
ATOM     25  C   UNL     1      45.412   4.368   8.649  0.00  0.00    +0.000 A 
ATOM     26  C   UNL     1      44.855   3.364   9.452  0.00  0.00    +0.000 A 
ATOM     27  C   UNL     1      45.247   2.057   9.146  0.00  0.00    +0.000 A 
ATOM     28  N   UNL     1      46.121   1.703   8.172  0.00  0.00    +0.000 NA
BRANCH  23  30
ATOM     29  N   UNL     1      47.410   3.061   5.171  0.00  0.00    +0.000 N 
ATOM     30  C   UNL     1      47.571   2.347   6.326  0.00  0.00    +0.000 C 
ATOM     31  O   UNL     1      48.424   1.479   6.442  0.00  0.00    +0.000 OA
ATOM     32  H   UNL     1      48.027   2.895   4.391  0.00  0.00    +0.000 HD
ATOM     33  H   UNL     1      46.714   3.798   5.136  0.00  0.00    +0.000 HD
ENDBRANCH  23  30
ENDBRANCH  21  26
ENDBRANCH  20  21
ENDBRANCH   1  20
TORSDOF 7
ENDMDL
MODEL 6
REMARK VINA RESULT:    -7.321      2.425      8.563
REMARK INTER + INTRA:         -11.293
REMARK INTER:                 -10.697
REMARK INTRA:                  -0.596
REMARK UNBOUND:                -0.975
REMARK  Name = 
REMARK  7 active torsions:
REMARK  status: ('A' for Active; 'I' for Inactive)
REMARK    1  A    between atoms: C_2  and  C_4
REMARK    2  A    between atoms: C_7  and  N_8
REMARK    3  A    between atoms: N_8  and  C_9
REMARK    4  A    between atoms: C_9  and  C_10
REMARK    5  A    between atoms: C_10  and  C_13
REMARK    6  A    between atoms: C_17  and  O_18
REMARK    7  A    between atoms: O_18  and  C_19
REMARK                            x       y       z     vdW  Elec       q    Type
REMARK                         _______ _______ _______ _____ _____    ______ ____
ROOT
ATOM      1  C   UNL     1      47.125   6.648  12.315  0.00  0.00    +0.000 C 
ATOM      2  F   UNL     1      46.935   7.728  11.499  0.00  0.00    +0.000 F 
ATOM      3  F   UNL     1      48.454   6.340  12.198  0.00  0.00    +0.000 F 
ENDROOT
BRANCH   1   4
ATOM      4  C   UNL     1      46.250   5.472  11.893  0.00  0.00    +0.000 A 
ATOM      5  C   UNL     1      45.928   4.474  12.823  0.00  0.00    +0.000 A 
ATOM      6  C   UNL     1      45.084   3.414  12.467  0.00  0.00    +0.000 A 
ATOM      7  C   UNL     1      44.547   3.332  11.177  0.00  0.00    +0.000 A 
ATOM      8  C   UNL     1      44.872   4.305  10.244  0.00  0.00    +0.000 A 
ATOM      9  C   UNL     1      45.716   5.355  10.600  0.00  0.00    +0.000 A 
BRANCH   8  10
ATOM     10  O   UNL     1      44.392   4.395   8.966  0.00  0.00    +0.000 OA
BRANCH  10  11
ATOM     11  C   UNL     1      44.860   3.471   7.962  0.00  0.00    +0.000 C 
ATOM     12  C   UNL     1      45.609   2.212   8.438  0.00  0.00    +0.000 C 
ATOM     13  N   UNL     1      46.698   2.612   7.573  0.00  0.00    +0.000 N 
ATOM     14  C   UNL     1      47.708   1.875   7.058  0.00  0.00    +0.000 C 
ATOM     15  N   UNL     1      48.528   2.539   6.206  0.00  0.00    +0.000 N 
ATOM     16  O   UNL     1      47.895   0.692   7.308  0.00  0.00    +0.000 OA
ATOM     17  C   UNL     1      46.167   3.919   7.273  0.00  0.00    +0.000 C 
ATOM     18  H   UNL     1      48.707   3.511   6.410  0.00  0.00    +0.000 HD
ATOM     19  H   UNL     1      49.337   1.997   5.930  0.00  0.00    +0.000 HD
ENDBRANCH  10  11
ENDBRANCH   8  10
ENDBRANCH   1   4
BRANCH   1  20
ATOM     20  C   UNL     1      46.876   7.085  13.783  0.00  0.00    +0.000 C 
BRANCH  20  21
ATOM     21  N   UNL     1      48.055   7.572  14.517  0.00  0.00    +0.000 N 
ATOM     22  H   UNL     1      48.711   8.100  13.940  0.00  0.00    +0.000 HD
BRANCH  21  26
ATOM     23  C   UNL     1      49.847   4.806  17.054  0.00  0.00    +0.000 A 
ATOM     24  C   UNL     1      50.542   5.977  16.799  0.00  0.00    +0.000 A 
ATOM     25  C   UNL     1      49.948   6.926  15.969  0.00  0.00    +0.000 A 
ATOM     26  C   UNL     1      48.669   6.717  15.436  0.00  0.00    +0.000 A 
ATOM     27  C   UNL     1      48.069   5.496  15.762  0.00  0.00    +0.000 A 
ATOM     28  N   UNL     1      48.611   4.538  16.555  0.00  0.00    +0.000 NA
BRANCH  23  30
ATOM     29  N   UNL     1      50.740   4.098  19.186  0.00  0.00    +0.000 N 
ATOM     30  C   UNL     1      50.481   3.740  17.892  0.00  0.00    +0.000 C 
ATOM     31  O   UNL     1      50.737   2.623  17.461  0.00  0.00    +0.000 OA
ATOM     32  H   UNL     1      51.128   3.420  19.824  0.00  0.00    +0.000 HD
ATOM     33  H   UNL     1      50.474   5.022  19.507  0.00  0.00    +0.000 HD
ENDBRANCH  23  30
ENDBRANCH  21  26
ENDBRANCH  20  21
ENDBRANCH   1  20
TORSDOF 7
ENDMDL
MODEL 7
REMARK VINA RESULT:    -6.811      3.480      7.862
REMARK INTER + INTRA:         -10.573
REMARK INTER:                  -9.466
REMARK INTRA:                  -1.107
REMARK UNBOUND:                -0.975
REMARK  Name = 
REMARK  7 active torsions:
REMARK  status: ('A' for Active; 'I' for Inactive)
REMARK    1  A    between atoms: C_2  and  C_4
REMARK    2  A    between atoms: C_7  and  N_8
REMARK    3  A    between atoms: N_8  and  C_9
REMARK    4  A    between atoms: C_9  and  C_10
REMARK    5  A    between atoms: C_10  and  C_13
REMARK    6  A    between atoms: C_17  and  O_18
REMARK    7  A    between atoms: O_18  and  C_19
REMARK                            x       y       z     vdW  Elec       q    Type
REMARK                         _______ _______ _______ _____ _____    ______ ____
ROOT
ATOM      1  C   UNL     1      49.570   8.477  12.138  0.00  0.00    +0.000 C 
ATOM      2  F   UNL     1      50.444   9.527  12.178  0.00  0.00    +0.000 F 
ATOM      3  F   UNL     1      49.880   7.797  10.990  0.00  0.00    +0.000 F 
ENDROOT
BRANCH   1   4
ATOM      4  C   UNL     1      48.124   8.960  12.116  0.00  0.00    +0.000 A 
ATOM      5  C   UNL     1      47.848  10.333  12.070  0.00  0.00    +0.000 A 
ATOM      6  C   UNL     1      46.526  10.792  11.998  0.00  0.00    +0.000 A 
ATOM      7  C   UNL     1      45.457   9.889  11.971  0.00  0.00    +0.000 A 
ATOM      8  C   UNL     1      45.718   8.529  12.033  0.00  0.00    +0.000 A 
ATOM      9  C   UNL     1      47.033   8.075  12.110  0.00  0.00    +0.000 A 
BRANCH   8  10
ATOM     10  O   UNL     1      44.793   7.522  11.966  0.00  0.00    +0.000 OA
BRANCH  10  11
ATOM     11  C   UNL     1      45.232   6.165  11.750  0.00  0.00    +0.000 C 
ATOM     12  C   UNL     1      44.603   5.385  10.580  0.00  0.00    +0.000 C 
ATOM     13  N   UNL     1      44.232   4.369  11.542  0.00  0.00    +0.000 N 
ATOM     14  C   UNL     1      43.919   3.068  11.347  0.00  0.00    +0.000 C 
ATOM     15  N   UNL     1      43.695   2.355  12.478  0.00  0.00    +0.000 N 
ATOM     16  O   UNL     1      43.845   2.534  10.248  0.00  0.00    +0.000 OA
ATOM     17  C   UNL     1      44.576   5.145  12.707  0.00  0.00    +0.000 C 
ATOM     18  H   UNL     1      43.249   2.840  13.242  0.00  0.00    +0.000 HD
ATOM     19  H   UNL     1      43.350   1.421  12.297  0.00  0.00    +0.000 HD
ENDBRANCH  10  11
ENDBRANCH   8  10
ENDBRANCH   1   4
BRANCH   1  20
ATOM     20  C   UNL     1      49.869   7.533  13.333  0.00  0.00    +0.000 C 
BRANCH  20  21
ATOM     21  N   UNL     1      49.299   7.937  14.628  0.00  0.00    +0.000 N 
ATOM     22  H   UNL     1      49.837   8.656  15.110  0.00  0.00    +0.000 HD
BRANCH  21  26
ATOM     23  C   UNL     1      47.932   4.779  16.966  0.00  0.00    +0.000 A 
ATOM     24  C   UNL     1      48.591   5.811  17.615  0.00  0.00    +0.000 A 
ATOM     25  C   UNL     1      49.036   6.889  16.852  0.00  0.00    +0.000 A 
ATOM     26  C   UNL     1      48.794   6.943  15.473  0.00  0.00    +0.000 A 
ATOM     27  C   UNL     1      48.123   5.842  14.931  0.00  0.00    +0.000 A 
ATOM     28  N   UNL     1      47.682   4.766  15.630  0.00  0.00    +0.000 NA
BRANCH  23  30
ATOM     29  N   UNL     1      48.273   3.276  18.829  0.00  0.00    +0.000 N 
ATOM     30  C   UNL     1      47.494   3.578  17.746  0.00  0.00    +0.000 C 
ATOM     31  O   UNL     1      46.505   2.922  17.451  0.00  0.00    +0.000 OA
ATOM     32  H   UNL     1      48.018   2.506  19.428  0.00  0.00    +0.000 HD
ATOM     33  H   UNL     1      49.060   3.873  19.055  0.00  0.00    +0.000 HD
ENDBRANCH  23  30
ENDBRANCH  21  26
ENDBRANCH  20  21
ENDBRANCH   1  20
TORSDOF 7
ENDMDL
MODEL 8
REMARK VINA RESULT:    -6.674      3.845      8.252
REMARK INTER + INTRA:         -10.381
REMARK INTER:                  -9.522
REMARK INTRA:                  -0.858
REMARK UNBOUND:                -0.975
REMARK  Name = 
REMARK  7 active torsions:
REMARK  status: ('A' for Active; 'I' for Inactive)
REMARK    1  A    between atoms: C_2  and  C_4
REMARK    2  A    between atoms: C_7  and  N_8
REMARK    3  A    between atoms: N_8  and  C_9
REMARK    4  A    between atoms: C_9  and  C_10
REMARK    5  A    between atoms: C_10  and  C_13
REMARK    6  A    between atoms: C_17  and  O_18
REMARK    7  A    between atoms: O_18  and  C_19
REMARK                            x       y       z     vdW  Elec       q    Type
REMARK                         _______ _______ _______ _____ _____    ______ ____
ROOT
ATOM      1  C   UNL     1      46.282   6.717  12.828  0.00  0.00    +0.000 C 
ATOM      2  F   UNL     1      47.380   6.641  12.017  0.00  0.00    +0.000 F 
ATOM      3  F   UNL     1      46.667   6.136  14.007  0.00  0.00    +0.000 F 
ENDROOT
BRANCH   1   4
ATOM      4  C   UNL     1      45.091   5.985  12.218  0.00  0.00    +0.000 A 
ATOM      5  C   UNL     1      43.845   6.028  12.858  0.00  0.00    +0.000 A 
ATOM      6  C   UNL     1      42.728   5.404  12.287  0.00  0.00    +0.000 A 
ATOM      7  C   UNL     1      42.837   4.725  11.067  0.00  0.00    +0.000 A 
ATOM      8  C   UNL     1      44.068   4.662  10.434  0.00  0.00    +0.000 A 
ATOM      9  C   UNL     1      45.178   5.279  11.008  0.00  0.00    +0.000 A 
BRANCH   8  10
ATOM     10  O   UNL     1      44.327   4.086   9.220  0.00  0.00    +0.000 OA
BRANCH  10  11
ATOM     11  C   UNL     1      45.594   3.432   8.997  0.00  0.00    +0.000 C 
ATOM     12  C   UNL     1      46.091   3.305   7.545  0.00  0.00    +0.000 C 
ATOM     13  N   UNL     1      46.190   1.879   7.773  0.00  0.00    +0.000 N 
ATOM     14  C   UNL     1      46.911   0.947   7.109  0.00  0.00    +0.000 C 
ATOM     15  N   UNL     1      46.850  -0.304   7.629  0.00  0.00    +0.000 N 
ATOM     16  O   UNL     1      47.591   1.178   6.118  0.00  0.00    +0.000 OA
ATOM     17  C   UNL     1      45.507   1.890   9.042  0.00  0.00    +0.000 C 
ATOM     18  H   UNL     1      45.971  -0.586   8.036  0.00  0.00    +0.000 HD
ATOM     19  H   UNL     1      47.302  -0.999   7.048  0.00  0.00    +0.000 HD
ENDBRANCH  10  11
ENDBRANCH   8  10
ENDBRANCH   1   4
BRANCH   1  20
ATOM     20  C   UNL     1      45.982   8.211  13.121  0.00  0.00    +0.000 C 
BRANCH  20  21
ATOM     21  N   UNL     1      46.893   8.875  14.066  0.00  0.00    +0.000 N 
ATOM     22  H   UNL     1      46.502   9.713  14.498  0.00  0.00    +0.000 HD
BRANCH  21  26
ATOM     23  C   UNL     1      50.928   8.925  13.055  0.00  0.00    +0.000 A 
ATOM     24  C   UNL     1      50.056   9.602  12.218  0.00  0.00    +0.000 A 
ATOM     25  C   UNL     1      48.703   9.615  12.552  0.00  0.00    +0.000 A 
ATOM     26  C   UNL     1      48.243   8.993  13.720  0.00  0.00    +0.000 A 
ATOM     27  C   UNL     1      49.218   8.340  14.482  0.00  0.00    +0.000 A 
ATOM     28  N   UNL     1      50.542   8.288  14.192  0.00  0.00    +0.000 NA
BRANCH  23  30
ATOM     29  N   UNL     1      53.079   7.858  13.340  0.00  0.00    +0.000 N 
ATOM     30  C   UNL     1      52.379   8.839  12.694  0.00  0.00    +0.000 C 
ATOM     31  O   UNL     1      52.902   9.577  11.871  0.00  0.00    +0.000 OA
ATOM     32  H   UNL     1      54.051   7.710  13.120  0.00  0.00    +0.000 HD
ATOM     33  H   UNL     1      52.592   7.245  13.986  0.00  0.00    +0.000 HD
ENDBRANCH  23  30
ENDBRANCH  21  26
ENDBRANCH  20  21
ENDBRANCH   1  20
TORSDOF 7
ENDMDL
MODEL 9
REMARK VINA RESULT:    -6.637      3.296      4.677
REMARK INTER + INTRA:         -10.328
REMARK INTER:                  -9.290
REMARK INTRA:                  -1.038
REMARK UNBOUND:                -0.975
REMARK  Name = 
REMARK  7 active torsions:
REMARK  status: ('A' for Active; 'I' for Inactive)
REMARK    1  A    between atoms: C_2  and  C_4
REMARK    2  A    between atoms: C_7  and  N_8
REMARK    3  A    between atoms: N_8  and  C_9
REMARK    4  A    between atoms: C_9  and  C_10
REMARK    5  A    between atoms: C_10  and  C_13
REMARK    6  A    between atoms: C_17  and  O_18
REMARK    7  A    between atoms: O_18  and  C_19
REMARK                            x       y       z     vdW  Elec       q    Type
REMARK                         _______ _______ _______ _____ _____    ______ ____
ROOT
ATOM      1  C   UNL     1      48.242   8.091  12.757  0.00  0.00    +0.000 C 
ATOM      2  F   UNL     1      48.524   7.011  11.968  0.00  0.00    +0.000 F 
ATOM      3  F   UNL     1      49.095   9.076  12.334  0.00  0.00    +0.000 F 
ENDROOT
BRANCH   1   4
ATOM      4  C   UNL     1      48.461   7.772  14.233  0.00  0.00    +0.000 A 
ATOM      5  C   UNL     1      48.564   8.816  15.163  0.00  0.00    +0.000 A 
ATOM      6  C   UNL     1      48.714   8.540  16.528  0.00  0.00    +0.000 A 
ATOM      7  C   UNL     1      48.765   7.219  16.989  0.00  0.00    +0.000 A 
ATOM      8  C   UNL     1      48.680   6.180  16.075  0.00  0.00    +0.000 A 
ATOM      9  C   UNL     1      48.536   6.457  14.717  0.00  0.00    +0.000 A 
BRANCH   8  10
ATOM     10  O   UNL     1      48.661   4.843  16.367  0.00  0.00    +0.000 OA
BRANCH  10  11
ATOM     11  C   UNL     1      49.482   4.336  17.440  0.00  0.00    +0.000 C 
ATOM     12  C   UNL     1      51.011   4.452  17.291  0.00  0.00    +0.000 C 
ATOM     13  N   UNL     1      51.075   3.022  17.507  0.00  0.00    +0.000 N 
ATOM     14  C   UNL     1      52.114   2.255  17.906  0.00  0.00    +0.000 C 
ATOM     15  N   UNL     1      51.821   0.944  18.093  0.00  0.00    +0.000 N 
ATOM     16  O   UNL     1      53.245   2.676  18.107  0.00  0.00    +0.000 OA
ATOM     17  C   UNL     1      49.653   2.802  17.413  0.00  0.00    +0.000 C 
ATOM     18  H   UNL     1      51.142   0.534  17.470  0.00  0.00    +0.000 HD
ATOM     19  H   UNL     1      52.639   0.376  18.278  0.00  0.00    +0.000 HD
ENDBRANCH  10  11
ENDBRANCH   8  10
ENDBRANCH   1   4
BRANCH   1  20
ATOM     20  C   UNL     1      46.796   8.565  12.454  0.00  0.00    +0.000 C 
BRANCH  20  21
ATOM     21  N   UNL     1      45.729   7.899  13.216  0.00  0.00    +0.000 N 
ATOM     22  H   UNL     1      45.858   7.935  14.227  0.00  0.00    +0.000 HD
BRANCH  21  26
ATOM     23  C   UNL     1      44.398   4.321  11.562  0.00  0.00    +0.000 A 
ATOM     24  C   UNL     1      45.135   4.244  12.733  0.00  0.00    +0.000 A 
ATOM     25  C   UNL     1      45.570   5.433  13.314  0.00  0.00    +0.000 A 
ATOM     26  C   UNL     1      45.242   6.673  12.750  0.00  0.00    +0.000 A 
ATOM     27  C   UNL     1      44.498   6.623  11.567  0.00  0.00    +0.000 A 
ATOM     28  N   UNL     1      44.062   5.492  10.958  0.00  0.00    +0.000 NA
BRANCH  23  30
ATOM     29  N   UNL     1      43.330   2.155  11.682  0.00  0.00    +0.000 N 
ATOM     30  C   UNL     1      43.966   3.061  10.878  0.00  0.00    +0.000 C 
ATOM     31  O   UNL     1      44.150   2.858   9.686  0.00  0.00    +0.000 OA
ATOM     32  H   UNL     1      42.972   1.300  11.285  0.00  0.00    +0.000 HD
ATOM     33  H   UNL     1      43.166   2.386  12.655  0.00  0.00    +0.000 HD
ENDBRANCH  23  30
ENDBRANCH  21  26
ENDBRANCH  20  21
ENDBRANCH   1  20
TORSDOF 7
ENDMDL
