MODEL 1
REMARK VINA RESULT:    -7.938      0.000      0.000
REMARK INTER + INTRA:          -9.941
REMARK INTER:                  -9.562
REMARK INTRA:                  -0.379
REMARK UNBOUND:                -0.379
REMARK  Name = 
REMARK  4 active torsions:
REMARK  status: ('A' for Active; 'I' for Inactive)
REMARK    1  A    between atoms: N_1  and  C_2
REMARK    2  A    between atoms: C_2  and  C_3
REMARK    3  A    between atoms: C_6  and  C_7
REMARK    4  A    between atoms: C_7  and  N_8
REMARK                            x       y       z     vdW  Elec       q    Type
REMARK                         _______ _______ _______ _____ _____    ______ ____
ROOT
ATOM      1  C   UNL     1      46.865   2.263   7.449  0.00  0.00    +0.000 A 
ATOM      2  C   UNL     1      45.977   1.636   8.325  0.00  0.00    +0.000 A 
ATOM      3  C   UNL     1      44.983   2.378   8.960  0.00  0.00    +0.000 A 
ATOM      4  C   UNL     1      44.905   3.750   8.722  0.00  0.00    +0.000 A 
ATOM      5  N   UNL     1      45.766   4.384   7.884  0.00  0.00    +0.000 NA
ATOM      6  C   UNL     1      46.709   3.631   7.267  0.00  0.00    +0.000 A 
ENDROOT
BRANCH   1   7
ATOM      7  C   UNL     1      47.959   1.500   6.757  0.00  0.00    +0.000 C 
BRANCH   7   8
ATOM      8  N   UNL     1      48.415   2.186   5.554  0.00  0.00    +0.000 NA
ATOM      9  H   UNL     1      48.236   3.184   5.647  0.00  0.00    +0.000 HD
ATOM     10  H   UNL     1      47.860   1.867   4.760  0.00  0.00    +0.000 HD
ENDBRANCH   7   8
ENDBRANCH   1   7
BRANCH   4  11
ATOM     11  C   UNL     1      43.906   4.596   9.467  0.00  0.00    +0.000 C 
BRANCH  11  12
ATOM     12  N   UNL     1      44.001   4.460  10.915  0.00  0.00    +0.000 N 
ATOM     13  C   UNL     1      43.203   3.628  11.672  0.00  0.00    +0.000 A 
ATOM     14  C   UNL     1      43.731   3.571  12.944  0.00  0.00    +0.000 A 
ATOM     15  C   UNL     1      44.883   4.391  12.963  0.00  0.00    +0.000 A 
ATOM     16  N   UNL     1      45.746   4.613  13.983  0.00  0.00    +0.000 NA
ATOM     17  C   UNL     1      46.768   5.443  13.687  0.00  0.00    +0.000 A 
ATOM     18  C   UNL     1      46.972   6.070  12.467  0.00  0.00    +0.000 A 
ATOM     19  C   UNL     1      46.077   5.840  11.426  0.00  0.00    +0.000 A 
ATOM     20  C   UNL     1      45.022   4.962  11.699  0.00  0.00    +0.000 A 
ENDBRANCH  11  12
ENDBRANCH   4  11
TORSDOF 4
ENDMDL
MODEL 2
REMARK VINA RESULT:    -7.400      1.117      1.747
REMARK INTER + INTRA:          -9.293
REMARK INTER:                  -8.907
REMARK INTRA:                  -0.385
REMARK UNBOUND:                -0.379
REMARK  Name = 
REMARK  4 active torsions:
REMARK  status: ('A' for Active; 'I' for Inactive)
REMARK    1  A    between atoms: N_1  and  C_2
REMARK    2  A    between atoms: C_2  and  C_3
REMARK    3  A    between atoms: C_6  and  C_7
REMARK    4  A    between atoms: C_7  and  N_8
REMARK                            x       y       z     vdW  Elec       q    Type
REMARK                         _______ _______ _______ _____ _____    ______ ____
ROOT
ATOM      1  C   UNL     1      46.476   2.421   7.536  0.00  0.00    +0.000 A 
ATOM      2  C   UNL     1      45.726   1.697   8.465  0.00  0.00    +0.000 A 
ATOM      3  C   UNL     1      44.879   2.365   9.348  0.00  0.00    +0.000 A 
ATOM      4  C   UNL     1      44.811   3.756   9.300  0.00  0.00    +0.000 A 
ATOM      5  N   UNL     1      45.540   4.482   8.414  0.00  0.00    +0.000 NA
ATOM      6  C   UNL     1      46.340   3.803   7.555  0.00  0.00    +0.000 A 
ENDROOT
BRANCH   1   7
ATOM      7  C   UNL     1      47.411   1.740   6.576  0.00  0.00    +0.000 C 
BRANCH   7   8
ATOM      8  N   UNL     1      48.610   2.533   6.339  0.00  0.00    +0.000 NA
ATOM      9  H   UNL     1      49.186   2.072   5.637  0.00  0.00    +0.000 HD
ATOM     10  H   UNL     1      49.167   2.558   7.194  0.00  0.00    +0.000 HD
ENDBRANCH   7   8
ENDBRANCH   1   7
BRANCH   4  11
ATOM     11  C   UNL     1      43.981   4.512  10.305  0.00  0.00    +0.000 C 
BRANCH  11  12
ATOM     12  N   UNL     1      44.779   5.316  11.224  0.00  0.00    +0.000 N 
ATOM     13  C   UNL     1      44.684   6.687  11.340  0.00  0.00    +0.000 A 
ATOM     14  C   UNL     1      45.394   7.070  12.459  0.00  0.00    +0.000 A 
ATOM     15  C   UNL     1      45.936   5.900  13.040  0.00  0.00    +0.000 A 
ATOM     16  N   UNL     1      46.671   5.780  14.170  0.00  0.00    +0.000 NA
ATOM     17  C   UNL     1      47.034   4.517  14.477  0.00  0.00    +0.000 A 
ATOM     18  C   UNL     1      46.732   3.387  13.731  0.00  0.00    +0.000 A 
ATOM     19  C   UNL     1      45.979   3.520  12.567  0.00  0.00    +0.000 A 
ATOM     20  C   UNL     1      45.568   4.817  12.242  0.00  0.00    +0.000 A 
ENDBRANCH  11  12
ENDBRANCH   4  11
TORSDOF 4
ENDMDL
MODEL 3
REMARK VINA RESULT:    -7.353      1.463      1.969
REMARK INTER + INTRA:          -9.236
REMARK INTER:                  -8.794
REMARK INTRA:                  -0.442
REMARK UNBOUND:                -0.379
REMARK  Name = 
REMARK  4 active torsions:
REMARK  status: ('A' for Active; 'I' for Inactive)
REMARK    1  A    between atoms: N_1  and  C_2
REMARK    2  A    between atoms: C_2  and  C_3
REMARK    3  A    between atoms: C_6  and  C_7
REMARK    4  A    between atoms: C_7  and  N_8
REMARK                            x       y       z     vdW  Elec       q    Type
REMARK                         _______ _______ _______ _____ _____    ______ ____
ROOT
ATOM      1  C   UNL     1      46.511   2.533   7.058  0.00  0.00    +0.000 A 
ATOM      2  C   UNL     1      45.995   3.809   7.292  0.00  0.00    +0.000 A 
ATOM      3  C   UNL     1      45.251   4.059   8.445  0.00  0.00    +0.000 A 
ATOM      4  C   UNL     1      45.018   3.016   9.340  0.00  0.00    +0.000 A 
ATOM      5  N   UNL     1      45.500   1.764   9.127  0.00  0.00    +0.000 NA
ATOM      6  C   UNL     1      46.235   1.557   8.007  0.00  0.00    +0.000 A 
ENDROOT
BRANCH   1   7
ATOM      7  C   UNL     1      47.305   2.220   5.821  0.00  0.00    +0.000 C 
BRANCH   7   8
ATOM      8  N   UNL     1      48.682   1.864   6.141  0.00  0.00    +0.000 NA
ATOM      9  H   UNL     1      49.129   2.644   6.620  0.00  0.00    +0.000 HD
ATOM     10  H   UNL     1      49.199   1.728   5.272  0.00  0.00    +0.000 HD
ENDBRANCH   7   8
ENDBRANCH   1   7
BRANCH   4  11
ATOM     11  C   UNL     1      44.137   3.229  10.544  0.00  0.00    +0.000 C 
BRANCH  11  12
ATOM     12  N   UNL     1      44.829   3.863  11.660  0.00  0.00    +0.000 N 
ATOM     13  C   UNL     1      45.631   3.192  12.559  0.00  0.00    +0.000 A 
ATOM     14  C   UNL     1      46.305   4.129  13.312  0.00  0.00    +0.000 A 
ATOM     15  C   UNL     1      45.903   5.407  12.859  0.00  0.00    +0.000 A 
ATOM     16  N   UNL     1      46.327   6.624  13.275  0.00  0.00    +0.000 NA
ATOM     17  C   UNL     1      45.762   7.669  12.634  0.00  0.00    +0.000 A 
ATOM     18  C   UNL     1      44.804   7.580  11.635  0.00  0.00    +0.000 A 
ATOM     19  C   UNL     1      44.370   6.325  11.217  0.00  0.00    +0.000 A 
ATOM     20  C   UNL     1      44.960   5.225  11.848  0.00  0.00    +0.000 A 
ENDBRANCH  11  12
ENDBRANCH   4  11
TORSDOF 4
ENDMDL
MODEL 4
REMARK VINA RESULT:    -7.208      1.324      1.733
REMARK INTER + INTRA:          -9.062
REMARK INTER:                  -8.644
REMARK INTRA:                  -0.417
REMARK UNBOUND:                -0.379
REMARK  Name = 
REMARK  4 active torsions:
REMARK  status: ('A' for Active; 'I' for Inactive)
REMARK    1  A    between atoms: N_1  and  C_2
REMARK    2  A    between atoms: C_2  and  C_3
REMARK    3  A    between atoms: C_6  and  C_7
REMARK    4  A    between atoms: C_7  and  N_8
REMARK                            x       y       z     vdW  Elec       q    Type
REMARK                         _______ _______ _______ _____ _____    ______ ____
ROOT
ATOM      1  C   UNL     1      46.287   2.790   7.529  0.00  0.00    +0.000 A 
ATOM      2  C   UNL     1      45.602   2.096   8.528  0.00  0.00    +0.000 A 
ATOM      3  C   UNL     1      44.957   2.796   9.545  0.00  0.00    +0.000 A 
ATOM      4  C   UNL     1      45.023   4.189   9.557  0.00  0.00    +0.000 A 
ATOM      5  N   UNL     1      45.693   4.884   8.603  0.00  0.00    +0.000 NA
ATOM      6  C   UNL     1      46.295   4.176   7.616  0.00  0.00    +0.000 A 
ENDROOT
BRANCH   1   7
ATOM      7  C   UNL     1      47.008   2.071   6.423  0.00  0.00    +0.000 C 
BRANCH   7   8
ATOM      8  N   UNL     1      48.076   1.225   6.938  0.00  0.00    +0.000 NA
ATOM      9  H   UNL     1      48.420   0.624   6.191  0.00  0.00    +0.000 HD
ATOM     10  H   UNL     1      47.694   0.604   7.652  0.00  0.00    +0.000 HD
ENDBRANCH   7   8
ENDBRANCH   1   7
BRANCH   4  11
ATOM     11  C   UNL     1      44.420   4.970  10.696  0.00  0.00    +0.000 C 
BRANCH  11  12
ATOM     12  N   UNL     1      45.264   5.002  11.884  0.00  0.00    +0.000 N 
ATOM     13  C   UNL     1      45.213   4.070  12.899  0.00  0.00    +0.000 A 
ATOM     14  C   UNL     1      46.302   4.271  13.720  0.00  0.00    +0.000 A 
ATOM     15  C   UNL     1      47.038   5.356  13.190  0.00  0.00    +0.000 A 
ATOM     16  N   UNL     1      48.201   5.888  13.635  0.00  0.00    +0.000 NA
ATOM     17  C   UNL     1      48.669   6.919  12.901  0.00  0.00    +0.000 A 
ATOM     18  C   UNL     1      48.053   7.457  11.781  0.00  0.00    +0.000 A 
ATOM     19  C   UNL     1      46.856   6.908  11.332  0.00  0.00    +0.000 A 
ATOM     20  C   UNL     1      46.363   5.820  12.061  0.00  0.00    +0.000 A 
ENDBRANCH  11  12
ENDBRANCH   4  11
TORSDOF 4
ENDMDL
MODEL 5
REMARK VINA RESULT:    -6.119      1.742      2.465
REMARK INTER + INTRA:          -7.749
REMARK INTER:                  -7.416
REMARK INTRA:                  -0.334
REMARK UNBOUND:                -0.379
REMARK  Name = 
REMARK  4 active torsions:
REMARK  status: ('A' for Active; 'I' for Inactive)
REMARK    1  A    between atoms: N_1  and  C_2
REMARK    2  A    between atoms: C_2  and  C_3
REMARK    3  A    between atoms: C_6  and  C_7
REMARK    4  A    between atoms: C_7  and  N_8
REMARK                            x       y       z     vdW  Elec       q    Type
REMARK                         _______ _______ _______ _____ _____    ______ ____
ROOT
ATOM      1  C   UNL     1      46.211   2.764   7.676  0.00  0.00    +0.000 A 
ATOM      2  C   UNL     1      46.203   4.155   7.790  0.00  0.00    +0.000 A 
ATOM      3  C   UNL     1      45.604   4.761   8.894  0.00  0.00    +0.000 A 
ATOM      4  C   UNL     1      45.002   3.959   9.862  0.00  0.00    +0.000 A 
ATOM      5  N   UNL     1      44.985   2.604   9.766  0.00  0.00    +0.000 NA
ATOM      6  C   UNL     1      45.593   2.044   8.691  0.00  0.00    +0.000 A 
ENDROOT
BRANCH   1   7
ATOM      7  C   UNL     1      46.833   2.074   6.495  0.00  0.00    +0.000 C 
BRANCH   7   8
ATOM      8  N   UNL     1      47.952   1.230   6.892  0.00  0.00    +0.000 NA
ATOM      9  H   UNL     1      48.009   1.202   7.909  0.00  0.00    +0.000 HD
ATOM     10  H   UNL     1      48.821   1.657   6.569  0.00  0.00    +0.000 HD
ENDBRANCH   7   8
ENDBRANCH   1   7
BRANCH   4  11
ATOM     11  C   UNL     1      44.261   4.585  11.016  0.00  0.00    +0.000 C 
BRANCH  11  12
ATOM     12  N   UNL     1      44.762   5.907  11.373  0.00  0.00    +0.000 N 
ATOM     13  C   UNL     1      44.103   7.087  11.099  0.00  0.00    +0.000 A 
ATOM     14  C   UNL     1      44.735   8.099  11.789  0.00  0.00    +0.000 A 
ATOM     15  C   UNL     1      45.810   7.520  12.502  0.00  0.00    +0.000 A 
ATOM     16  N   UNL     1      46.686   8.117  13.345  0.00  0.00    +0.000 NA
ATOM     17  C   UNL     1      47.601   7.288  13.890  0.00  0.00    +0.000 A 
ATOM     18  C   UNL     1      47.708   5.928  13.639  0.00  0.00    +0.000 A 
ATOM     19  C   UNL     1      46.806   5.323  12.768  0.00  0.00    +0.000 A 
ATOM     20  C   UNL     1      45.832   6.157  12.210  0.00  0.00    +0.000 A 
ENDBRANCH  11  12
ENDBRANCH   4  11
TORSDOF 4
ENDMDL
MODEL 6
REMARK VINA RESULT:    -6.067      1.382      6.064
REMARK INTER + INTRA:          -7.687
REMARK INTER:                  -7.303
REMARK INTRA:                  -0.383
REMARK UNBOUND:                -0.379
REMARK  Name = 
REMARK  4 active torsions:
REMARK  status: ('A' for Active; 'I' for Inactive)
REMARK    1  A    between atoms: N_1  and  C_2
REMARK    2  A    between atoms: C_2  and  C_3
REMARK    3  A    between atoms: C_6  and  C_7
REMARK    4  A    between atoms: C_7  and  N_8
REMARK                            x       y       z     vdW  Elec       q    Type
REMARK                         _______ _______ _______ _____ _____    ______ ____
ROOT
ATOM      1  C   UNL     1      46.365   4.521  13.518  0.00  0.00    +0.000 A 
ATOM      2  C   UNL     1      46.142   5.637  12.711  0.00  0.00    +0.000 A 
ATOM      3  C   UNL     1      45.453   5.500  11.507  0.00  0.00    +0.000 A 
ATOM      4  C   UNL     1      45.013   4.236  11.118  0.00  0.00    +0.000 A 
ATOM      5  N   UNL     1      45.230   3.133  11.881  0.00  0.00    +0.000 NA
ATOM      6  C   UNL     1      45.886   3.302  13.055  0.00  0.00    +0.000 A 
ENDROOT
BRANCH   1   7
ATOM      7  C   UNL     1      47.116   4.624  14.816  0.00  0.00    +0.000 C 
BRANCH   7   8
ATOM      8  N   UNL     1      47.603   3.325  15.261  0.00  0.00    +0.000 NA
ATOM      9  H   UNL     1      48.363   3.459  15.926  0.00  0.00    +0.000 HD
ATOM     10  H   UNL     1      48.004   2.829  14.465  0.00  0.00    +0.000 HD
ENDBRANCH   7   8
ENDBRANCH   1   7
BRANCH   4  11
ATOM     11  C   UNL     1      44.353   4.038   9.779  0.00  0.00    +0.000 C 
BRANCH  11  12
ATOM     12  N   UNL     1      45.304   3.845   8.690  0.00  0.00    +0.000 N 
ATOM     13  C   UNL     1      46.009   4.863   8.084  0.00  0.00    +0.000 A 
ATOM     14  C   UNL     1      46.977   4.295   7.285  0.00  0.00    +0.000 A 
ATOM     15  C   UNL     1      46.860   2.891   7.407  0.00  0.00    +0.000 A 
ATOM     16  N   UNL     1      47.620   1.925   6.838  0.00  0.00    +0.000 NA
ATOM     17  C   UNL     1      47.266   0.664   7.161  0.00  0.00    +0.000 A 
ATOM     18  C   UNL     1      46.209   0.308   7.986  0.00  0.00    +0.000 A 
ATOM     19  C   UNL     1      45.429   1.307   8.563  0.00  0.00    +0.000 A 
ATOM     20  C   UNL     1      45.793   2.625   8.265  0.00  0.00    +0.000 A 
ENDBRANCH  11  12
ENDBRANCH   4  11
TORSDOF 4
ENDMDL
MODEL 7
REMARK VINA RESULT:    -5.884      2.212      6.007
REMARK INTER + INTRA:          -7.467
REMARK INTER:                  -7.191
REMARK INTRA:                  -0.276
REMARK UNBOUND:                -0.379
REMARK  Name = 
REMARK  4 active torsions:
REMARK  status: ('A' for Active; 'I' for Inactive)
REMARK    1  A    between atoms: N_1  and  C_2
REMARK    2  A    between atoms: C_2  and  C_3
REMARK    3  A    between atoms: C_6  and  C_7
REMARK    4  A    between atoms: C_7  and  N_8
REMARK                            x       y       z     vdW  Elec       q    Type
REMARK                         _______ _______ _______ _____ _____    ______ ____
ROOT
ATOM      1  C   UNL     1      47.417   7.927  13.609  0.00  0.00    +0.000 A 
ATOM      2  C   UNL     1      47.430   6.600  13.178  0.00  0.00    +0.000 A 
ATOM      3  C   UNL     1      46.369   6.100  12.425  0.00  0.00    +0.000 A 
ATOM      4  C   UNL     1      45.295   6.938  12.130  0.00  0.00    +0.000 A 
ATOM      5  N   UNL     1      45.253   8.229  12.550  0.00  0.00    +0.000 NA
ATOM      6  C   UNL     1      46.309   8.691  13.263  0.00  0.00    +0.000 A 
ENDROOT
BRANCH   1   7
ATOM      7  C   UNL     1      48.535   8.499  14.435  0.00  0.00    +0.000 C 
BRANCH   7   8
ATOM      8  N   UNL     1      48.258   8.394  15.862  0.00  0.00    +0.000 NA
ATOM      9  H   UNL     1      48.393   7.430  16.162  0.00  0.00    +0.000 HD
ATOM     10  H   UNL     1      47.274   8.610  16.026  0.00  0.00    +0.000 HD
ENDBRANCH   7   8
ENDBRANCH   1   7
BRANCH   4  11
ATOM     11  C   UNL     1      44.089   6.402  11.404  0.00  0.00    +0.000 C 
BRANCH  11  12
ATOM     12  N   UNL     1      44.107   4.952  11.248  0.00  0.00    +0.000 N 
ATOM     13  C   UNL     1      43.420   4.074  12.060  0.00  0.00    +0.000 A 
ATOM     14  C   UNL     1      43.467   2.826  11.476  0.00  0.00    +0.000 A 
ATOM     15  C   UNL     1      44.204   2.947  10.274  0.00  0.00    +0.000 A 
ATOM     16  N   UNL     1      44.477   1.995   9.350  0.00  0.00    +0.000 NA
ATOM     17  C   UNL     1      45.196   2.425   8.293  0.00  0.00    +0.000 A 
ATOM     18  C   UNL     1      45.669   3.715   8.109  0.00  0.00    +0.000 A 
ATOM     19  C   UNL     1      45.388   4.686   9.066  0.00  0.00    +0.000 A 
ATOM     20  C   UNL     1      44.620   4.273  10.160  0.00  0.00    +0.000 A 
ENDBRANCH  11  12
ENDBRANCH   4  11
TORSDOF 4
ENDMDL
MODEL 8
REMARK VINA RESULT:    -5.392      3.698      7.227
REMARK INTER + INTRA:          -6.874
REMARK INTER:                  -6.502
REMARK INTRA:                  -0.372
REMARK UNBOUND:                -0.379
REMARK  Name = 
REMARK  4 active torsions:
REMARK  status: ('A' for Active; 'I' for Inactive)
REMARK    1  A    between atoms: N_1  and  C_2
REMARK    2  A    between atoms: C_2  and  C_3
REMARK    3  A    between atoms: C_6  and  C_7
REMARK    4  A    between atoms: C_7  and  N_8
REMARK                            x       y       z     vdW  Elec       q    Type
REMARK                         _______ _______ _______ _____ _____    ______ ____
ROOT
ATOM      1  C   UNL     1      48.148   4.861  17.462  0.00  0.00    +0.000 A 
ATOM      2  C   UNL     1      47.328   4.003  16.727  0.00  0.00    +0.000 A 
ATOM      3  C   UNL     1      47.188   4.181  15.352  0.00  0.00    +0.000 A 
ATOM      4  C   UNL     1      47.860   5.234  14.733  0.00  0.00    +0.000 A 
ATOM      5  N   UNL     1      48.653   6.089  15.429  0.00  0.00    +0.000 NA
ATOM      6  C   UNL     1      48.785   5.878  16.762  0.00  0.00    +0.000 A 
ENDROOT
BRANCH   1   7
ATOM      7  C   UNL     1      48.314   4.711  18.948  0.00  0.00    +0.000 C 
BRANCH   7   8
ATOM      8  N   UNL     1      48.281   3.312  19.355  0.00  0.00    +0.000 NA
ATOM      9  H   UNL     1      48.534   3.241  20.339  0.00  0.00    +0.000 HD
ATOM     10  H   UNL     1      48.996   2.799  18.838  0.00  0.00    +0.000 HD
ENDBRANCH   7   8
ENDBRANCH   1   7
BRANCH   4  11
ATOM     11  C   UNL     1      47.652   5.513  13.267  0.00  0.00    +0.000 C 
BRANCH  11  12
ATOM     12  N   UNL     1      46.286   5.908  12.943  0.00  0.00    +0.000 N 
ATOM     13  C   UNL     1      45.856   7.214  12.851  0.00  0.00    +0.000 A 
ATOM     14  C   UNL     1      44.596   7.211  12.293  0.00  0.00    +0.000 A 
ATOM     15  C   UNL     1      44.248   5.864  12.038  0.00  0.00    +0.000 A 
ATOM     16  N   UNL     1      43.124   5.375  11.462  0.00  0.00    +0.000 NA
ATOM     17  C   UNL     1      43.090   4.032  11.340  0.00  0.00    +0.000 A 
ATOM     18  C   UNL     1      44.079   3.158  11.766  0.00  0.00    +0.000 A 
ATOM     19  C   UNL     1      45.229   3.668  12.361  0.00  0.00    +0.000 A 
ATOM     20  C   UNL     1      45.301   5.061  12.475  0.00  0.00    +0.000 A 
ENDBRANCH  11  12
ENDBRANCH   4  11
TORSDOF 4
ENDMDL
MODEL 9
REMARK VINA RESULT:    -5.357      2.542      4.118
REMARK INTER + INTRA:          -6.831
REMARK INTER:                  -6.476
REMARK INTRA:                  -0.355
REMARK UNBOUND:                -0.379
REMARK  Name = 
REMARK  4 active torsions:
REMARK  status: ('A' for Active; 'I' for Inactive)
REMARK    1  A    between atoms: N_1  and  C_2
REMARK    2  A    between atoms: C_2  and  C_3
REMARK    3  A    between atoms: C_6  and  C_7
REMARK    4  A    between atoms: C_7  and  N_8
REMARK                            x       y       z     vdW  Elec       q    Type
REMARK                         _______ _______ _______ _____ _____    ______ ____
ROOT
ATOM      1  C   UNL     1      44.475   3.191   9.808  0.00  0.00    +0.000 A 
ATOM      2  C   UNL     1      44.035   2.836  11.084  0.00  0.00    +0.000 A 
ATOM      3  C   UNL     1      44.037   3.781  12.110  0.00  0.00    +0.000 A 
ATOM      4  C   UNL     1      44.501   5.068  11.844  0.00  0.00    +0.000 A 
ATOM      5  N   UNL     1      44.946   5.432  10.613  0.00  0.00    +0.000 NA
ATOM      6  C   UNL     1      44.913   4.497   9.632  0.00  0.00    +0.000 A 
ENDROOT
BRANCH   1   7
ATOM      7  C   UNL     1      44.502   2.198   8.680  0.00  0.00    +0.000 C 
BRANCH   7   8
ATOM      8  N   UNL     1      45.600   1.250   8.824  0.00  0.00    +0.000 NA
ATOM      9  H   UNL     1      46.400   1.721   9.242  0.00  0.00    +0.000 HD
ATOM     10  H   UNL     1      45.898   0.944   7.897  0.00  0.00    +0.000 HD
ENDBRANCH   7   8
ENDBRANCH   1   7
BRANCH   4  11
ATOM     11  C   UNL     1      44.608   6.083  12.952  0.00  0.00    +0.000 C 
BRANCH  11  12
ATOM     12  N   UNL     1      45.931   6.689  13.054  0.00  0.00    +0.000 N 
ATOM     13  C   UNL     1      47.088   5.988  13.318  0.00  0.00    +0.000 A 
ATOM     14  C   UNL     1      48.157   6.830  13.096  0.00  0.00    +0.000 A 
ATOM     15  C   UNL     1      47.636   8.079  12.685  0.00  0.00    +0.000 A 
ATOM     16  N   UNL     1      48.308   9.197  12.322  0.00  0.00    +0.000 NA
ATOM     17  C   UNL     1      47.524  10.235  11.962  0.00  0.00    +0.000 A 
ATOM     18  C   UNL     1      46.137  10.236  11.959  0.00  0.00    +0.000 A 
ATOM     19  C   UNL     1      45.455   9.083  12.339  0.00  0.00    +0.000 A 
ATOM     20  C   UNL     1      46.245   7.984  12.691  0.00  0.00    +0.000 A 
ENDBRANCH  11  12
ENDBRANCH   4  11
TORSDOF 4
ENDMDL
