MODEL 1
REMARK VINA RESULT:    -8.372      0.000      0.000
REMARK INTER + INTRA:         -11.145
REMARK INTER:                 -10.574
REMARK INTRA:                  -0.571
REMARK UNBOUND:                -0.571
REMARK  Name = 
REMARK  5 active torsions:
REMARK  status: ('A' for Active; 'I' for Inactive)
REMARK    1  A    between atoms: N_1  and  C_2
REMARK    2  A    between atoms: C_2  and  C_3
REMARK    3  A    between atoms: C_6  and  C_7
REMARK    4  A    between atoms: C_7  and  N_8
REMARK    5  A    between atoms: C_13  and  C_14
REMARK                            x       y       z     vdW  Elec       q    Type
REMARK                         _______ _______ _______ _____ _____    ______ ____
ROOT
ATOM      1  N   UNL     1      44.260   4.320  11.240  0.00  0.00    +0.000 N 
ATOM      2  C   UNL     1      43.801   3.546  12.270  0.00  0.00    +0.000 A 
ATOM      3  N   UNL     1      44.436   3.805  13.392  0.00  0.00    +0.000 NA
ATOM      4  C   UNL     1      45.347   4.780  13.074  0.00  0.00    +0.000 A 
ATOM      5  C   UNL     1      46.310   5.393  13.892  0.00  0.00    +0.000 A 
ATOM      6  C   UNL     1      47.155   6.364  13.331  0.00  0.00    +0.000 A 
ATOM      7  C   UNL     1      47.007   6.725  11.980  0.00  0.00    +0.000 A 
ATOM      8  C   UNL     1      46.046   6.130  11.155  0.00  0.00    +0.000 A 
ATOM      9  C   UNL     1      45.245   5.143  11.734  0.00  0.00    +0.000 A 
ENDROOT
BRANCH   6  10
ATOM     10  C   UNL     1      48.239   7.035  14.106  0.00  0.00    +0.000 C 
ATOM     11  N   UNL     1      47.910   8.070  14.936  0.00  0.00    +0.000 N 
ATOM     12  O   UNL     1      49.405   6.674  14.016  0.00  0.00    +0.000 OA
ATOM     13  H   UNL     1      46.983   8.435  15.079  0.00  0.00    +0.000 HD
ATOM     14  H   UNL     1      48.669   8.493  15.457  0.00  0.00    +0.000 HD
ENDBRANCH   6  10
BRANCH   1  15
ATOM     15  C   UNL     1      43.860   4.187   9.847  0.00  0.00    +0.000 C 
BRANCH  15  19
ATOM     16  C   UNL     1      46.641   1.981   7.478  0.00  0.00    +0.000 A 
ATOM     17  C   UNL     1      46.524   3.348   7.240  0.00  0.00    +0.000 A 
ATOM     18  C   UNL     1      45.647   4.100   8.017  0.00  0.00    +0.000 A 
ATOM     19  C   UNL     1      44.872   3.473   8.995  0.00  0.00    +0.000 A 
ATOM     20  C   UNL     1      45.103   2.115   9.200  0.00  0.00    +0.000 A 
ATOM     21  N   UNL     1      45.958   1.362   8.470  0.00  0.00    +0.000 NA
BRANCH  16  22
ATOM     22  C   UNL     1      47.526   1.132   6.591  0.00  0.00    +0.000 C 
BRANCH  22  23
ATOM     23  N   UNL     1      48.528   1.914   5.861  0.00  0.00    +0.000 NA
ATOM     24  H   UNL     1      48.043   2.544   5.223  0.00  0.00    +0.000 HD
ATOM     25  H   UNL     1      49.058   1.272   5.272  0.00  0.00    +0.000 HD
ENDBRANCH  22  23
ENDBRANCH  16  22
ENDBRANCH  15  19
ENDBRANCH   1  15
TORSDOF 5
ENDMDL
MODEL 2
REMARK VINA RESULT:    -7.691      1.744      2.404
REMARK INTER + INTRA:         -10.285
REMARK INTER:                  -9.764
REMARK INTRA:                  -0.520
REMARK UNBOUND:                -0.571
REMARK  Name = 
REMARK  5 active torsions:
REMARK  status: ('A' for Active; 'I' for Inactive)
REMARK    1  A    between atoms: N_1  and  C_2
REMARK    2  A    between atoms: C_2  and  C_3
REMARK    3  A    between atoms: C_6  and  C_7
REMARK    4  A    between atoms: C_7  and  N_8
REMARK    5  A    between atoms: C_13  and  C_14
REMARK                            x       y       z     vdW  Elec       q    Type
REMARK                         _______ _______ _______ _____ _____    ______ ____
ROOT
ATOM      1  N   UNL     1      44.597   5.302  11.101  0.00  0.00    +0.000 N 
ATOM      2  C   UNL     1      44.507   6.661  11.224  0.00  0.00    +0.000 A 
ATOM      3  N   UNL     1      45.156   7.097  12.281  0.00  0.00    +0.000 NA
ATOM      4  C   UNL     1      45.681   5.974  12.870  0.00  0.00    +0.000 A 
ATOM      5  C   UNL     1      46.430   5.863  14.052  0.00  0.00    +0.000 A 
ATOM      6  C   UNL     1      46.846   4.590  14.472  0.00  0.00    +0.000 A 
ATOM      7  C   UNL     1      46.535   3.460  13.696  0.00  0.00    +0.000 A 
ATOM      8  C   UNL     1      45.796   3.556  12.511  0.00  0.00    +0.000 A 
ATOM      9  C   UNL     1      45.367   4.832  12.140  0.00  0.00    +0.000 A 
ENDROOT
BRANCH   6  10
ATOM     10  C   UNL     1      47.605   4.365  15.738  0.00  0.00    +0.000 C 
ATOM     11  N   UNL     1      47.145   3.429  16.622  0.00  0.00    +0.000 N 
ATOM     12  O   UNL     1      48.623   4.994  15.992  0.00  0.00    +0.000 OA
ATOM     13  H   UNL     1      46.323   2.861  16.500  0.00  0.00    +0.000 HD
ATOM     14  H   UNL     1      47.692   3.293  17.463  0.00  0.00    +0.000 HD
ENDBRANCH   6  10
BRANCH   1  15
ATOM     15  C   UNL     1      43.884   4.498  10.119  0.00  0.00    +0.000 C 
BRANCH  15  19
ATOM     16  C   UNL     1      46.563   2.419   7.529  0.00  0.00    +0.000 A 
ATOM     17  C   UNL     1      45.770   1.662   8.388  0.00  0.00    +0.000 A 
ATOM     18  C   UNL     1      44.864   2.311   9.223  0.00  0.00    +0.000 A 
ATOM     19  C   UNL     1      44.788   3.705   9.218  0.00  0.00    +0.000 A 
ATOM     20  C   UNL     1      45.577   4.370   8.283  0.00  0.00    +0.000 A 
ATOM     21  N   UNL     1      46.455   3.766   7.450  0.00  0.00    +0.000 NA
BRANCH  16  22
ATOM     22  C   UNL     1      47.611   1.740   6.673  0.00  0.00    +0.000 C 
BRANCH  22  23
ATOM     23  N   UNL     1      48.708   2.634   6.292  0.00  0.00    +0.000 NA
ATOM     24  H   UNL     1      49.396   2.639   7.044  0.00  0.00    +0.000 HD
ATOM     25  H   UNL     1      48.337   3.583   6.245  0.00  0.00    +0.000 HD
ENDBRANCH  22  23
ENDBRANCH  16  22
ENDBRANCH  15  19
ENDBRANCH   1  15
TORSDOF 5
ENDMDL
MODEL 3
REMARK VINA RESULT:    -7.678      2.574      6.637
REMARK INTER + INTRA:         -10.269
REMARK INTER:                  -9.810
REMARK INTRA:                  -0.460
REMARK UNBOUND:                -0.571
REMARK  Name = 
REMARK  5 active torsions:
REMARK  status: ('A' for Active; 'I' for Inactive)
REMARK    1  A    between atoms: N_1  and  C_2
REMARK    2  A    between atoms: C_2  and  C_3
REMARK    3  A    between atoms: C_6  and  C_7
REMARK    4  A    between atoms: C_7  and  N_8
REMARK    5  A    between atoms: C_13  and  C_14
REMARK                            x       y       z     vdW  Elec       q    Type
REMARK                         _______ _______ _______ _____ _____    ______ ____
ROOT
ATOM      1  N   UNL     1      43.944   4.318  10.575  0.00  0.00    +0.000 N 
ATOM      2  C   UNL     1      43.410   3.169  11.090  0.00  0.00    +0.000 A 
ATOM      3  N   UNL     1      43.894   2.100  10.497  0.00  0.00    +0.000 NA
ATOM      4  C   UNL     1      44.771   2.576   9.555  0.00  0.00    +0.000 A 
ATOM      5  C   UNL     1      45.533   1.864   8.616  0.00  0.00    +0.000 A 
ATOM      6  C   UNL     1      46.355   2.579   7.730  0.00  0.00    +0.000 A 
ATOM      7  C   UNL     1      46.423   3.981   7.815  0.00  0.00    +0.000 A 
ATOM      8  C   UNL     1      45.676   4.703   8.752  0.00  0.00    +0.000 A 
ATOM      9  C   UNL     1      44.842   3.965   9.595  0.00  0.00    +0.000 A 
ENDROOT
BRANCH   6  10
ATOM     10  C   UNL     1      47.164   1.916   6.666  0.00  0.00    +0.000 C 
ATOM     11  N   UNL     1      47.903   2.695   5.820  0.00  0.00    +0.000 N 
ATOM     12  O   UNL     1      47.181   0.698   6.544  0.00  0.00    +0.000 OA
ATOM     13  H   UNL     1      47.956   3.700   5.845  0.00  0.00    +0.000 HD
ATOM     14  H   UNL     1      48.452   2.210   5.120  0.00  0.00    +0.000 HD
ENDBRANCH   6  10
BRANCH   1  15
ATOM     15  C   UNL     1      43.522   5.668  10.919  0.00  0.00    +0.000 C 
BRANCH  15  19
ATOM     16  C   UNL     1      46.580   7.722  13.071  0.00  0.00    +0.000 A 
ATOM     17  C   UNL     1      45.807   8.459  12.178  0.00  0.00    +0.000 A 
ATOM     18  C   UNL     1      44.781   7.823  11.484  0.00  0.00    +0.000 A 
ATOM     19  C   UNL     1      44.565   6.454  11.661  0.00  0.00    +0.000 A 
ATOM     20  C   UNL     1      45.350   5.817  12.619  0.00  0.00    +0.000 A 
ATOM     21  N   UNL     1      46.344   6.412  13.318  0.00  0.00    +0.000 NA
BRANCH  16  22
ATOM     22  C   UNL     1      47.752   8.375  13.773  0.00  0.00    +0.000 C 
BRANCH  22  23
ATOM     23  N   UNL     1      47.382   9.003  15.045  0.00  0.00    +0.000 NA
ATOM     24  H   UNL     1      47.264   8.271  15.743  0.00  0.00    +0.000 HD
ATOM     25  H   UNL     1      46.464   9.431  14.927  0.00  0.00    +0.000 HD
ENDBRANCH  22  23
ENDBRANCH  16  22
ENDBRANCH  15  19
ENDBRANCH   1  15
TORSDOF 5
ENDMDL
MODEL 4
REMARK VINA RESULT:    -6.631      1.891      2.420
REMARK INTER + INTRA:          -8.947
REMARK INTER:                  -8.432
REMARK INTRA:                  -0.514
REMARK UNBOUND:                -0.571
REMARK  Name = 
REMARK  5 active torsions:
REMARK  status: ('A' for Active; 'I' for Inactive)
REMARK    1  A    between atoms: N_1  and  C_2
REMARK    2  A    between atoms: C_2  and  C_3
REMARK    3  A    between atoms: C_6  and  C_7
REMARK    4  A    between atoms: C_7  and  N_8
REMARK    5  A    between atoms: C_13  and  C_14
REMARK                            x       y       z     vdW  Elec       q    Type
REMARK                         _______ _______ _______ _____ _____    ______ ____
ROOT
ATOM      1  N   UNL     1      45.559   4.850  12.687  0.00  0.00    +0.000 N 
ATOM      2  C   UNL     1      46.432   3.968  13.262  0.00  0.00    +0.000 A 
ATOM      3  N   UNL     1      47.399   4.589  13.899  0.00  0.00    +0.000 NA
ATOM      4  C   UNL     1      47.147   5.926  13.724  0.00  0.00    +0.000 A 
ATOM      5  C   UNL     1      47.891   7.033  14.163  0.00  0.00    +0.000 A 
ATOM      6  C   UNL     1      47.439   8.322  13.842  0.00  0.00    +0.000 A 
ATOM      7  C   UNL     1      46.245   8.486  13.118  0.00  0.00    +0.000 A 
ATOM      8  C   UNL     1      45.488   7.393  12.681  0.00  0.00    +0.000 A 
ATOM      9  C   UNL     1      45.983   6.123  12.986  0.00  0.00    +0.000 A 
ENDROOT
BRANCH   6  10
ATOM     10  C   UNL     1      48.186   9.558  14.222  0.00  0.00    +0.000 C 
ATOM     11  N   UNL     1      48.266  10.581  13.320  0.00  0.00    +0.000 N 
ATOM     12  O   UNL     1      48.716   9.670  15.320  0.00  0.00    +0.000 OA
ATOM     13  H   UNL     1      47.861  10.583  12.398  0.00  0.00    +0.000 HD
ATOM     14  H   UNL     1      48.769  11.409  13.617  0.00  0.00    +0.000 HD
ENDBRANCH   6  10
BRANCH   1  15
ATOM     15  C   UNL     1      44.460   4.488  11.803  0.00  0.00    +0.000 C 
BRANCH  15  19
ATOM     16  C   UNL     1      45.839   3.466   7.896  0.00  0.00    +0.000 A 
ATOM     17  C   UNL     1      45.265   2.459   8.668  0.00  0.00    +0.000 A 
ATOM     18  C   UNL     1      44.777   2.769   9.934  0.00  0.00    +0.000 A 
ATOM     19  C   UNL     1      44.904   4.068  10.430  0.00  0.00    +0.000 A 
ATOM     20  C   UNL     1      45.437   5.019   9.563  0.00  0.00    +0.000 A 
ATOM     21  N   UNL     1      45.906   4.750   8.322  0.00  0.00    +0.000 NA
BRANCH  16  22
ATOM     22  C   UNL     1      46.449   3.134   6.551  0.00  0.00    +0.000 C 
BRANCH  22  23
ATOM     23  N   UNL     1      47.912   3.059   6.586  0.00  0.00    +0.000 NA
ATOM     24  H   UNL     1      48.194   2.121   6.307  0.00  0.00    +0.000 HD
ATOM     25  H   UNL     1      48.208   3.165   7.556  0.00  0.00    +0.000 HD
ENDBRANCH  22  23
ENDBRANCH  16  22
ENDBRANCH  15  19
ENDBRANCH   1  15
TORSDOF 5
ENDMDL
MODEL 5
REMARK VINA RESULT:    -6.080      4.249      7.465
REMARK INTER + INTRA:          -8.251
REMARK INTER:                  -7.786
REMARK INTRA:                  -0.464
REMARK UNBOUND:                -0.571
REMARK  Name = 
REMARK  5 active torsions:
REMARK  status: ('A' for Active; 'I' for Inactive)
REMARK    1  A    between atoms: N_1  and  C_2
REMARK    2  A    between atoms: C_2  and  C_3
REMARK    3  A    between atoms: C_6  and  C_7
REMARK    4  A    between atoms: C_7  and  N_8
REMARK    5  A    between atoms: C_13  and  C_14
REMARK                            x       y       z     vdW  Elec       q    Type
REMARK                         _______ _______ _______ _____ _____    ______ ____
ROOT
ATOM      1  N   UNL     1      47.314   5.147  15.128  0.00  0.00    +0.000 N 
ATOM      2  C   UNL     1      48.333   6.032  14.904  0.00  0.00    +0.000 A 
ATOM      3  N   UNL     1      48.321   6.483  13.670  0.00  0.00    +0.000 NA
ATOM      4  C   UNL     1      47.257   5.860  13.068  0.00  0.00    +0.000 A 
ATOM      5  C   UNL     1      46.814   5.950  11.738  0.00  0.00    +0.000 A 
ATOM      6  C   UNL     1      45.699   5.193  11.345  0.00  0.00    +0.000 A 
ATOM      7  C   UNL     1      45.032   4.387  12.283  0.00  0.00    +0.000 A 
ATOM      8  C   UNL     1      45.457   4.294  13.613  0.00  0.00    +0.000 A 
ATOM      9  C   UNL     1      46.589   5.031  13.965  0.00  0.00    +0.000 A 
ENDROOT
BRANCH   6  10
ATOM     10  C   UNL     1      45.184   5.185   9.944  0.00  0.00    +0.000 C 
ATOM     11  N   UNL     1      43.858   4.929   9.733  0.00  0.00    +0.000 N 
ATOM     12  O   UNL     1      45.920   5.408   8.992  0.00  0.00    +0.000 OA
ATOM     13  H   UNL     1      43.176   4.739  10.449  0.00  0.00    +0.000 HD
ATOM     14  H   UNL     1      43.540   4.945   8.771  0.00  0.00    +0.000 HD
ENDBRANCH   6  10
BRANCH   1  15
ATOM     15  C   UNL     1      47.129   4.371  16.346  0.00  0.00    +0.000 C 
BRANCH  15  19
ATOM     16  C   UNL     1      50.555   2.002  17.271  0.00  0.00    +0.000 A 
ATOM     17  C   UNL     1      50.306   3.122  18.059  0.00  0.00    +0.000 A 
ATOM     18  C   UNL     1      49.179   3.897  17.801  0.00  0.00    +0.000 A 
ATOM     19  C   UNL     1      48.336   3.567  16.738  0.00  0.00    +0.000 A 
ATOM     20  C   UNL     1      48.633   2.396  16.046  0.00  0.00    +0.000 A 
ATOM     21  N   UNL     1      49.713   1.616  16.283  0.00  0.00    +0.000 NA
BRANCH  16  22
ATOM     22  C   UNL     1      51.817   1.193  17.482  0.00  0.00    +0.000 C 
BRANCH  22  23
ATOM     23  N   UNL     1      52.743   1.811  18.434  0.00  0.00    +0.000 NA
ATOM     24  H   UNL     1      52.206   2.169  19.222  0.00  0.00    +0.000 HD
ATOM     25  H   UNL     1      53.157   2.628  17.983  0.00  0.00    +0.000 HD
ENDBRANCH  22  23
ENDBRANCH  16  22
ENDBRANCH  15  19
ENDBRANCH   1  15
TORSDOF 5
ENDMDL
MODEL 6
REMARK VINA RESULT:    -5.753      4.368      6.968
REMARK INTER + INTRA:          -7.838
REMARK INTER:                  -7.287
REMARK INTRA:                  -0.551
REMARK UNBOUND:                -0.571
REMARK  Name = 
REMARK  5 active torsions:
REMARK  status: ('A' for Active; 'I' for Inactive)
REMARK    1  A    between atoms: N_1  and  C_2
REMARK    2  A    between atoms: C_2  and  C_3
REMARK    3  A    between atoms: C_6  and  C_7
REMARK    4  A    between atoms: C_7  and  N_8
REMARK    5  A    between atoms: C_13  and  C_14
REMARK                            x       y       z     vdW  Elec       q    Type
REMARK                         _______ _______ _______ _____ _____    ______ ____
ROOT
ATOM      1  N   UNL     1      46.972   4.829  14.777  0.00  0.00    +0.000 N 
ATOM      2  C   UNL     1      46.150   4.327  13.806  0.00  0.00    +0.000 A 
ATOM      3  N   UNL     1      46.279   4.984  12.674  0.00  0.00    +0.000 NA
ATOM      4  C   UNL     1      47.217   5.954  12.924  0.00  0.00    +0.000 A 
ATOM      5  C   UNL     1      47.700   6.958  12.071  0.00  0.00    +0.000 A 
ATOM      6  C   UNL     1      48.657   7.860  12.563  0.00  0.00    +0.000 A 
ATOM      7  C   UNL     1      49.132   7.729  13.880  0.00  0.00    +0.000 A 
ATOM      8  C   UNL     1      48.666   6.727  14.739  0.00  0.00    +0.000 A 
ATOM      9  C   UNL     1      47.689   5.868  14.231  0.00  0.00    +0.000 A 
ENDROOT
BRANCH   6  10
ATOM     10  C   UNL     1      49.195   8.990  11.749  0.00  0.00    +0.000 C 
ATOM     11  N   UNL     1      48.391  10.068  11.508  0.00  0.00    +0.000 N 
ATOM     12  O   UNL     1      50.335   8.968  11.304  0.00  0.00    +0.000 OA
ATOM     13  H   UNL     1      47.445  10.179  11.834  0.00  0.00    +0.000 HD
ATOM     14  H   UNL     1      48.794  10.822  10.964  0.00  0.00    +0.000 HD
ENDBRANCH   6  10
BRANCH   1  15
ATOM     15  C   UNL     1      46.974   4.414  16.172  0.00  0.00    +0.000 C 
BRANCH  15  19
ATOM     16  C   UNL     1      50.494   2.213  17.161  0.00  0.00    +0.000 A 
ATOM     17  C   UNL     1      50.300   3.443  17.783  0.00  0.00    +0.000 A 
ATOM     18  C   UNL     1      49.145   4.170  17.504  0.00  0.00    +0.000 A 
ATOM     19  C   UNL     1      48.220   3.680  16.581  0.00  0.00    +0.000 A 
ATOM     20  C   UNL     1      48.472   2.415  16.056  0.00  0.00    +0.000 A 
ATOM     21  N   UNL     1      49.577   1.679  16.320  0.00  0.00    +0.000 NA
BRANCH  16  22
ATOM     22  C   UNL     1      51.779   1.446  17.387  0.00  0.00    +0.000 C 
BRANCH  22  23
ATOM     23  N   UNL     1      51.585   0.214  18.158  0.00  0.00    +0.000 NA
ATOM     24  H   UNL     1      51.791   0.410  19.136  0.00  0.00    +0.000 HD
ATOM     25  H   UNL     1      52.287  -0.460  17.852  0.00  0.00    +0.000 HD
ENDBRANCH  22  23
ENDBRANCH  16  22
ENDBRANCH  15  19
ENDBRANCH   1  15
TORSDOF 5
ENDMDL
MODEL 7
REMARK VINA RESULT:    -5.721      3.332      6.744
REMARK INTER + INTRA:          -7.797
REMARK INTER:                  -7.250
REMARK INTRA:                  -0.546
REMARK UNBOUND:                -0.571
REMARK  Name = 
REMARK  5 active torsions:
REMARK  status: ('A' for Active; 'I' for Inactive)
REMARK    1  A    between atoms: N_1  and  C_2
REMARK    2  A    between atoms: C_2  and  C_3
REMARK    3  A    between atoms: C_6  and  C_7
REMARK    4  A    between atoms: C_7  and  N_8
REMARK    5  A    between atoms: C_13  and  C_14
REMARK                            x       y       z     vdW  Elec       q    Type
REMARK                         _______ _______ _______ _____ _____    ______ ____
ROOT
ATOM      1  N   UNL     1      47.347   6.212  13.748  0.00  0.00    +0.000 N 
ATOM      2  C   UNL     1      47.578   5.304  14.745  0.00  0.00    +0.000 A 
ATOM      3  N   UNL     1      46.980   4.158  14.505  0.00  0.00    +0.000 NA
ATOM      4  C   UNL     1      46.330   4.333  13.310  0.00  0.00    +0.000 A 
ATOM      5  C   UNL     1      45.505   3.438  12.611  0.00  0.00    +0.000 A 
ATOM      6  C   UNL     1      44.927   3.854  11.401  0.00  0.00    +0.000 A 
ATOM      7  C   UNL     1      45.202   5.138  10.898  0.00  0.00    +0.000 A 
ATOM      8  C   UNL     1      46.029   6.038  11.579  0.00  0.00    +0.000 A 
ATOM      9  C   UNL     1      46.560   5.607  12.797  0.00  0.00    +0.000 A 
ENDROOT
BRANCH   6  10
ATOM     10  C   UNL     1      43.999   2.992  10.611  0.00  0.00    +0.000 C 
ATOM     11  N   UNL     1      44.190   2.885   9.262  0.00  0.00    +0.000 N 
ATOM     12  O   UNL     1      43.084   2.381  11.148  0.00  0.00    +0.000 OA
ATOM     13  H   UNL     1      44.914   3.343   8.734  0.00  0.00    +0.000 HD
ATOM     14  H   UNL     1      43.550   2.280   8.760  0.00  0.00    +0.000 HD
ENDBRANCH   6  10
BRANCH   1  15
ATOM     15  C   UNL     1      47.755   7.609  13.775  0.00  0.00    +0.000 C 
BRANCH  15  19
ATOM     16  C   UNL     1      51.665   8.268  12.199  0.00  0.00    +0.000 A 
ATOM     17  C   UNL     1      50.633   8.026  11.297  0.00  0.00    +0.000 A 
ATOM     18  C   UNL     1      49.340   7.838  11.779  0.00  0.00    +0.000 A 
ATOM     19  C   UNL     1      49.101   7.856  13.155  0.00  0.00    +0.000 A 
ATOM     20  C   UNL     1      50.185   8.165  13.973  0.00  0.00    +0.000 A 
ATOM     21  N   UNL     1      51.448   8.366  13.532  0.00  0.00    +0.000 NA
BRANCH  16  22
ATOM     22  C   UNL     1      53.090   8.393  11.702  0.00  0.00    +0.000 C 
BRANCH  22  23
ATOM     23  N   UNL     1      54.032   7.547  12.440  0.00  0.00    +0.000 NA
ATOM     24  H   UNL     1      54.965   7.692  12.057  0.00  0.00    +0.000 HD
ATOM     25  H   UNL     1      53.797   6.573  12.245  0.00  0.00    +0.000 HD
ENDBRANCH  22  23
ENDBRANCH  16  22
ENDBRANCH  15  19
ENDBRANCH   1  15
TORSDOF 5
ENDMDL
MODEL 8
REMARK VINA RESULT:    -5.659      3.564      8.160
REMARK INTER + INTRA:          -7.719
REMARK INTER:                  -7.211
REMARK INTRA:                  -0.508
REMARK UNBOUND:                -0.571
REMARK  Name = 
REMARK  5 active torsions:
REMARK  status: ('A' for Active; 'I' for Inactive)
REMARK    1  A    between atoms: N_1  and  C_2
REMARK    2  A    between atoms: C_2  and  C_3
REMARK    3  A    between atoms: C_6  and  C_7
REMARK    4  A    between atoms: C_7  and  N_8
REMARK    5  A    between atoms: C_13  and  C_14
REMARK                            x       y       z     vdW  Elec       q    Type
REMARK                         _______ _______ _______ _____ _____    ______ ____
ROOT
ATOM      1  N   UNL     1      47.611   6.824  13.969  0.00  0.00    +0.000 N 
ATOM      2  C   UNL     1      47.210   8.103  13.696  0.00  0.00    +0.000 A 
ATOM      3  N   UNL     1      46.150   8.123  12.919  0.00  0.00    +0.000 NA
ATOM      4  C   UNL     1      45.858   6.805  12.672  0.00  0.00    +0.000 A 
ATOM      5  C   UNL     1      44.847   6.258  11.866  0.00  0.00    +0.000 A 
ATOM      6  C   UNL     1      44.756   4.862  11.750  0.00  0.00    +0.000 A 
ATOM      7  C   UNL     1      45.651   4.040  12.457  0.00  0.00    +0.000 A 
ATOM      8  C   UNL     1      46.658   4.571  13.270  0.00  0.00    +0.000 A 
ATOM      9  C   UNL     1      46.745   5.963  13.337  0.00  0.00    +0.000 A 
ENDROOT
BRANCH   6  10
ATOM     10  C   UNL     1      43.746   4.188  10.881  0.00  0.00    +0.000 C 
ATOM     11  N   UNL     1      43.687   4.528   9.558  0.00  0.00    +0.000 N 
ATOM     12  O   UNL     1      42.983   3.342  11.328  0.00  0.00    +0.000 OA
ATOM     13  H   UNL     1      44.273   5.206   9.100  0.00  0.00    +0.000 HD
ATOM     14  H   UNL     1      43.000   4.040   8.995  0.00  0.00    +0.000 HD
ENDBRANCH   6  10
BRANCH   1  15
ATOM     15  C   UNL     1      48.824   6.460  14.687  0.00  0.00    +0.000 C 
BRANCH  15  19
ATOM     16  C   UNL     1      48.241   5.596  18.825  0.00  0.00    +0.000 A 
ATOM     17  C   UNL     1      48.519   6.912  18.468  0.00  0.00    +0.000 A 
ATOM     18  C   UNL     1      48.683   7.231  17.123  0.00  0.00    +0.000 A 
ATOM     19  C   UNL     1      48.607   6.227  16.156  0.00  0.00    +0.000 A 
ATOM     20  C   UNL     1      48.266   4.953  16.604  0.00  0.00    +0.000 A 
ATOM     21  N   UNL     1      48.086   4.617  17.902  0.00  0.00    +0.000 NA
BRANCH  16  22
ATOM     22  C   UNL     1      48.140   5.213  20.286  0.00  0.00    +0.000 C 
BRANCH  22  23
ATOM     23  N   UNL     1      48.404   3.792  20.528  0.00  0.00    +0.000 NA
ATOM     24  H   UNL     1      49.147   3.490  19.899  0.00  0.00    +0.000 HD
ATOM     25  H   UNL     1      47.574   3.267  20.252  0.00  0.00    +0.000 HD
ENDBRANCH  22  23
ENDBRANCH  16  22
ENDBRANCH  15  19
ENDBRANCH   1  15
TORSDOF 5
ENDMDL
MODEL 9
REMARK VINA RESULT:    -5.626      3.008      6.758
REMARK INTER + INTRA:          -7.677
REMARK INTER:                  -7.127
REMARK INTRA:                  -0.550
REMARK UNBOUND:                -0.571
REMARK  Name = 
REMARK  5 active torsions:
REMARK  status: ('A' for Active; 'I' for Inactive)
REMARK    1  A    between atoms: N_1  and  C_2
REMARK    2  A    between atoms: C_2  and  C_3
REMARK    3  A    between atoms: C_6  and  C_7
REMARK    4  A    between atoms: C_7  and  N_8
REMARK    5  A    between atoms: C_13  and  C_14
REMARK                            x       y       z     vdW  Elec       q    Type
REMARK                         _______ _______ _______ _____ _____    ______ ____
ROOT
ATOM      1  N   UNL     1      46.355   6.116  13.080  0.00  0.00    +0.000 N 
ATOM      2  C   UNL     1      46.289   5.200  14.094  0.00  0.00    +0.000 A 
ATOM      3  N   UNL     1      45.886   4.026  13.662  0.00  0.00    +0.000 NA
ATOM      4  C   UNL     1      45.677   4.189  12.315  0.00  0.00    +0.000 A 
ATOM      5  C   UNL     1      45.204   3.261  11.374  0.00  0.00    +0.000 A 
ATOM      6  C   UNL     1      45.052   3.669  10.040  0.00  0.00    +0.000 A 
ATOM      7  C   UNL     1      45.398   4.979   9.664  0.00  0.00    +0.000 A 
ATOM      8  C   UNL     1      45.879   5.912  10.589  0.00  0.00    +0.000 A 
ATOM      9  C   UNL     1      45.986   5.486  11.915  0.00  0.00    +0.000 A 
ENDROOT
BRANCH   6  10
ATOM     10  C   UNL     1      44.512   2.771   8.977  0.00  0.00    +0.000 C 
ATOM     11  N   UNL     1      44.180   3.310   7.766  0.00  0.00    +0.000 N 
ATOM     12  O   UNL     1      44.369   1.570   9.169  0.00  0.00    +0.000 OA
ATOM     13  H   UNL     1      44.265   4.281   7.514  0.00  0.00    +0.000 HD
ATOM     14  H   UNL     1      43.830   2.669   7.064  0.00  0.00    +0.000 HD
ENDBRANCH   6  10
BRANCH   1  15
ATOM     15  C   UNL     1      46.636   7.534  13.247  0.00  0.00    +0.000 C 
BRANCH  15  19
ATOM     16  C   UNL     1      50.768   8.502  12.804  0.00  0.00    +0.000 A 
ATOM     17  C   UNL     1      50.021   8.293  11.648  0.00  0.00    +0.000 A 
ATOM     18  C   UNL     1      48.664   8.006  11.759  0.00  0.00    +0.000 A 
ATOM     19  C   UNL     1      48.078   7.894  13.022  0.00  0.00    +0.000 A 
ATOM     20  C   UNL     1      48.891   8.179  14.116  0.00  0.00    +0.000 A 
ATOM     21  N   UNL     1      50.209   8.475  14.037  0.00  0.00    +0.000 NA
BRANCH  16  22
ATOM     22  C   UNL     1      52.261   8.734  12.709  0.00  0.00    +0.000 C 
BRANCH  22  23
ATOM     23  N   UNL     1      53.042   7.782  13.504  0.00  0.00    +0.000 NA
ATOM     24  H   UNL     1      53.724   8.302  14.053  0.00  0.00    +0.000 HD
ATOM     25  H   UNL     1      53.583   7.205  12.859  0.00  0.00    +0.000 HD
ENDBRANCH  22  23
ENDBRANCH  16  22
ENDBRANCH  15  19
ENDBRANCH   1  15
TORSDOF 5
ENDMDL
