MODEL 1
REMARK VINA RESULT:    -9.285      0.000      0.000
REMARK INTER + INTRA:         -12.592
REMARK INTER:                 -11.999
REMARK INTRA:                  -0.592
REMARK UNBOUND:                -0.592
REMARK  Name = 
REMARK  5 active torsions:
REMARK  status: ('A' for Active; 'I' for Inactive)
REMARK    1  A    between atoms: C_2  and  C_4
REMARK    2  A    between atoms: C_7  and  O_8
REMARK    3  A    between atoms: O_8  and  C_9
REMARK    4  A    between atoms: C_9  and  C_10
REMARK    5  A    between atoms: C_15  and  N_16
REMARK                            x       y       z     vdW  Elec       q    Type
REMARK                         _______ _______ _______ _____ _____    ______ ____
ROOT
ATOM      1  C   UNL     1      43.867   4.957  11.131  0.00  0.00    +0.000 C 
ATOM      2  C   UNL     1      43.374   3.908  12.116  0.00  0.00    +0.000 C 
ATOM      3  C   UNL     1      42.504   5.079  11.797  0.00  0.00    +0.000 C 
ENDROOT
BRANCH   1   4
ATOM      4  C   UNL     1      44.989   5.861  11.614  0.00  0.00    +0.000 A 
ATOM      5  C   UNL     1      44.987   7.240  11.374  0.00  0.00    +0.000 A 
ATOM      6  C   UNL     1      45.794   8.083  12.132  0.00  0.00    +0.000 A 
ATOM      7  C   UNL     1      46.637   7.550  13.108  0.00  0.00    +0.000 A 
ATOM      8  F   UNL     1      47.327   8.410  13.873  0.00  0.00    +0.000 F 
ATOM      9  C   UNL     1      46.782   6.168  13.286  0.00  0.00    +0.000 A 
ATOM     10  C   UNL     1      45.967   5.351  12.492  0.00  0.00    +0.000 A 
BRANCH   9  11
ATOM     11  N   UNL     1      47.614   5.587  14.229  0.00  0.00    +0.000 N 
ATOM     12  C   UNL     1      47.326   4.276  14.806  0.00  0.00    +0.000 C 
ATOM     13  C   UNL     1      47.102   4.412  16.300  0.00  0.00    +0.000 C 
ATOM     14  C   UNL     1      48.247   5.187  16.920  0.00  0.00    +0.000 C 
ATOM     15  F   UNL     1      47.998   5.370  18.244  0.00  0.00    +0.000 F 
ATOM     16  F   UNL     1      49.384   4.442  16.853  0.00  0.00    +0.000 F 
ATOM     17  C   UNL     1      48.492   6.532  16.270  0.00  0.00    +0.000 C 
ATOM     18  C   UNL     1      48.741   6.331  14.786  0.00  0.00    +0.000 C 
ENDBRANCH   9  11
ENDBRANCH   1   4
BRANCH   1  19
ATOM     19  O   UNL     1      43.721   4.727   9.717  0.00  0.00    +0.000 OA
BRANCH  19  23
ATOM     20  C   UNL     1      46.555   2.535   7.742  0.00  0.00    +0.000 A 
ATOM     21  C   UNL     1      45.696   1.902   8.644  0.00  0.00    +0.000 A 
ATOM     22  C   UNL     1      44.766   2.671   9.332  0.00  0.00    +0.000 A 
ATOM     23  C   UNL     1      44.739   4.033   9.091  0.00  0.00    +0.000 A 
ATOM     24  N   UNL     1      45.609   4.682   8.284  0.00  0.00    +0.000 NA
ATOM     25  C   UNL     1      46.508   3.914   7.627  0.00  0.00    +0.000 A 
BRANCH  20  27
ATOM     26  N   UNL     1      48.539   2.429   6.387  0.00  0.00    +0.000 N 
ATOM     27  C   UNL     1      47.447   1.765   6.855  0.00  0.00    +0.000 C 
ATOM     28  O   UNL     1      47.246   0.583   6.616  0.00  0.00    +0.000 OA
ATOM     29  H   UNL     1      49.234   1.871   5.899  0.00  0.00    +0.000 HD
ATOM     30  H   UNL     1      48.854   3.303   6.786  0.00  0.00    +0.000 HD
ENDBRANCH  20  27
ENDBRANCH  19  23
ENDBRANCH   1  19
TORSDOF 5
ENDMDL
MODEL 2
REMARK VINA RESULT:    -9.019      1.471      2.104
REMARK INTER + INTRA:         -12.247
REMARK INTER:                 -11.489
REMARK INTRA:                  -0.759
REMARK UNBOUND:                -0.592
REMARK  Name = 
REMARK  5 active torsions:
REMARK  status: ('A' for Active; 'I' for Inactive)
REMARK    1  A    between atoms: C_2  and  C_4
REMARK    2  A    between atoms: C_7  and  O_8
REMARK    3  A    between atoms: O_8  and  C_9
REMARK    4  A    between atoms: C_9  and  C_10
REMARK    5  A    between atoms: C_15  and  N_16
REMARK                            x       y       z     vdW  Elec       q    Type
REMARK                         _______ _______ _______ _____ _____    ______ ____
ROOT
ATOM      1  C   UNL     1      44.435   4.473  11.906  0.00  0.00    +0.000 C 
ATOM      2  C   UNL     1      43.669   3.301  12.499  0.00  0.00    +0.000 C 
ATOM      3  C   UNL     1      43.151   4.688  12.694  0.00  0.00    +0.000 C 
ENDROOT
BRANCH   1   4
ATOM      4  C   UNL     1      45.756   4.821  12.571  0.00  0.00    +0.000 A 
ATOM      5  C   UNL     1      46.535   5.907  12.154  0.00  0.00    +0.000 A 
ATOM      6  C   UNL     1      47.513   6.431  12.995  0.00  0.00    +0.000 A 
ATOM      7  C   UNL     1      47.746   5.848  14.241  0.00  0.00    +0.000 A 
ATOM      8  F   UNL     1      48.636   6.444  15.050  0.00  0.00    +0.000 F 
ATOM      9  C   UNL     1      47.096   4.674  14.643  0.00  0.00    +0.000 A 
ATOM     10  C   UNL     1      46.132   4.167  13.762  0.00  0.00    +0.000 A 
BRANCH   9  11
ATOM     11  N   UNL     1      47.301   4.049  15.861  0.00  0.00    +0.000 N 
ATOM     12  C   UNL     1      46.946   4.691  17.125  0.00  0.00    +0.000 C 
ATOM     13  C   UNL     1      48.194   4.900  17.961  0.00  0.00    +0.000 C 
ATOM     14  C   UNL     1      48.968   3.601  18.056  0.00  0.00    +0.000 C 
ATOM     15  F   UNL     1      50.123   3.818  18.742  0.00  0.00    +0.000 F 
ATOM     16  F   UNL     1      48.258   2.705  18.795  0.00  0.00    +0.000 F 
ATOM     17  C   UNL     1      49.297   2.990  16.711  0.00  0.00    +0.000 C 
ATOM     18  C   UNL     1      48.010   2.774  15.934  0.00  0.00    +0.000 C 
ENDBRANCH   9  11
ENDBRANCH   1   4
BRANCH   1  19
ATOM     19  O   UNL     1      44.244   4.819  10.521  0.00  0.00    +0.000 OA
BRANCH  19  23
ATOM     20  C   UNL     1      46.410   2.604   7.848  0.00  0.00    +0.000 A 
ATOM     21  C   UNL     1      46.426   3.998   7.765  0.00  0.00    +0.000 A 
ATOM     22  C   UNL     1      45.655   4.730   8.658  0.00  0.00    +0.000 A 
ATOM     23  C   UNL     1      44.901   4.038   9.589  0.00  0.00    +0.000 A 
ATOM     24  N   UNL     1      44.806   2.690   9.642  0.00  0.00    +0.000 NA
ATOM     25  C   UNL     1      45.563   1.998   8.761  0.00  0.00    +0.000 A 
BRANCH  20  27
ATOM     26  N   UNL     1      48.396   2.416   6.505  0.00  0.00    +0.000 N 
ATOM     27  C   UNL     1      47.329   1.771   7.051  0.00  0.00    +0.000 C 
ATOM     28  O   UNL     1      47.172   0.562   6.950  0.00  0.00    +0.000 OA
ATOM     29  H   UNL     1      49.111   1.832   6.081  0.00  0.00    +0.000 HD
ATOM     30  H   UNL     1      48.678   3.341   6.801  0.00  0.00    +0.000 HD
ENDBRANCH  20  27
ENDBRANCH  19  23
ENDBRANCH   1  19
TORSDOF 5
ENDMDL
MODEL 3
REMARK VINA RESULT:    -9.018      1.822      2.372
REMARK INTER + INTRA:         -12.246
REMARK INTER:                 -11.105
REMARK INTRA:                  -1.141
REMARK UNBOUND:                -0.592
REMARK  Name = 
REMARK  5 active torsions:
REMARK  status: ('A' for Active; 'I' for Inactive)
REMARK    1  A    between atoms: C_2  and  C_4
REMARK    2  A    between atoms: C_7  and  O_8
REMARK    3  A    between atoms: O_8  and  C_9
REMARK    4  A    between atoms: C_9  and  C_10
REMARK    5  A    between atoms: C_15  and  N_16
REMARK                            x       y       z     vdW  Elec       q    Type
REMARK                         _______ _______ _______ _____ _____    ______ ____
ROOT
ATOM      1  C   UNL     1      44.380   4.558  11.582  0.00  0.00    +0.000 C 
ATOM      2  C   UNL     1      44.822   3.474  12.552  0.00  0.00    +0.000 C 
ATOM      3  C   UNL     1      43.502   4.142  12.754  0.00  0.00    +0.000 C 
ENDROOT
BRANCH   1   4
ATOM      4  C   UNL     1      45.119   5.884  11.670  0.00  0.00    +0.000 A 
ATOM      5  C   UNL     1      44.476   7.108  11.451  0.00  0.00    +0.000 A 
ATOM      6  C   UNL     1      45.053   8.291  11.904  0.00  0.00    +0.000 A 
ATOM      7  C   UNL     1      46.294   8.262  12.541  0.00  0.00    +0.000 A 
ATOM      8  F   UNL     1      46.766   9.417  13.038  0.00  0.00    +0.000 F 
ATOM      9  C   UNL     1      47.042   7.084  12.653  0.00  0.00    +0.000 A 
ATOM     10  C   UNL     1      46.436   5.916  12.170  0.00  0.00    +0.000 A 
BRANCH   9  11
ATOM     11  N   UNL     1      48.283   7.003  13.264  0.00  0.00    +0.000 N 
ATOM     12  C   UNL     1      48.421   6.752  14.696  0.00  0.00    +0.000 C 
ATOM     13  C   UNL     1      49.092   7.938  15.361  0.00  0.00    +0.000 C 
ATOM     14  C   UNL     1      50.360   8.294  14.612  0.00  0.00    +0.000 C 
ATOM     15  F   UNL     1      50.912   9.405  15.170  0.00  0.00    +0.000 F 
ATOM     16  F   UNL     1      51.275   7.300  14.776  0.00  0.00    +0.000 F 
ATOM     17  C   UNL     1      50.144   8.535  13.133  0.00  0.00    +0.000 C 
ATOM     18  C   UNL     1      49.501   7.306  12.516  0.00  0.00    +0.000 C 
ENDBRANCH   9  11
ENDBRANCH   1   4
BRANCH   1  19
ATOM     19  O   UNL     1      43.767   4.187  10.333  0.00  0.00    +0.000 OA
BRANCH  19  23
ATOM     20  C   UNL     1      46.364   2.443   7.695  0.00  0.00    +0.000 A 
ATOM     21  C   UNL     1      46.187   3.828   7.677  0.00  0.00    +0.000 A 
ATOM     22  C   UNL     1      45.273   4.396   8.555  0.00  0.00    +0.000 A 
ATOM     23  C   UNL     1      44.576   3.557   9.407  0.00  0.00    +0.000 A 
ATOM     24  N   UNL     1      44.671   2.207   9.391  0.00  0.00    +0.000 NA
ATOM     25  C   UNL     1      45.564   1.676   8.527  0.00  0.00    +0.000 A 
BRANCH  20  27
ATOM     26  N   UNL     1      48.476   2.586   6.555  0.00  0.00    +0.000 N 
ATOM     27  C   UNL     1      47.433   1.790   6.917  0.00  0.00    +0.000 C 
ATOM     28  O   UNL     1      47.408   0.591   6.677  0.00  0.00    +0.000 OA
ATOM     29  H   UNL     1      49.283   2.119   6.150  0.00  0.00    +0.000 HD
ATOM     30  H   UNL     1      48.635   3.493   6.972  0.00  0.00    +0.000 HD
ENDBRANCH  20  27
ENDBRANCH  19  23
ENDBRANCH   1  19
TORSDOF 5
ENDMDL
MODEL 4
REMARK VINA RESULT:    -8.608      2.066      3.696
REMARK INTER + INTRA:         -11.716
REMARK INTER:                 -11.103
REMARK INTRA:                  -0.613
REMARK UNBOUND:                -0.592
REMARK  Name = 
REMARK  5 active torsions:
REMARK  status: ('A' for Active; 'I' for Inactive)
REMARK    1  A    between atoms: C_2  and  C_4
REMARK    2  A    between atoms: C_7  and  O_8
REMARK    3  A    between atoms: O_8  and  C_9
REMARK    4  A    between atoms: C_9  and  C_10
REMARK    5  A    between atoms: C_15  and  N_16
REMARK                            x       y       z     vdW  Elec       q    Type
REMARK                         _______ _______ _______ _____ _____    ______ ____
ROOT
ATOM      1  C   UNL     1      44.228   4.489  11.648  0.00  0.00    +0.000 C 
ATOM      2  C   UNL     1      43.709   3.148  12.142  0.00  0.00    +0.000 C 
ATOM      3  C   UNL     1      42.828   4.350  12.229  0.00  0.00    +0.000 C 
ENDROOT
BRANCH   1   4
ATOM      4  C   UNL     1      45.299   5.154  12.498  0.00  0.00    +0.000 A 
ATOM      5  C   UNL     1      45.860   4.522  13.614  0.00  0.00    +0.000 A 
ATOM      6  C   UNL     1      47.074   4.964  14.132  0.00  0.00    +0.000 A 
ATOM      7  C   UNL     1      47.714   6.066  13.563  0.00  0.00    +0.000 A 
ATOM      8  F   UNL     1      48.923   6.399  14.041  0.00  0.00    +0.000 F 
ATOM      9  C   UNL     1      47.123   6.820  12.541  0.00  0.00    +0.000 A 
ATOM     10  C   UNL     1      45.893   6.354  12.058  0.00  0.00    +0.000 A 
BRANCH   9  11
ATOM     11  N   UNL     1      47.709   7.928  11.953  0.00  0.00    +0.000 N 
ATOM     12  C   UNL     1      48.989   7.842  11.253  0.00  0.00    +0.000 C 
ATOM     13  C   UNL     1      50.017   8.705  11.958  0.00  0.00    +0.000 C 
ATOM     14  C   UNL     1      49.456  10.096  12.172  0.00  0.00    +0.000 C 
ATOM     15  F   UNL     1      50.355  10.838  12.873  0.00  0.00    +0.000 F 
ATOM     16  F   UNL     1      49.317  10.717  10.969  0.00  0.00    +0.000 F 
ATOM     17  C   UNL     1      48.127  10.110  12.898  0.00  0.00    +0.000 C 
ATOM     18  C   UNL     1      47.131   9.258  12.130  0.00  0.00    +0.000 C 
ENDBRANCH   9  11
ENDBRANCH   1   4
BRANCH   1  19
ATOM     19  O   UNL     1      44.165   4.801  10.244  0.00  0.00    +0.000 OA
BRANCH  19  23
ATOM     20  C   UNL     1      46.392   2.387   7.803  0.00  0.00    +0.000 A 
ATOM     21  C   UNL     1      46.457   3.774   7.650  0.00  0.00    +0.000 A 
ATOM     22  C   UNL     1      45.665   4.574   8.463  0.00  0.00    +0.000 A 
ATOM     23  C   UNL     1      44.843   3.954   9.388  0.00  0.00    +0.000 A 
ATOM     24  N   UNL     1      44.702   2.614   9.503  0.00  0.00    +0.000 NA
ATOM     25  C   UNL     1      45.480   1.855   8.699  0.00  0.00    +0.000 A 
BRANCH  20  27
ATOM     26  N   UNL     1      48.419   2.078   6.548  0.00  0.00    +0.000 N 
ATOM     27  C   UNL     1      47.323   1.488   7.098  0.00  0.00    +0.000 C 
ATOM     28  O   UNL     1      47.148   0.277   7.074  0.00  0.00    +0.000 OA
ATOM     29  H   UNL     1      49.138   1.455   6.190  0.00  0.00    +0.000 HD
ATOM     30  H   UNL     1      48.707   3.016   6.789  0.00  0.00    +0.000 HD
ENDBRANCH  20  27
ENDBRANCH  19  23
ENDBRANCH   1  19
TORSDOF 5
ENDMDL
MODEL 5
REMARK VINA RESULT:    -7.395      3.904      5.693
REMARK INTER + INTRA:         -10.149
REMARK INTER:                  -9.014
REMARK INTRA:                  -1.135
REMARK UNBOUND:                -0.592
REMARK  Name = 
REMARK  5 active torsions:
REMARK  status: ('A' for Active; 'I' for Inactive)
REMARK    1  A    between atoms: C_2  and  C_4
REMARK    2  A    between atoms: C_7  and  O_8
REMARK    3  A    between atoms: O_8  and  C_9
REMARK    4  A    between atoms: C_9  and  C_10
REMARK    5  A    between atoms: C_15  and  N_16
REMARK                            x       y       z     vdW  Elec       q    Type
REMARK                         _______ _______ _______ _____ _____    ______ ____
ROOT
ATOM      1  C   UNL     1      49.296   7.931  13.171  0.00  0.00    +0.000 C 
ATOM      2  C   UNL     1      49.203   9.212  12.356  0.00  0.00    +0.000 C 
ATOM      3  C   UNL     1      50.519   8.517  12.479  0.00  0.00    +0.000 C 
ENDROOT
BRANCH   1   4
ATOM      4  C   UNL     1      49.179   8.081  14.679  0.00  0.00    +0.000 A 
ATOM      5  C   UNL     1      48.799   9.287  15.278  0.00  0.00    +0.000 A 
ATOM      6  C   UNL     1      48.332   9.300  16.590  0.00  0.00    +0.000 A 
ATOM      7  C   UNL     1      48.282   8.113  17.323  0.00  0.00    +0.000 A 
ATOM      8  F   UNL     1      47.742   8.163  18.551  0.00  0.00    +0.000 F 
ATOM      9  C   UNL     1      48.787   6.908  16.819  0.00  0.00    +0.000 A 
ATOM     10  C   UNL     1      49.265   6.939  15.501  0.00  0.00    +0.000 A 
BRANCH   9  11
ATOM     11  N   UNL     1      48.774   5.708  17.509  0.00  0.00    +0.000 N 
ATOM     12  C   UNL     1      49.961   5.199  18.192  0.00  0.00    +0.000 C 
ATOM     13  C   UNL     1      50.386   3.883  17.569  0.00  0.00    +0.000 C 
ATOM     14  C   UNL     1      49.197   2.948  17.492  0.00  0.00    +0.000 C 
ATOM     15  F   UNL     1      49.570   1.801  16.862  0.00  0.00    +0.000 F 
ATOM     16  F   UNL     1      48.830   2.580  18.750  0.00  0.00    +0.000 F 
ATOM     17  C   UNL     1      48.002   3.541  16.777  0.00  0.00    +0.000 C 
ATOM     18  C   UNL     1      47.603   4.836  17.463  0.00  0.00    +0.000 C 
ENDBRANCH   9  11
ENDBRANCH   1   4
BRANCH   1  19
ATOM     19  O   UNL     1      48.925   6.677  12.568  0.00  0.00    +0.000 OA
BRANCH  19  23
ATOM     20  C   UNL     1      45.128   5.269  13.153  0.00  0.00    +0.000 A 
ATOM     21  C   UNL     1      45.318   6.537  12.599  0.00  0.00    +0.000 A 
ATOM     22  C   UNL     1      46.614   7.012  12.443  0.00  0.00    +0.000 A 
ATOM     23  C   UNL     1      47.659   6.202  12.851  0.00  0.00    +0.000 A 
ATOM     24  N   UNL     1      47.501   5.005  13.462  0.00  0.00    +0.000 NA
ATOM     25  C   UNL     1      46.231   4.564  13.605  0.00  0.00    +0.000 A 
BRANCH  20  27
ATOM     26  N   UNL     1      42.734   5.470  13.058  0.00  0.00    +0.000 N 
ATOM     27  C   UNL     1      43.798   4.633  13.191  0.00  0.00    +0.000 C 
ATOM     28  O   UNL     1      43.672   3.419  13.267  0.00  0.00    +0.000 OA
ATOM     29  H   UNL     1      41.825   5.033  12.935  0.00  0.00    +0.000 HD
ATOM     30  H   UNL     1      42.831   6.421  12.729  0.00  0.00    +0.000 HD
ENDBRANCH  20  27
ENDBRANCH  19  23
ENDBRANCH   1  19
TORSDOF 5
ENDMDL
MODEL 6
REMARK VINA RESULT:    -7.212      3.720      7.630
REMARK INTER + INTRA:          -9.912
REMARK INTER:                 -10.005
REMARK INTRA:                   0.093
REMARK UNBOUND:                -0.592
REMARK  Name = 
REMARK  5 active torsions:
REMARK  status: ('A' for Active; 'I' for Inactive)
REMARK    1  A    between atoms: C_2  and  C_4
REMARK    2  A    between atoms: C_7  and  O_8
REMARK    3  A    between atoms: O_8  and  C_9
REMARK    4  A    between atoms: C_9  and  C_10
REMARK    5  A    between atoms: C_15  and  N_16
REMARK                            x       y       z     vdW  Elec       q    Type
REMARK                         _______ _______ _______ _____ _____    ______ ____
ROOT
ATOM      1  C   UNL     1      46.772   7.125  12.682  0.00  0.00    +0.000 C 
ATOM      2  C   UNL     1      46.658   8.380  11.832  0.00  0.00    +0.000 C 
ATOM      3  C   UNL     1      46.262   8.434  13.270  0.00  0.00    +0.000 C 
ENDROOT
BRANCH   1   4
ATOM      4  C   UNL     1      45.767   6.023  12.396  0.00  0.00    +0.000 A 
ATOM      5  C   UNL     1      44.640   5.818  13.201  0.00  0.00    +0.000 A 
ATOM      6  C   UNL     1      43.560   5.083  12.719  0.00  0.00    +0.000 A 
ATOM      7  C   UNL     1      43.616   4.515  11.446  0.00  0.00    +0.000 A 
ATOM      8  F   UNL     1      42.517   3.893  10.993  0.00  0.00    +0.000 F 
ATOM      9  C   UNL     1      44.776   4.568  10.661  0.00  0.00    +0.000 A 
ATOM     10  C   UNL     1      45.848   5.301  11.188  0.00  0.00    +0.000 A 
BRANCH   9  11
ATOM     11  N   UNL     1      44.888   4.010   9.399  0.00  0.00    +0.000 N 
ATOM     12  C   UNL     1      44.544   2.614   9.141  0.00  0.00    +0.000 C 
ATOM     13  C   UNL     1      45.776   1.860   8.678  0.00  0.00    +0.000 C 
ATOM     14  C   UNL     1      46.439   2.614   7.543  0.00  0.00    +0.000 C 
ATOM     15  F   UNL     1      47.584   1.971   7.188  0.00  0.00    +0.000 F 
ATOM     16  F   UNL     1      45.635   2.577   6.446  0.00  0.00    +0.000 F 
ATOM     17  C   UNL     1      46.762   4.055   7.878  0.00  0.00    +0.000 C 
ATOM     18  C   UNL     1      45.489   4.765   8.302  0.00  0.00    +0.000 C 
ENDBRANCH   9  11
ENDBRANCH   1   4
BRANCH   1  19
ATOM     19  O   UNL     1      48.043   6.772  13.260  0.00  0.00    +0.000 OA
BRANCH  19  23
ATOM     20  C   UNL     1      47.809   4.325  16.532  0.00  0.00    +0.000 A 
ATOM     21  C   UNL     1      48.373   5.597  16.658  0.00  0.00    +0.000 A 
ATOM     22  C   UNL     1      48.477   6.397  15.528  0.00  0.00    +0.000 A 
ATOM     23  C   UNL     1      48.018   5.891  14.325  0.00  0.00    +0.000 A 
ATOM     24  N   UNL     1      47.540   4.636  14.159  0.00  0.00    +0.000 NA
ATOM     25  C   UNL     1      47.451   3.874  15.272  0.00  0.00    +0.000 A 
BRANCH  20  27
ATOM     26  N   UNL     1      48.134   3.850  18.866  0.00  0.00    +0.000 N 
ATOM     27  C   UNL     1      47.511   3.491  17.710  0.00  0.00    +0.000 C 
ATOM     28  O   UNL     1      46.700   2.577  17.659  0.00  0.00    +0.000 OA
ATOM     29  H   UNL     1      47.826   3.379  19.713  0.00  0.00    +0.000 HD
ATOM     30  H   UNL     1      48.584   4.748  18.982  0.00  0.00    +0.000 HD
ENDBRANCH  20  27
ENDBRANCH  19  23
ENDBRANCH   1  19
TORSDOF 5
ENDMDL
MODEL 7
REMARK VINA RESULT:    -7.167      4.179      7.209
REMARK INTER + INTRA:          -9.854
REMARK INTER:                  -9.468
REMARK INTRA:                  -0.386
REMARK UNBOUND:                -0.592
REMARK  Name = 
REMARK  5 active torsions:
REMARK  status: ('A' for Active; 'I' for Inactive)
REMARK    1  A    between atoms: C_2  and  C_4
REMARK    2  A    between atoms: C_7  and  O_8
REMARK    3  A    between atoms: O_8  and  C_9
REMARK    4  A    between atoms: C_9  and  C_10
REMARK    5  A    between atoms: C_15  and  N_16
REMARK                            x       y       z     vdW  Elec       q    Type
REMARK                         _______ _______ _______ _____ _____    ______ ____
ROOT
ATOM      1  C   UNL     1      48.538   8.088  13.142  0.00  0.00    +0.000 C 
ATOM      2  C   UNL     1      49.361   7.316  12.123  0.00  0.00    +0.000 C 
ATOM      3  C   UNL     1      49.594   8.781  12.293  0.00  0.00    +0.000 C 
ENDROOT
BRANCH   1   4
ATOM      4  C   UNL     1      47.075   8.312  12.797  0.00  0.00    +0.000 A 
ATOM      5  C   UNL     1      46.547   9.592  12.591  0.00  0.00    +0.000 A 
ATOM      6  C   UNL     1      45.341   9.752  11.915  0.00  0.00    +0.000 A 
ATOM      7  C   UNL     1      44.635   8.631  11.476  0.00  0.00    +0.000 A 
ATOM      8  F   UNL     1      43.524   8.840  10.751  0.00  0.00    +0.000 F 
ATOM      9  C   UNL     1      45.046   7.328  11.784  0.00  0.00    +0.000 A 
ATOM     10  C   UNL     1      46.256   7.209  12.481  0.00  0.00    +0.000 A 
BRANCH   9  11
ATOM     11  N   UNL     1      44.375   6.185  11.384  0.00  0.00    +0.000 N 
ATOM     12  C   UNL     1      42.981   5.944  11.747  0.00  0.00    +0.000 C 
ATOM     13  C   UNL     1      42.883   4.700  12.609  0.00  0.00    +0.000 C 
ATOM     14  C   UNL     1      43.615   3.555  11.939  0.00  0.00    +0.000 C 
ATOM     15  F   UNL     1      43.587   2.468  12.755  0.00  0.00    +0.000 F 
ATOM     16  F   UNL     1      42.946   3.192  10.810  0.00  0.00    +0.000 F 
ATOM     17  C   UNL     1      45.052   3.876  11.586  0.00  0.00    +0.000 C 
ATOM     18  C   UNL     1      45.084   5.107  10.698  0.00  0.00    +0.000 C 
ENDBRANCH   9  11
ENDBRANCH   1   4
BRANCH   1  19
ATOM     19  O   UNL     1      48.929   8.076  14.528  0.00  0.00    +0.000 OA
BRANCH  19  23
ATOM     20  C   UNL     1      47.995   4.778  16.762  0.00  0.00    +0.000 A 
ATOM     21  C   UNL     1      48.575   5.889  17.379  0.00  0.00    +0.000 A 
ATOM     22  C   UNL     1      48.919   6.984  16.596  0.00  0.00    +0.000 A 
ATOM     23  C   UNL     1      48.672   6.918  15.236  0.00  0.00    +0.000 A 
ATOM     24  N   UNL     1      48.184   5.826  14.603  0.00  0.00    +0.000 NA
ATOM     25  C   UNL     1      47.860   4.771  15.384  0.00  0.00    +0.000 A 
BRANCH  20  27
ATOM     26  N   UNL     1      48.148   3.318  18.666  0.00  0.00    +0.000 N 
ATOM     27  C   UNL     1      47.450   3.655  17.548  0.00  0.00    +0.000 C 
ATOM     28  O   UNL     1      46.397   3.113  17.243  0.00  0.00    +0.000 OA
ATOM     29  H   UNL     1      47.707   2.649  19.292  0.00  0.00    +0.000 HD
ATOM     30  H   UNL     1      48.853   3.921  19.068  0.00  0.00    +0.000 HD
ENDBRANCH  20  27
ENDBRANCH  19  23
ENDBRANCH   1  19
TORSDOF 5
ENDMDL
MODEL 8
REMARK VINA RESULT:    -6.856      4.583      7.688
REMARK INTER + INTRA:          -9.453
REMARK INTER:                  -8.065
REMARK INTRA:                  -1.388
REMARK UNBOUND:                -0.592
REMARK  Name = 
REMARK  5 active torsions:
REMARK  status: ('A' for Active; 'I' for Inactive)
REMARK    1  A    between atoms: C_2  and  C_4
REMARK    2  A    between atoms: C_7  and  O_8
REMARK    3  A    between atoms: O_8  and  C_9
REMARK    4  A    between atoms: C_9  and  C_10
REMARK    5  A    between atoms: C_15  and  N_16
REMARK                            x       y       z     vdW  Elec       q    Type
REMARK                         _______ _______ _______ _____ _____    ______ ____
ROOT
ATOM      1  C   UNL     1      48.746   8.194  17.401  0.00  0.00    +0.000 C 
ATOM      2  C   UNL     1      49.731   8.986  18.245  0.00  0.00    +0.000 C 
ATOM      3  C   UNL     1      48.354   9.521  18.036  0.00  0.00    +0.000 C 
ENDROOT
BRANCH   1   4
ATOM      4  C   UNL     1      49.013   8.161  15.905  0.00  0.00    +0.000 A 
ATOM      5  C   UNL     1      50.270   8.461  15.368  0.00  0.00    +0.000 A 
ATOM      6  C   UNL     1      50.592   8.060  14.075  0.00  0.00    +0.000 A 
ATOM      7  C   UNL     1      49.646   7.393  13.296  0.00  0.00    +0.000 A 
ATOM      8  F   UNL     1      50.033   6.948  12.090  0.00  0.00    +0.000 F 
ATOM      9  C   UNL     1      48.329   7.199  13.734  0.00  0.00    +0.000 A 
ATOM     10  C   UNL     1      48.038   7.632  15.034  0.00  0.00    +0.000 A 
BRANCH   9  11
ATOM     11  N   UNL     1      47.349   6.556  12.996  0.00  0.00    +0.000 N 
ATOM     12  C   UNL     1      46.456   7.288  12.101  0.00  0.00    +0.000 C 
ATOM     13  C   UNL     1      45.023   7.144  12.579  0.00  0.00    +0.000 C 
ATOM     14  C   UNL     1      44.705   5.680  12.804  0.00  0.00    +0.000 C 
ATOM     15  F   UNL     1      43.445   5.569  13.305  0.00  0.00    +0.000 F 
ATOM     16  F   UNL     1      44.689   5.032  11.607  0.00  0.00    +0.000 F 
ATOM     17  C   UNL     1      45.674   4.984  13.736  0.00  0.00    +0.000 C 
ATOM     18  C   UNL     1      47.083   5.133  13.192  0.00  0.00    +0.000 C 
ENDBRANCH   9  11
ENDBRANCH   1   4
BRANCH   1  19
ATOM     19  O   UNL     1      48.009   7.110  17.998  0.00  0.00    +0.000 OA
BRANCH  19  23
ATOM     20  C   UNL     1      49.588   3.381  17.406  0.00  0.00    +0.000 A 
ATOM     21  C   UNL     1      48.228   3.602  17.171  0.00  0.00    +0.000 A 
ATOM     22  C   UNL     1      47.705   4.865  17.414  0.00  0.00    +0.000 A 
ATOM     23  C   UNL     1      48.560   5.847  17.883  0.00  0.00    +0.000 A 
ATOM     24  N   UNL     1      49.860   5.641  18.192  0.00  0.00    +0.000 NA
ATOM     25  C   UNL     1      50.347   4.403  17.950  0.00  0.00    +0.000 A 
BRANCH  20  27
ATOM     26  N   UNL     1      51.100   1.585  17.923  0.00  0.00    +0.000 N 
ATOM     27  C   UNL     1      50.245   2.122  17.011  0.00  0.00    +0.000 C 
ATOM     28  O   UNL     1      49.979   1.566  15.954  0.00  0.00    +0.000 OA
ATOM     29  H   UNL     1      51.444   0.649  17.727  0.00  0.00    +0.000 HD
ATOM     30  H   UNL     1      51.120   1.885  18.889  0.00  0.00    +0.000 HD
ENDBRANCH  20  27
ENDBRANCH  19  23
ENDBRANCH   1  19
TORSDOF 5
ENDMDL
MODEL 9
REMARK VINA RESULT:    -6.830      4.795      8.341
REMARK INTER + INTRA:          -9.419
REMARK INTER:                  -9.423
REMARK INTRA:                   0.003
REMARK UNBOUND:                -0.592
REMARK  Name = 
REMARK  5 active torsions:
REMARK  status: ('A' for Active; 'I' for Inactive)
REMARK    1  A    between atoms: C_2  and  C_4
REMARK    2  A    between atoms: C_7  and  O_8
REMARK    3  A    between atoms: O_8  and  C_9
REMARK    4  A    between atoms: C_9  and  C_10
REMARK    5  A    between atoms: C_15  and  N_16
REMARK                            x       y       z     vdW  Elec       q    Type
REMARK                         _______ _______ _______ _____ _____    ______ ____
ROOT
ATOM      1  C   UNL     1      48.118   3.807  16.680  0.00  0.00    +0.000 C 
ATOM      2  C   UNL     1      47.949   4.159  18.149  0.00  0.00    +0.000 C 
ATOM      3  C   UNL     1      46.966   3.242  17.500  0.00  0.00    +0.000 C 
ENDROOT
BRANCH   1   4
ATOM      4  C   UNL     1      47.818   4.914  15.682  0.00  0.00    +0.000 A 
ATOM      5  C   UNL     1      48.592   6.077  15.609  0.00  0.00    +0.000 A 
ATOM      6  C   UNL     1      48.548   6.877  14.470  0.00  0.00    +0.000 A 
ATOM      7  C   UNL     1      47.700   6.540  13.415  0.00  0.00    +0.000 A 
ATOM      8  F   UNL     1      47.760   7.291  12.304  0.00  0.00    +0.000 F 
ATOM      9  C   UNL     1      46.801   5.469  13.499  0.00  0.00    +0.000 A 
ATOM     10  C   UNL     1      46.862   4.699  14.669  0.00  0.00    +0.000 A 
BRANCH   9  11
ATOM     11  N   UNL     1      45.930   5.101  12.487  0.00  0.00    +0.000 N 
ATOM     12  C   UNL     1      45.536   6.034  11.434  0.00  0.00    +0.000 C 
ATOM     13  C   UNL     1      44.040   6.279  11.502  0.00  0.00    +0.000 C 
ATOM     14  C   UNL     1      43.307   4.954  11.541  0.00  0.00    +0.000 C 
ATOM     15  F   UNL     1      41.974   5.185  11.679  0.00  0.00    +0.000 F 
ATOM     16  F   UNL     1      43.454   4.321  10.345  0.00  0.00    +0.000 F 
ATOM     17  C   UNL     1      43.770   4.036  12.652  0.00  0.00    +0.000 C 
ATOM     18  C   UNL     1      45.264   3.801  12.515  0.00  0.00    +0.000 C 
ENDBRANCH   9  11
ENDBRANCH   1   4
BRANCH   1  19
ATOM     19  O   UNL     1      49.031   2.760  16.300  0.00  0.00    +0.000 OA
BRANCH  19  23
ATOM     20  C   UNL     1      52.718   2.526  18.058  0.00  0.00    +0.000 A 
ATOM     21  C   UNL     1      52.014   1.355  17.770  0.00  0.00    +0.000 A 
ATOM     22  C   UNL     1      50.748   1.457  17.208  0.00  0.00    +0.000 A 
ATOM     23  C   UNL     1      50.243   2.722  16.963  0.00  0.00    +0.000 A 
ATOM     24  N   UNL     1      50.870   3.871  17.303  0.00  0.00    +0.000 NA
ATOM     25  C   UNL     1      52.099   3.747  17.852  0.00  0.00    +0.000 A 
BRANCH  20  27
ATOM     26  N   UNL     1      54.373   1.841  19.662  0.00  0.00    +0.000 N 
ATOM     27  C   UNL     1      54.127   2.493  18.493  0.00  0.00    +0.000 C 
ATOM     28  O   UNL     1      55.020   2.967  17.805  0.00  0.00    +0.000 OA
ATOM     29  H   UNL     1      55.350   1.684  19.897  0.00  0.00    +0.000 HD
ATOM     30  H   UNL     1      53.696   1.225  20.091  0.00  0.00    +0.000 HD
ENDBRANCH  20  27
ENDBRANCH  19  23
ENDBRANCH   1  19
TORSDOF 5
ENDMDL
