MODEL 1
REMARK VINA RESULT:    -6.968      0.000      0.000
REMARK INTER + INTRA:         -12.175
REMARK INTER:                 -10.839
REMARK INTRA:                  -1.336
REMARK UNBOUND:                -1.336
REMARK  Name = 
REMARK  10 active torsions:
REMARK  status: ('A' for Active; 'I' for Inactive)
REMARK    1  A    between atoms: N_1  and  C_2
REMARK    2  A    between atoms: C_2  and  C_3
REMARK    3  A    between atoms: C_3  and  N_4
REMARK    4  A    between atoms: N_4  and  C_5
REMARK    5  A    between atoms: C_5  and  C_6
REMARK    6  A    between atoms: C_9  and  C_10
REMARK    7  A    between atoms: C_10  and  C_11
REMARK    8  A    between atoms: C_14  and  C_15
REMARK    9  A    between atoms: C_15  and  N_16
REMARK   10  A    between atoms: C_17  and  C_19
REMARK                            x       y       z     vdW  Elec       q    Type
REMARK                         _______ _______ _______ _____ _____    ______ ____
ROOT
ATOM      1  C   UNL     1      45.709   6.533  12.837  0.00  0.00    +0.000 A 
ATOM      2  C   UNL     1      46.744   5.708  13.270  0.00  0.00    +0.000 A 
ATOM      3  C   UNL     1      47.867   6.288  13.862  0.00  0.00    +0.000 A 
ATOM      4  C   UNL     1      47.926   7.672  14.027  0.00  0.00    +0.000 A 
ATOM      5  C   UNL     1      46.862   8.417  13.533  0.00  0.00    +0.000 A 
ATOM      6  N   UNL     1      45.764   7.884  12.951  0.00  0.00    +0.000 NA
ENDROOT
BRANCH   1   7
ATOM      7  C   UNL     1      44.441   5.947  12.259  0.00  0.00    +0.000 C 
BRANCH   7  11
ATOM      8  C   UNL     1      45.014   3.279   8.981  0.00  0.00    +0.000 A 
ATOM      9  C   UNL     1      45.603   4.537   8.920  0.00  0.00    +0.000 A 
ATOM     10  C   UNL     1      45.431   5.416   9.987  0.00  0.00    +0.000 A 
ATOM     11  C   UNL     1      44.671   5.024  11.091  0.00  0.00    +0.000 A 
ATOM     12  C   UNL     1      44.112   3.749  11.060  0.00  0.00    +0.000 A 
ATOM     13  N   UNL     1      44.268   2.873  10.040  0.00  0.00    +0.000 NA
BRANCH   8  14
ATOM     14  C   UNL     1      45.282   2.264   7.884  0.00  0.00    +0.000 C 
BRANCH  14  15
ATOM     15  N   UNL     1      46.078   1.098   8.325  0.00  0.00    +0.000 NA
ATOM     16  H   UNL     1      46.477   1.350   9.234  0.00  0.00    +0.000 HD
BRANCH  15  17
ATOM     17  C   UNL     1      47.234   0.854   7.440  0.00  0.00    +0.000 C 
BRANCH  17  18
ATOM     18  C   UNL     1      47.829   2.135   6.823  0.00  0.00    +0.000 C 
BRANCH  18  19
ATOM     19  N   UNL     1      48.546   1.836   5.576  0.00  0.00    +0.000 NA
ATOM     20  H   UNL     1      48.084   1.053   5.116  0.00  0.00    +0.000 HD
ATOM     21  H   UNL     1      49.486   1.515   5.809  0.00  0.00    +0.000 HD
ENDBRANCH  18  19
ENDBRANCH  17  18
ENDBRANCH  15  17
ENDBRANCH  14  15
ENDBRANCH   8  14
ENDBRANCH   7  11
ENDBRANCH   1   7
BRANCH   4  22
ATOM     22  C   UNL     1      49.097   8.347  14.674  0.00  0.00    +0.000 C 
BRANCH  22  23
ATOM     23  N   UNL     1      49.277   7.893  16.030  0.00  0.00    +0.000 N 
ATOM     24  C   UNL     1      48.632   8.503  17.075  0.00  0.00    +0.000 C 
ATOM     25  O   UNL     1      47.829   9.415  16.899  0.00  0.00    +0.000 OA
ATOM     26  H   UNL     1      50.085   7.310  16.219  0.00  0.00    +0.000 HD
BRANCH  24  27
ATOM     27  C   UNL     1      48.906   7.966  18.414  0.00  0.00    +0.000 A 
ATOM     28  C   UNL     1      49.435   8.798  19.391  0.00  0.00    +0.000 A 
ATOM     29  S   UNL     1      49.639   8.033  20.902  0.00  0.00    +0.000 S 
ATOM     30  C   UNL     1      49.081   6.549  20.287  0.00  0.00    +0.000 A 
ATOM     31  N   UNL     1      49.026   5.439  21.076  0.00  0.00    +0.000 NA
ATOM     32  C   UNL     1      48.617   4.377  20.473  0.00  0.00    +0.000 A 
ATOM     33  N   UNL     1      48.252   4.317  19.153  0.00  0.00    +0.000 N 
ATOM     34  C   UNL     1      48.258   5.416  18.328  0.00  0.00    +0.000 A 
ATOM     35  O   UNL     1      47.876   5.346  17.165  0.00  0.00    +0.000 OA
ATOM     36  C   UNL     1      48.726   6.640  18.955  0.00  0.00    +0.000 A 
ATOM     37  H   UNL     1      47.930   3.454  18.743  0.00  0.00    +0.000 HD
ENDBRANCH  24  27
ENDBRANCH  22  23
ENDBRANCH   4  22
TORSDOF 10
ENDMDL
MODEL 2
REMARK VINA RESULT:    -6.737      5.472      7.904
REMARK INTER + INTRA:         -11.815
REMARK INTER:                 -10.826
REMARK INTRA:                  -0.988
REMARK UNBOUND:                -1.336
REMARK  Name = 
REMARK  10 active torsions:
REMARK  status: ('A' for Active; 'I' for Inactive)
REMARK    1  A    between atoms: N_1  and  C_2
REMARK    2  A    between atoms: C_2  and  C_3
REMARK    3  A    between atoms: C_3  and  N_4
REMARK    4  A    between atoms: N_4  and  C_5
REMARK    5  A    between atoms: C_5  and  C_6
REMARK    6  A    between atoms: C_9  and  C_10
REMARK    7  A    between atoms: C_10  and  C_11
REMARK    8  A    between atoms: C_14  and  C_15
REMARK    9  A    between atoms: C_15  and  N_16
REMARK   10  A    between atoms: C_17  and  C_19
REMARK                            x       y       z     vdW  Elec       q    Type
REMARK                         _______ _______ _______ _____ _____    ______ ____
ROOT
ATOM      1  C   UNL     1      47.426   7.121  12.663  0.00  0.00    +0.000 A 
ATOM      2  C   UNL     1      47.416   8.416  12.150  0.00  0.00    +0.000 A 
ATOM      3  C   UNL     1      48.628   9.014  11.803  0.00  0.00    +0.000 A 
ATOM      4  C   UNL     1      49.820   8.305  11.955  0.00  0.00    +0.000 A 
ATOM      5  C   UNL     1      49.735   7.031  12.506  0.00  0.00    +0.000 A 
ATOM      6  N   UNL     1      48.576   6.429  12.857  0.00  0.00    +0.000 NA
ENDROOT
BRANCH   1   7
ATOM      7  C   UNL     1      46.135   6.404  12.983  0.00  0.00    +0.000 C 
BRANCH   7  11
ATOM      8  C   UNL     1      44.908   3.513  10.096  0.00  0.00    +0.000 A 
ATOM      9  C   UNL     1      45.240   4.789   9.655  0.00  0.00    +0.000 A 
ATOM     10  C   UNL     1      45.649   5.742  10.585  0.00  0.00    +0.000 A 
ATOM     11  C   UNL     1      45.716   5.403  11.939  0.00  0.00    +0.000 A 
ATOM     12  C   UNL     1      45.356   4.104  12.289  0.00  0.00    +0.000 A 
ATOM     13  N   UNL     1      44.960   3.158  11.406  0.00  0.00    +0.000 NA
BRANCH   8  14
ATOM     14  C   UNL     1      44.570   2.428   9.090  0.00  0.00    +0.000 C 
BRANCH  14  15
ATOM     15  N   UNL     1      45.720   1.579   8.711  0.00  0.00    +0.000 NA
ATOM     16  H   UNL     1      46.354   1.580   9.515  0.00  0.00    +0.000 HD
BRANCH  15  17
ATOM     17  C   UNL     1      46.493   2.164   7.597  0.00  0.00    +0.000 C 
BRANCH  17  18
ATOM     18  C   UNL     1      47.618   1.251   7.073  0.00  0.00    +0.000 C 
BRANCH  18  19
ATOM     19  N   UNL     1      48.276   1.844   5.900  0.00  0.00    +0.000 NA
ATOM     20  H   UNL     1      48.762   2.690   6.195  0.00  0.00    +0.000 HD
ATOM     21  H   UNL     1      47.558   2.145   5.241  0.00  0.00    +0.000 HD
ENDBRANCH  18  19
ENDBRANCH  17  18
ENDBRANCH  15  17
ENDBRANCH  14  15
ENDBRANCH   8  14
ENDBRANCH   7  11
ENDBRANCH   1   7
BRANCH   4  22
ATOM     22  C   UNL     1      51.147   8.888  11.579  0.00  0.00    +0.000 C 
BRANCH  22  23
ATOM     23  N   UNL     1      51.541   8.478  10.255  0.00  0.00    +0.000 N 
ATOM     24  C   UNL     1      52.840   8.601   9.831  0.00  0.00    +0.000 C 
ATOM     25  O   UNL     1      53.731   9.002  10.573  0.00  0.00    +0.000 OA
ATOM     26  H   UNL     1      50.805   8.363   9.568  0.00  0.00    +0.000 HD
BRANCH  24  27
ATOM     27  C   UNL     1      53.120   8.168   8.456  0.00  0.00    +0.000 A 
ATOM     28  C   UNL     1      53.052   9.088   7.420  0.00  0.00    +0.000 A 
ATOM     29  S   UNL     1      53.461   8.436   5.897  0.00  0.00    +0.000 S 
ATOM     30  C   UNL     1      53.689   6.886   6.563  0.00  0.00    +0.000 A 
ATOM     31  N   UNL     1      54.035   5.829   5.776  0.00  0.00    +0.000 NA
ATOM     32  C   UNL     1      54.141   4.710   6.404  0.00  0.00    +0.000 A 
ATOM     33  N   UNL     1      53.937   4.545   7.751  0.00  0.00    +0.000 N 
ATOM     34  C   UNL     1      53.621   5.587   8.588  0.00  0.00    +0.000 A 
ATOM     35  O   UNL     1      53.497   5.420   9.797  0.00  0.00    +0.000 OA
ATOM     36  C   UNL     1      53.475   6.871   7.928  0.00  0.00    +0.000 A 
ATOM     37  H   UNL     1      54.046   3.641   8.184  0.00  0.00    +0.000 HD
ENDBRANCH  24  27
ENDBRANCH  22  23
ENDBRANCH   4  22
TORSDOF 10
ENDMDL
MODEL 3
REMARK VINA RESULT:    -6.607      3.104      9.112
REMARK INTER + INTRA:         -11.612
REMARK INTER:                 -10.306
REMARK INTRA:                  -1.306
REMARK UNBOUND:                -1.336
REMARK  Name = 
REMARK  10 active torsions:
REMARK  status: ('A' for Active; 'I' for Inactive)
REMARK    1  A    between atoms: N_1  and  C_2
REMARK    2  A    between atoms: C_2  and  C_3
REMARK    3  A    between atoms: C_3  and  N_4
REMARK    4  A    between atoms: N_4  and  C_5
REMARK    5  A    between atoms: C_5  and  C_6
REMARK    6  A    between atoms: C_9  and  C_10
REMARK    7  A    between atoms: C_10  and  C_11
REMARK    8  A    between atoms: C_14  and  C_15
REMARK    9  A    between atoms: C_15  and  N_16
REMARK   10  A    between atoms: C_17  and  C_19
REMARK                            x       y       z     vdW  Elec       q    Type
REMARK                         _______ _______ _______ _____ _____    ______ ____
ROOT
ATOM      1  C   UNL     1      49.903   8.569  15.382  0.00  0.00    +0.000 A 
ATOM      2  C   UNL     1      49.072   9.588  14.921  0.00  0.00    +0.000 A 
ATOM      3  C   UNL     1      48.465   9.450  13.673  0.00  0.00    +0.000 A 
ATOM      4  C   UNL     1      48.683   8.296  12.919  0.00  0.00    +0.000 A 
ATOM      5  C   UNL     1      49.554   7.349  13.445  0.00  0.00    +0.000 A 
ATOM      6  N   UNL     1      50.160   7.457  14.649  0.00  0.00    +0.000 NA
ENDROOT
BRANCH   1   7
ATOM      7  C   UNL     1      50.523   8.638  16.759  0.00  0.00    +0.000 C 
BRANCH   7  11
ATOM      8  C   UNL     1      49.223   5.618  19.477  0.00  0.00    +0.000 A 
ATOM      9  C   UNL     1      48.261   6.402  18.849  0.00  0.00    +0.000 A 
ATOM     10  C   UNL     1      48.670   7.386  17.953  0.00  0.00    +0.000 A 
ATOM     11  C   UNL     1      50.032   7.573  17.704  0.00  0.00    +0.000 A 
ATOM     12  C   UNL     1      50.923   6.748  18.387  0.00  0.00    +0.000 A 
ATOM     13  N   UNL     1      50.553   5.781  19.257  0.00  0.00    +0.000 NA
BRANCH   8  14
ATOM     14  C   UNL     1      48.797   4.466  20.368  0.00  0.00    +0.000 C 
BRANCH  14  15
ATOM     15  N   UNL     1      48.279   3.294  19.630  0.00  0.00    +0.000 NA
ATOM     16  H   UNL     1      48.518   2.472  20.193  0.00  0.00    +0.000 HD
BRANCH  15  17
ATOM     17  C   UNL     1      48.972   3.104  18.340  0.00  0.00    +0.000 C 
BRANCH  17  18
ATOM     18  C   UNL     1      48.021   2.889  17.147  0.00  0.00    +0.000 C 
BRANCH  18  19
ATOM     19  N   UNL     1      46.644   3.267  17.494  0.00  0.00    +0.000 NA
ATOM     20  H   UNL     1      46.166   3.565  16.645  0.00  0.00    +0.000 HD
ATOM     21  H   UNL     1      46.675   4.084  18.104  0.00  0.00    +0.000 HD
ENDBRANCH  18  19
ENDBRANCH  17  18
ENDBRANCH  15  17
ENDBRANCH  14  15
ENDBRANCH   8  14
ENDBRANCH   7  11
ENDBRANCH   1   7
BRANCH   4  22
ATOM     22  C   UNL     1      48.040   8.085  11.582  0.00  0.00    +0.000 C 
BRANCH  22  23
ATOM     23  N   UNL     1      47.241   6.887  11.571  0.00  0.00    +0.000 N 
ATOM     24  C   UNL     1      45.877   6.941  11.710  0.00  0.00    +0.000 C 
ATOM     25  O   UNL     1      45.274   8.008  11.786  0.00  0.00    +0.000 OA
ATOM     26  H   UNL     1      47.720   6.009  11.736  0.00  0.00    +0.000 HD
BRANCH  24  27
ATOM     27  C   UNL     1      45.169   5.655  11.702  0.00  0.00    +0.000 A 
ATOM     28  C   UNL     1      44.511   5.227  12.847  0.00  0.00    +0.000 A 
ATOM     29  S   UNL     1      43.692   3.743  12.651  0.00  0.00    +0.000 S 
ATOM     30  C   UNL     1      44.237   3.594  11.046  0.00  0.00    +0.000 A 
ATOM     31  N   UNL     1      43.908   2.507  10.292  0.00  0.00    +0.000 NA
ATOM     32  C   UNL     1      44.415   2.506   9.108  0.00  0.00    +0.000 A 
ATOM     33  N   UNL     1      45.219   3.495   8.601  0.00  0.00    +0.000 N 
ATOM     34  C   UNL     1      45.549   4.624   9.310  0.00  0.00    +0.000 A 
ATOM     35  O   UNL     1      46.226   5.517   8.812  0.00  0.00    +0.000 OA
ATOM     36  C   UNL     1      45.015   4.668  10.659  0.00  0.00    +0.000 A 
ATOM     37  H   UNL     1      45.577   3.439   7.659  0.00  0.00    +0.000 HD
ENDBRANCH  24  27
ENDBRANCH  22  23
ENDBRANCH   4  22
TORSDOF 10
ENDMDL
MODEL 4
REMARK VINA RESULT:    -6.503      4.816      9.487
REMARK INTER + INTRA:         -11.451
REMARK INTER:                 -10.403
REMARK INTRA:                  -1.049
REMARK UNBOUND:                -1.336
REMARK  Name = 
REMARK  10 active torsions:
REMARK  status: ('A' for Active; 'I' for Inactive)
REMARK    1  A    between atoms: N_1  and  C_2
REMARK    2  A    between atoms: C_2  and  C_3
REMARK    3  A    between atoms: C_3  and  N_4
REMARK    4  A    between atoms: N_4  and  C_5
REMARK    5  A    between atoms: C_5  and  C_6
REMARK    6  A    between atoms: C_9  and  C_10
REMARK    7  A    between atoms: C_10  and  C_11
REMARK    8  A    between atoms: C_14  and  C_15
REMARK    9  A    between atoms: C_15  and  N_16
REMARK   10  A    between atoms: C_17  and  C_19
REMARK                            x       y       z     vdW  Elec       q    Type
REMARK                         _______ _______ _______ _____ _____    ______ ____
ROOT
ATOM      1  C   UNL     1      49.491   5.574  16.843  0.00  0.00    +0.000 A 
ATOM      2  C   UNL     1      50.238   6.601  16.269  0.00  0.00    +0.000 A 
ATOM      3  C   UNL     1      49.793   7.173  15.077  0.00  0.00    +0.000 A 
ATOM      4  C   UNL     1      48.608   6.726  14.493  0.00  0.00    +0.000 A 
ATOM      5  C   UNL     1      47.948   5.675  15.119  0.00  0.00    +0.000 A 
ATOM      6  N   UNL     1      48.358   5.097  16.271  0.00  0.00    +0.000 NA
ENDROOT
BRANCH   1   7
ATOM      7  C   UNL     1      49.891   4.974  18.171  0.00  0.00    +0.000 C 
BRANCH   7  11
ATOM      8  C   UNL     1      52.653   1.732  17.918  0.00  0.00    +0.000 A 
ATOM      9  C   UNL     1      51.393   1.574  17.352  0.00  0.00    +0.000 A 
ATOM     10  C   UNL     1      50.483   2.627  17.420  0.00  0.00    +0.000 A 
ATOM     11  C   UNL     1      50.848   3.816  18.056  0.00  0.00    +0.000 A 
ATOM     12  C   UNL     1      52.127   3.880  18.603  0.00  0.00    +0.000 A 
ATOM     13  N   UNL     1      53.031   2.875  18.546  0.00  0.00    +0.000 NA
BRANCH   8  14
ATOM     14  C   UNL     1      53.697   0.644  17.757  0.00  0.00    +0.000 C 
BRANCH  14  15
ATOM     15  N   UNL     1      53.326  -0.644  18.385  0.00  0.00    +0.000 NA
ATOM     16  H   UNL     1      53.072  -0.427  19.353  0.00  0.00    +0.000 HD
BRANCH  15  17
ATOM     17  C   UNL     1      54.477  -1.564  18.475  0.00  0.00    +0.000 C 
BRANCH  17  18
ATOM     18  C   UNL     1      54.133  -2.933  19.095  0.00  0.00    +0.000 C 
BRANCH  18  19
ATOM     19  N   UNL     1      52.679  -3.112  19.205  0.00  0.00    +0.000 NA
ATOM     20  H   UNL     1      52.403  -2.937  20.171  0.00  0.00    +0.000 HD
ATOM     21  H   UNL     1      52.457  -4.090  19.020  0.00  0.00    +0.000 HD
ENDBRANCH  18  19
ENDBRANCH  17  18
ENDBRANCH  15  17
ENDBRANCH  14  15
ENDBRANCH   8  14
ENDBRANCH   7  11
ENDBRANCH   1   7
BRANCH   4  22
ATOM     22  C   UNL     1      48.071   7.318  13.225  0.00  0.00    +0.000 C 
BRANCH  22  23
ATOM     23  N   UNL     1      47.353   6.337  12.454  0.00  0.00    +0.000 N 
ATOM     24  C   UNL     1      46.289   6.693  11.665  0.00  0.00    +0.000 C 
ATOM     25  O   UNL     1      45.943   7.863  11.531  0.00  0.00    +0.000 OA
ATOM     26  H   UNL     1      47.469   5.364  12.718  0.00  0.00    +0.000 HD
BRANCH  24  27
ATOM     27  C   UNL     1      45.622   5.605  10.939  0.00  0.00    +0.000 A 
ATOM     28  C   UNL     1      45.694   5.561   9.553  0.00  0.00    +0.000 A 
ATOM     29  S   UNL     1      44.916   4.204   8.871  0.00  0.00    +0.000 S 
ATOM     30  C   UNL     1      44.408   3.659  10.401  0.00  0.00    +0.000 A 
ATOM     31  N   UNL     1      43.657   2.530  10.529  0.00  0.00    +0.000 NA
ATOM     32  C   UNL     1      43.313   2.253  11.739  0.00  0.00    +0.000 A 
ATOM     33  N   UNL     1      43.655   2.997  12.840  0.00  0.00    +0.000 N 
ATOM     34  C   UNL     1      44.439   4.122  12.763  0.00  0.00    +0.000 A 
ATOM     35  O   UNL     1      44.773   4.738  13.770  0.00  0.00    +0.000 OA
ATOM     36  C   UNL     1      44.841   4.489  11.417  0.00  0.00    +0.000 A 
ATOM     37  H   UNL     1      43.361   2.719  13.764  0.00  0.00    +0.000 HD
ENDBRANCH  24  27
ENDBRANCH  22  23
ENDBRANCH   4  22
TORSDOF 10
ENDMDL
MODEL 5
REMARK VINA RESULT:    -6.333      3.009      4.372
REMARK INTER + INTRA:         -11.187
REMARK INTER:                  -9.869
REMARK INTRA:                  -1.318
REMARK UNBOUND:                -1.336
REMARK  Name = 
REMARK  10 active torsions:
REMARK  status: ('A' for Active; 'I' for Inactive)
REMARK    1  A    between atoms: N_1  and  C_2
REMARK    2  A    between atoms: C_2  and  C_3
REMARK    3  A    between atoms: C_3  and  N_4
REMARK    4  A    between atoms: N_4  and  C_5
REMARK    5  A    between atoms: C_5  and  C_6
REMARK    6  A    between atoms: C_9  and  C_10
REMARK    7  A    between atoms: C_10  and  C_11
REMARK    8  A    between atoms: C_14  and  C_15
REMARK    9  A    between atoms: C_15  and  N_16
REMARK   10  A    between atoms: C_17  and  C_19
REMARK                            x       y       z     vdW  Elec       q    Type
REMARK                         _______ _______ _______ _____ _____    ______ ____
ROOT
ATOM      1  C   UNL     1      48.519   7.916  13.710  0.00  0.00    +0.000 A 
ATOM      2  C   UNL     1      48.020   8.681  14.761  0.00  0.00    +0.000 A 
ATOM      3  C   UNL     1      48.786   8.818  15.919  0.00  0.00    +0.000 A 
ATOM      4  C   UNL     1      50.038   8.207  15.998  0.00  0.00    +0.000 A 
ATOM      5  C   UNL     1      50.439   7.436  14.913  0.00  0.00    +0.000 A 
ATOM      6  N   UNL     1      49.716   7.281  13.781  0.00  0.00    +0.000 NA
ENDROOT
BRANCH   1   7
ATOM      7  C   UNL     1      47.760   7.799  12.407  0.00  0.00    +0.000 C 
BRANCH   7  11
ATOM      8  C   UNL     1      44.351   5.238  12.511  0.00  0.00    +0.000 A 
ATOM      9  C   UNL     1      45.432   4.934  13.331  0.00  0.00    +0.000 A 
ATOM     10  C   UNL     1      46.549   5.766  13.314  0.00  0.00    +0.000 A 
ATOM     11  C   UNL     1      46.567   6.882  12.475  0.00  0.00    +0.000 A 
ATOM     12  C   UNL     1      45.444   7.102  11.681  0.00  0.00    +0.000 A 
ATOM     13  N   UNL     1      44.344   6.314  11.683  0.00  0.00    +0.000 NA
BRANCH   8  14
ATOM     14  C   UNL     1      43.080   4.412  12.596  0.00  0.00    +0.000 C 
BRANCH  14  15
ATOM     15  N   UNL     1      42.821   3.582  11.400  0.00  0.00    +0.000 NA
ATOM     16  H   UNL     1      42.213   2.817  11.709  0.00  0.00    +0.000 HD
BRANCH  15  17
ATOM     17  C   UNL     1      44.050   2.933  10.902  0.00  0.00    +0.000 C 
BRANCH  17  18
ATOM     18  C   UNL     1      44.291   3.128   9.393  0.00  0.00    +0.000 C 
BRANCH  18  19
ATOM     19  N   UNL     1      44.297   4.554   9.040  0.00  0.00    +0.000 NA
ATOM     20  H   UNL     1      45.248   4.823   8.791  0.00  0.00    +0.000 HD
ATOM     21  H   UNL     1      44.058   5.097   9.870  0.00  0.00    +0.000 HD
ENDBRANCH  18  19
ENDBRANCH  17  18
ENDBRANCH  15  17
ENDBRANCH  14  15
ENDBRANCH   8  14
ENDBRANCH   7  11
ENDBRANCH   1   7
BRANCH   4  22
ATOM     22  C   UNL     1      50.913   8.338  17.208  0.00  0.00    +0.000 C 
BRANCH  22  23
ATOM     23  N   UNL     1      51.627   7.115  17.470  0.00  0.00    +0.000 N 
ATOM     24  C   UNL     1      51.123   6.167  18.324  0.00  0.00    +0.000 C 
ATOM     25  O   UNL     1      50.020   6.287  18.850  0.00  0.00    +0.000 OA
ATOM     26  H   UNL     1      52.614   7.096  17.236  0.00  0.00    +0.000 HD
BRANCH  24  27
ATOM     27  C   UNL     1      51.947   4.969  18.528  0.00  0.00    +0.000 A 
ATOM     28  C   UNL     1      53.133   5.067  19.243  0.00  0.00    +0.000 A 
ATOM     29  S   UNL     1      53.938   3.576  19.438  0.00  0.00    +0.000 S 
ATOM     30  C   UNL     1      52.759   2.758  18.525  0.00  0.00    +0.000 A 
ATOM     31  N   UNL     1      52.862   1.421  18.282  0.00  0.00    +0.000 NA
ATOM     32  C   UNL     1      51.919   0.938  17.549  0.00  0.00    +0.000 A 
ATOM     33  N   UNL     1      50.875   1.665  17.038  0.00  0.00    +0.000 N 
ATOM     34  C   UNL     1      50.710   3.007  17.285  0.00  0.00    +0.000 A 
ATOM     35  O   UNL     1      49.738   3.620  16.859  0.00  0.00    +0.000 OA
ATOM     36  C   UNL     1      51.756   3.605  18.095  0.00  0.00    +0.000 A 
ATOM     37  H   UNL     1      50.161   1.224  16.478  0.00  0.00    +0.000 HD
ENDBRANCH  24  27
ENDBRANCH  22  23
ENDBRANCH   4  22
TORSDOF 10
ENDMDL
MODEL 6
REMARK VINA RESULT:    -6.299      1.499      2.012
REMARK INTER + INTRA:         -11.133
REMARK INTER:                 -10.153
REMARK INTRA:                  -0.980
REMARK UNBOUND:                -1.336
REMARK  Name = 
REMARK  10 active torsions:
REMARK  status: ('A' for Active; 'I' for Inactive)
REMARK    1  A    between atoms: N_1  and  C_2
REMARK    2  A    between atoms: C_2  and  C_3
REMARK    3  A    between atoms: C_3  and  N_4
REMARK    4  A    between atoms: N_4  and  C_5
REMARK    5  A    between atoms: C_5  and  C_6
REMARK    6  A    between atoms: C_9  and  C_10
REMARK    7  A    between atoms: C_10  and  C_11
REMARK    8  A    between atoms: C_14  and  C_15
REMARK    9  A    between atoms: C_15  and  N_16
REMARK   10  A    between atoms: C_17  and  C_19
REMARK                            x       y       z     vdW  Elec       q    Type
REMARK                         _______ _______ _______ _____ _____    ______ ____
ROOT
ATOM      1  C   UNL     1      44.660   6.310  11.645  0.00  0.00    +0.000 A 
ATOM      2  C   UNL     1      44.575   7.697  11.556  0.00  0.00    +0.000 A 
ATOM      3  C   UNL     1      45.539   8.475  12.199  0.00  0.00    +0.000 A 
ATOM      4  C   UNL     1      46.575   7.856  12.898  0.00  0.00    +0.000 A 
ATOM      5  C   UNL     1      46.560   6.467  12.961  0.00  0.00    +0.000 A 
ATOM      6  N   UNL     1      45.636   5.688  12.353  0.00  0.00    +0.000 NA
ENDROOT
BRANCH   1   7
ATOM      7  C   UNL     1      43.684   5.424  10.904  0.00  0.00    +0.000 C 
BRANCH   7  11
ATOM      8  C   UNL     1      45.611   2.470   8.505  0.00  0.00    +0.000 A 
ATOM      9  C   UNL     1      44.723   2.048   9.488  0.00  0.00    +0.000 A 
ATOM     10  C   UNL     1      44.081   3.002  10.274  0.00  0.00    +0.000 A 
ATOM     11  C   UNL     1      44.340   4.358  10.066  0.00  0.00    +0.000 A 
ATOM     12  C   UNL     1      45.251   4.687   9.066  0.00  0.00    +0.000 A 
ATOM     13  N   UNL     1      45.885   3.782   8.285  0.00  0.00    +0.000 NA
BRANCH   8  14
ATOM     14  C   UNL     1      46.235   1.458   7.563  0.00  0.00    +0.000 C 
BRANCH  14  15
ATOM     15  N   UNL     1      47.706   1.566   7.451  0.00  0.00    +0.000 NA
ATOM     16  H   UNL     1      47.996   2.258   8.148  0.00  0.00    +0.000 HD
BRANCH  15  17
ATOM     17  C   UNL     1      48.121   2.121   6.147  0.00  0.00    +0.000 C 
BRANCH  17  18
ATOM     18  C   UNL     1      46.950   2.635   5.288  0.00  0.00    +0.000 C 
BRANCH  18  19
ATOM     19  N   UNL     1      46.750   4.078   5.476  0.00  0.00    +0.000 NA
ATOM     20  H   UNL     1      47.553   4.453   5.980  0.00  0.00    +0.000 HD
ATOM     21  H   UNL     1      45.943   4.218   6.085  0.00  0.00    +0.000 HD
ENDBRANCH  18  19
ENDBRANCH  17  18
ENDBRANCH  15  17
ENDBRANCH  14  15
ENDBRANCH   8  14
ENDBRANCH   7  11
ENDBRANCH   1   7
BRANCH   4  22
ATOM     22  C   UNL     1      47.649   8.640  13.589  0.00  0.00    +0.000 C 
BRANCH  22  23
ATOM     23  N   UNL     1      47.642   8.395  15.009  0.00  0.00    +0.000 N 
ATOM     24  C   UNL     1      48.795   8.078  15.680  0.00  0.00    +0.000 C 
ATOM     25  O   UNL     1      49.887   8.052  15.120  0.00  0.00    +0.000 OA
ATOM     26  H   UNL     1      46.747   8.191  15.439  0.00  0.00    +0.000 HD
BRANCH  24  27
ATOM     27  C   UNL     1      48.664   7.832  17.122  0.00  0.00    +0.000 A 
ATOM     28  C   UNL     1      48.511   8.905  17.989  0.00  0.00    +0.000 A 
ATOM     29  S   UNL     1      48.314   8.443  19.620  0.00  0.00    +0.000 S 
ATOM     30  C   UNL     1      48.485   6.796  19.230  0.00  0.00    +0.000 A 
ATOM     31  N   UNL     1      48.441   5.838  20.198  0.00  0.00    +0.000 NA
ATOM     32  C   UNL     1      48.617   4.637  19.767  0.00  0.00    +0.000 A 
ATOM     33  N   UNL     1      48.831   4.299  18.455  0.00  0.00    +0.000 N 
ATOM     34  C   UNL     1      48.848   5.226  17.441  0.00  0.00    +0.000 A 
ATOM     35  O   UNL     1      48.988   4.890  16.270  0.00  0.00    +0.000 OA
ATOM     36  C   UNL     1      48.669   6.600  17.875  0.00  0.00    +0.000 A 
ATOM     37  H   UNL     1      48.952   3.336  18.181  0.00  0.00    +0.000 HD
ENDBRANCH  24  27
ENDBRANCH  22  23
ENDBRANCH   4  22
TORSDOF 10
ENDMDL
MODEL 7
REMARK VINA RESULT:    -5.844      1.738      2.078
REMARK INTER + INTRA:         -10.425
REMARK INTER:                  -9.124
REMARK INTRA:                  -1.301
REMARK UNBOUND:                -1.336
REMARK  Name = 
REMARK  10 active torsions:
REMARK  status: ('A' for Active; 'I' for Inactive)
REMARK    1  A    between atoms: N_1  and  C_2
REMARK    2  A    between atoms: C_2  and  C_3
REMARK    3  A    between atoms: C_3  and  N_4
REMARK    4  A    between atoms: N_4  and  C_5
REMARK    5  A    between atoms: C_5  and  C_6
REMARK    6  A    between atoms: C_9  and  C_10
REMARK    7  A    between atoms: C_10  and  C_11
REMARK    8  A    between atoms: C_14  and  C_15
REMARK    9  A    between atoms: C_15  and  N_16
REMARK   10  A    between atoms: C_17  and  C_19
REMARK                            x       y       z     vdW  Elec       q    Type
REMARK                         _______ _______ _______ _____ _____    ______ ____
ROOT
ATOM      1  C   UNL     1      46.357   7.413  12.481  0.00  0.00    +0.000 A 
ATOM      2  C   UNL     1      46.941   8.673  12.586  0.00  0.00    +0.000 A 
ATOM      3  C   UNL     1      48.188   8.789  13.202  0.00  0.00    +0.000 A 
ATOM      4  C   UNL     1      48.833   7.649  13.681  0.00  0.00    +0.000 A 
ATOM      5  C   UNL     1      48.158   6.439  13.562  0.00  0.00    +0.000 A 
ATOM      6  N   UNL     1      46.948   6.297  12.976  0.00  0.00    +0.000 NA
ENDROOT
BRANCH   1   7
ATOM      7  C   UNL     1      45.043   7.226  11.757  0.00  0.00    +0.000 C 
BRANCH   7  11
ATOM      8  C   UNL     1      44.706   3.428   9.845  0.00  0.00    +0.000 A 
ATOM      9  C   UNL     1      43.958   3.659  10.994  0.00  0.00    +0.000 A 
ATOM     10  C   UNL     1      44.052   4.897  11.625  0.00  0.00    +0.000 A 
ATOM     11  C   UNL     1      44.894   5.880  11.098  0.00  0.00    +0.000 A 
ATOM     12  C   UNL     1      45.612   5.556   9.950  0.00  0.00    +0.000 A 
ATOM     13  N   UNL     1      45.535   4.363   9.315  0.00  0.00    +0.000 NA
BRANCH   8  14
ATOM     14  C   UNL     1      44.534   2.130   9.078  0.00  0.00    +0.000 C 
BRANCH  14  15
ATOM     15  N   UNL     1      45.256   2.093   7.788  0.00  0.00    +0.000 NA
ATOM     16  H   UNL     1      44.667   1.556   7.145  0.00  0.00    +0.000 HD
BRANCH  15  17
ATOM     17  C   UNL     1      46.522   1.339   7.886  0.00  0.00    +0.000 C 
BRANCH  17  18
ATOM     18  C   UNL     1      47.650   1.897   6.997  0.00  0.00    +0.000 C 
BRANCH  18  19
ATOM     19  N   UNL     1      47.617   3.366   6.961  0.00  0.00    +0.000 NA
ATOM     20  H   UNL     1      47.563   3.665   5.988  0.00  0.00    +0.000 HD
ATOM     21  H   UNL     1      48.503   3.721   7.319  0.00  0.00    +0.000 HD
ENDBRANCH  18  19
ENDBRANCH  17  18
ENDBRANCH  15  17
ENDBRANCH  14  15
ENDBRANCH   8  14
ENDBRANCH   7  11
ENDBRANCH   1   7
BRANCH   4  22
ATOM     22  C   UNL     1      50.182   7.711  14.331  0.00  0.00    +0.000 C 
BRANCH  22  23
ATOM     23  N   UNL     1      50.110   7.330  15.719  0.00  0.00    +0.000 N 
ATOM     24  C   UNL     1      51.214   6.861  16.384  0.00  0.00    +0.000 C 
ATOM     25  O   UNL     1      52.319   6.806  15.852  0.00  0.00    +0.000 OA
ATOM     26  H   UNL     1      49.188   7.154  16.103  0.00  0.00    +0.000 HD
BRANCH  24  27
ATOM     27  C   UNL     1      51.017   6.487  17.790  0.00  0.00    +0.000 A 
ATOM     28  C   UNL     1      51.853   7.015  18.764  0.00  0.00    +0.000 A 
ATOM     29  S   UNL     1      51.453   6.525  20.348  0.00  0.00    +0.000 S 
ATOM     30  C   UNL     1      50.184   5.543  19.781  0.00  0.00    +0.000 A 
ATOM     31  N   UNL     1      49.431   4.804  20.643  0.00  0.00    +0.000 NA
ATOM     32  C   UNL     1      48.528   4.081  20.076  0.00  0.00    +0.000 A 
ATOM     33  N   UNL     1      48.302   4.028  18.724  0.00  0.00    +0.000 N 
ATOM     34  C   UNL     1      49.013   4.780  17.821  0.00  0.00    +0.000 A 
ATOM     35  O   UNL     1      48.754   4.753  16.623  0.00  0.00    +0.000 OA
ATOM     36  C   UNL     1      50.056   5.604  18.407  0.00  0.00    +0.000 A 
ATOM     37  H   UNL     1      47.571   3.447  18.344  0.00  0.00    +0.000 HD
ENDBRANCH  24  27
ENDBRANCH  22  23
ENDBRANCH   4  22
TORSDOF 10
ENDMDL
MODEL 8
REMARK VINA RESULT:    -5.748      2.528      3.054
REMARK INTER + INTRA:         -10.277
REMARK INTER:                 -10.021
REMARK INTRA:                  -0.256
REMARK UNBOUND:                -1.336
REMARK  Name = 
REMARK  10 active torsions:
REMARK  status: ('A' for Active; 'I' for Inactive)
REMARK    1  A    between atoms: N_1  and  C_2
REMARK    2  A    between atoms: C_2  and  C_3
REMARK    3  A    between atoms: C_3  and  N_4
REMARK    4  A    between atoms: N_4  and  C_5
REMARK    5  A    between atoms: C_5  and  C_6
REMARK    6  A    between atoms: C_9  and  C_10
REMARK    7  A    between atoms: C_10  and  C_11
REMARK    8  A    between atoms: C_14  and  C_15
REMARK    9  A    between atoms: C_15  and  N_16
REMARK   10  A    between atoms: C_17  and  C_19
REMARK                            x       y       z     vdW  Elec       q    Type
REMARK                         _______ _______ _______ _____ _____    ______ ____
ROOT
ATOM      1  C   UNL     1      44.650   5.850  11.665  0.00  0.00    +0.000 A 
ATOM      2  C   UNL     1      44.837   7.207  11.411  0.00  0.00    +0.000 A 
ATOM      3  C   UNL     1      45.767   7.914  12.173  0.00  0.00    +0.000 A 
ATOM      4  C   UNL     1      46.505   7.252  13.155  0.00  0.00    +0.000 A 
ATOM      5  C   UNL     1      46.227   5.906  13.360  0.00  0.00    +0.000 A 
ATOM      6  N   UNL     1      45.327   5.197  12.642  0.00  0.00    +0.000 NA
ENDROOT
BRANCH   1   7
ATOM      7  C   UNL     1      43.708   5.025  10.817  0.00  0.00    +0.000 C 
BRANCH   7  11
ATOM      8  C   UNL     1      45.741   2.237   8.309  0.00  0.00    +0.000 A 
ATOM      9  C   UNL     1      44.802   1.752   9.214  0.00  0.00    +0.000 A 
ATOM     10  C   UNL     1      44.125   2.651  10.034  0.00  0.00    +0.000 A 
ATOM     11  C   UNL     1      44.401   4.017   9.938  0.00  0.00    +0.000 A 
ATOM     12  C   UNL     1      45.363   4.410   9.011  0.00  0.00    +0.000 A 
ATOM     13  N   UNL     1      46.031   3.558   8.199  0.00  0.00    +0.000 NA
BRANCH   8  14
ATOM     14  C   UNL     1      46.407   1.289   7.329  0.00  0.00    +0.000 C 
BRANCH  14  15
ATOM     15  N   UNL     1      47.872   1.465   7.223  0.00  0.00    +0.000 NA
ATOM     16  H   UNL     1      48.136   2.121   7.964  0.00  0.00    +0.000 HD
BRANCH  15  17
ATOM     17  C   UNL     1      48.258   2.122   5.958  0.00  0.00    +0.000 C 
BRANCH  17  18
ATOM     18  C   UNL     1      47.064   2.645   5.137  0.00  0.00    +0.000 C 
BRANCH  18  19
ATOM     19  N   UNL     1      46.794   4.058   5.440  0.00  0.00    +0.000 NA
ATOM     20  H   UNL     1      46.140   4.418   4.746  0.00  0.00    +0.000 HD
ATOM     21  H   UNL     1      47.657   4.588   5.318  0.00  0.00    +0.000 HD
ENDBRANCH  18  19
ENDBRANCH  17  18
ENDBRANCH  15  17
ENDBRANCH  14  15
ENDBRANCH   8  14
ENDBRANCH   7  11
ENDBRANCH   1   7
BRANCH   4  22
ATOM     22  C   UNL     1      47.533   7.956  13.988  0.00  0.00    +0.000 C 
BRANCH  22  23
ATOM     23  N   UNL     1      47.961   7.135  15.092  0.00  0.00    +0.000 N 
ATOM     24  C   UNL     1      49.291   6.971  15.382  0.00  0.00    +0.000 C 
ATOM     25  O   UNL     1      50.169   7.562  14.759  0.00  0.00    +0.000 OA
ATOM     26  H   UNL     1      47.288   6.475  15.466  0.00  0.00    +0.000 HD
BRANCH  24  27
ATOM     27  C   UNL     1      49.608   6.098  16.518  0.00  0.00    +0.000 A 
ATOM     28  C   UNL     1      48.579   5.505  17.236  0.00  0.00    +0.000 A 
ATOM     29  S   UNL     1      49.119   4.477  18.485  0.00  0.00    +0.000 S 
ATOM     30  C   UNL     1      50.748   4.834  18.147  0.00  0.00    +0.000 A 
ATOM     31  N   UNL     1      51.753   4.287  18.887  0.00  0.00    +0.000 NA
ATOM     32  C   UNL     1      52.935   4.670  18.544  0.00  0.00    +0.000 A 
ATOM     33  N   UNL     1      53.210   5.546  17.525  0.00  0.00    +0.000 N 
ATOM     34  C   UNL     1      52.232   6.094  16.731  0.00  0.00    +0.000 A 
ATOM     35  O   UNL     1      52.510   6.834  15.793  0.00  0.00    +0.000 OA
ATOM     36  C   UNL     1      50.878   5.708  17.085  0.00  0.00    +0.000 A 
ATOM     37  H   UNL     1      54.160   5.798  17.301  0.00  0.00    +0.000 HD
ENDBRANCH  24  27
ENDBRANCH  22  23
ENDBRANCH   4  22
TORSDOF 10
ENDMDL
MODEL 9
REMARK VINA RESULT:    -5.663      3.633      8.376
REMARK INTER + INTRA:         -10.145
REMARK INTER:                  -8.392
REMARK INTRA:                  -1.752
REMARK UNBOUND:                -1.336
REMARK  Name = 
REMARK  10 active torsions:
REMARK  status: ('A' for Active; 'I' for Inactive)
REMARK    1  A    between atoms: N_1  and  C_2
REMARK    2  A    between atoms: C_2  and  C_3
REMARK    3  A    between atoms: C_3  and  N_4
REMARK    4  A    between atoms: N_4  and  C_5
REMARK    5  A    between atoms: C_5  and  C_6
REMARK    6  A    between atoms: C_9  and  C_10
REMARK    7  A    between atoms: C_10  and  C_11
REMARK    8  A    between atoms: C_14  and  C_15
REMARK    9  A    between atoms: C_15  and  N_16
REMARK   10  A    between atoms: C_17  and  C_19
REMARK                            x       y       z     vdW  Elec       q    Type
REMARK                         _______ _______ _______ _____ _____    ______ ____
ROOT
ATOM      1  C   UNL     1      50.397   9.066  15.942  0.00  0.00    +0.000 A 
ATOM      2  C   UNL     1      49.698  10.246  15.695  0.00  0.00    +0.000 A 
ATOM      3  C   UNL     1      49.048  10.400  14.471  0.00  0.00    +0.000 A 
ATOM      4  C   UNL     1      49.090   9.372  13.528  0.00  0.00    +0.000 A 
ATOM      5  C   UNL     1      49.840   8.246  13.849  0.00  0.00    +0.000 A 
ATOM      6  N   UNL     1      50.485   8.071  15.025  0.00  0.00    +0.000 NA
ENDROOT
BRANCH   1   7
ATOM      7  C   UNL     1      51.054   8.821  17.282  0.00  0.00    +0.000 C 
BRANCH   7  11
ATOM      8  C   UNL     1      49.322   5.556  19.412  0.00  0.00    +0.000 A 
ATOM      9  C   UNL     1      50.675   5.497  19.094  0.00  0.00    +0.000 A 
ATOM     10  C   UNL     1      51.256   6.559  18.406  0.00  0.00    +0.000 A 
ATOM     11  C   UNL     1      50.475   7.659  18.044  0.00  0.00    +0.000 A 
ATOM     12  C   UNL     1      49.128   7.627  18.395  0.00  0.00    +0.000 A 
ATOM     13  N   UNL     1      48.539   6.611  19.068  0.00  0.00    +0.000 NA
BRANCH   8  14
ATOM     14  C   UNL     1      48.694   4.465  20.259  0.00  0.00    +0.000 C 
BRANCH  14  15
ATOM     15  N   UNL     1      48.569   3.163  19.567  0.00  0.00    +0.000 NA
ATOM     16  H   UNL     1      49.508   2.754  19.555  0.00  0.00    +0.000 HD
BRANCH  15  17
ATOM     17  C   UNL     1      48.191   3.326  18.150  0.00  0.00    +0.000 C 
BRANCH  17  18
ATOM     18  C   UNL     1      49.105   2.567  17.169  0.00  0.00    +0.000 C 
BRANCH  18  19
ATOM     19  N   UNL     1      48.535   2.558  15.815  0.00  0.00    +0.000 NA
ATOM     20  H   UNL     1      47.975   3.402  15.693  0.00  0.00    +0.000 HD
ATOM     21  H   UNL     1      47.886   1.774  15.740  0.00  0.00    +0.000 HD
ENDBRANCH  18  19
ENDBRANCH  17  18
ENDBRANCH  15  17
ENDBRANCH  14  15
ENDBRANCH   8  14
ENDBRANCH   7  11
ENDBRANCH   1   7
BRANCH   4  22
ATOM     22  C   UNL     1      48.393   9.474  12.206  0.00  0.00    +0.000 C 
BRANCH  22  23
ATOM     23  N   UNL     1      47.571   8.317  11.959  0.00  0.00    +0.000 N 
ATOM     24  C   UNL     1      46.318   8.206  12.505  0.00  0.00    +0.000 C 
ATOM     25  O   UNL     1      45.817   9.108  13.171  0.00  0.00    +0.000 OA
ATOM     26  H   UNL     1      48.036   7.484  11.614  0.00  0.00    +0.000 HD
BRANCH  24  27
ATOM     27  C   UNL     1      45.580   6.974  12.199  0.00  0.00    +0.000 A 
ATOM     28  C   UNL     1      44.417   7.041  11.444  0.00  0.00    +0.000 A 
ATOM     29  S   UNL     1      43.716   5.518  11.131  0.00  0.00    +0.000 S 
ATOM     30  C   UNL     1      44.911   4.721  12.043  0.00  0.00    +0.000 A 
ATOM     31  N   UNL     1      44.883   3.368  12.205  0.00  0.00    +0.000 NA
ATOM     32  C   UNL     1      45.827   2.901  12.947  0.00  0.00    +0.000 A 
ATOM     33  N   UNL     1      46.804   3.659  13.541  0.00  0.00    +0.000 N 
ATOM     34  C   UNL     1      46.892   5.021  13.378  0.00  0.00    +0.000 A 
ATOM     35  O   UNL     1      47.807   5.666  13.877  0.00  0.00    +0.000 OA
ATOM     36  C   UNL     1      45.841   5.601  12.562  0.00  0.00    +0.000 A 
ATOM     37  H   UNL     1      47.523   3.230  14.103  0.00  0.00    +0.000 HD
ENDBRANCH  24  27
ENDBRANCH  22  23
ENDBRANCH   4  22
TORSDOF 10
ENDMDL
