MODEL 1
REMARK VINA RESULT:    -8.477      0.000      0.000
REMARK INTER + INTRA:         -12.960
REMARK INTER:                 -11.946
REMARK INTRA:                  -1.014
REMARK UNBOUND:                -1.014
REMARK  Name = 
REMARK  7 active torsions:
REMARK  status: ('A' for Active; 'I' for Inactive)
REMARK    1  A    between atoms: C_2  and  C_20
REMARK    2  A    between atoms: N_3  and  C_4
REMARK    3  A    between atoms: C_4  and  C_5
REMARK    4  A    between atoms: C_8  and  C_9
REMARK    5  A    between atoms: C_9  and  O_10
REMARK    6  A    between atoms: O_10  and  C_11
REMARK    7  A    between atoms: C_11  and  C_12
REMARK                            x       y       z     vdW  Elec       q    Type
REMARK                         _______ _______ _______ _____ _____    ______ ____
ROOT
ATOM      1  C   UNL     1      48.047   6.473  13.428  0.00  0.00    +0.000 C 
ENDROOT
BRANCH   1   2
ATOM      2  C   UNL     1      46.877   5.782  12.794  0.00  0.00    +0.000 A 
ATOM      3  C   UNL     1      46.295   6.232  11.606  0.00  0.00    +0.000 A 
ATOM      4  C   UNL     1      45.186   5.565  11.083  0.00  0.00    +0.000 A 
ATOM      5  C   UNL     1      44.688   4.448  11.753  0.00  0.00    +0.000 A 
ATOM      6  N   UNL     1      45.240   3.992  12.904  0.00  0.00    +0.000 NA
ATOM      7  C   UNL     1      46.318   4.655  13.386  0.00  0.00    +0.000 A 
BRANCH   5   8
ATOM      8  C   UNL     1      43.495   3.693  11.207  0.00  0.00    +0.000 C 
BRANCH   8   9
ATOM      9  O   UNL     1      43.759   3.325   9.855  0.00  0.00    +0.000 OA
BRANCH   9  10
ATOM     10  C   UNL     1      44.529   2.125   9.752  0.00  0.00    +0.000 C 
BRANCH  10  11
ATOM     11  C   UNL     1      45.521   2.252   8.615  0.00  0.00    +0.000 A 
ATOM     12  C   UNL     1      45.704   3.471   7.961  0.00  0.00    +0.000 A 
ATOM     13  C   UNL     1      46.613   3.549   6.910  0.00  0.00    +0.000 A 
ATOM     14  C   UNL     1      47.328   2.417   6.546  0.00  0.00    +0.000 A 
ATOM     15  C   UNL     1      47.106   1.249   7.256  0.00  0.00    +0.000 A 
ATOM     16  N   UNL     1      46.227   1.141   8.280  0.00  0.00    +0.000 NA
ENDBRANCH  10  11
ENDBRANCH   9  10
ENDBRANCH   8   9
ENDBRANCH   5   8
ENDBRANCH   1   2
BRANCH   1  19
ATOM     17  O   UNL     1      50.175   6.676  15.234  0.00  0.00    +0.000 OA
ATOM     18  C   UNL     1      49.031   6.694  15.671  0.00  0.00    +0.000 C 
ATOM     19  N   UNL     1      47.930   6.561  14.858  0.00  0.00    +0.000 N 
ATOM     20  H   UNL     1      47.015   6.813  15.218  0.00  0.00    +0.000 HD
BRANCH  18  21
ATOM     21  C   UNL     1      48.757   6.810  17.102  0.00  0.00    +0.000 A 
ATOM     22  C   UNL     1      48.358   8.013  17.663  0.00  0.00    +0.000 A 
ATOM     23  S   UNL     1      48.093   7.919  19.349  0.00  0.00    +0.000 S 
ATOM     24  C   UNL     1      48.476   6.260  19.369  0.00  0.00    +0.000 A 
ATOM     25  N   UNL     1      48.434   5.538  20.523  0.00  0.00    +0.000 NA
ATOM     26  C   UNL     1      48.714   4.286  20.377  0.00  0.00    +0.000 A 
ATOM     27  N   UNL     1      49.034   3.686  19.190  0.00  0.00    +0.000 N 
ATOM     28  C   UNL     1      49.155   4.385  18.012  0.00  0.00    +0.000 A 
ATOM     29  O   UNL     1      49.569   3.836  17.002  0.00  0.00    +0.000 OA
ATOM     30  C   UNL     1      48.817   5.791  18.117  0.00  0.00    +0.000 A 
ATOM     31  H   UNL     1      49.274   2.708  19.136  0.00  0.00    +0.000 HD
ENDBRANCH  18  21
ENDBRANCH   1  19
TORSDOF 7
ENDMDL
MODEL 2
REMARK VINA RESULT:    -8.094      1.389      2.098
REMARK INTER + INTRA:         -12.421
REMARK INTER:                 -11.456
REMARK INTRA:                  -0.965
REMARK UNBOUND:                -1.014
REMARK  Name = 
REMARK  7 active torsions:
REMARK  status: ('A' for Active; 'I' for Inactive)
REMARK    1  A    between atoms: C_2  and  C_20
REMARK    2  A    between atoms: N_3  and  C_4
REMARK    3  A    between atoms: C_4  and  C_5
REMARK    4  A    between atoms: C_8  and  C_9
REMARK    5  A    between atoms: C_9  and  O_10
REMARK    6  A    between atoms: O_10  and  C_11
REMARK    7  A    between atoms: C_11  and  C_12
REMARK                            x       y       z     vdW  Elec       q    Type
REMARK                         _______ _______ _______ _____ _____    ______ ____
ROOT
ATOM      1  C   UNL     1      48.095   6.738  13.733  0.00  0.00    +0.000 C 
ENDROOT
BRANCH   1   2
ATOM      2  C   UNL     1      46.978   6.119  12.944  0.00  0.00    +0.000 A 
ATOM      3  C   UNL     1      46.667   6.524  11.644  0.00  0.00    +0.000 A 
ATOM      4  C   UNL     1      45.594   5.932  10.975  0.00  0.00    +0.000 A 
ATOM      5  C   UNL     1      44.860   4.935  11.616  0.00  0.00    +0.000 A 
ATOM      6  N   UNL     1      45.148   4.525  12.876  0.00  0.00    +0.000 NA
ATOM      7  C   UNL     1      46.197   5.113  13.500  0.00  0.00    +0.000 A 
BRANCH   5   8
ATOM      8  C   UNL     1      43.699   4.263  10.915  0.00  0.00    +0.000 C 
BRANCH   8   9
ATOM      9  O   UNL     1      44.105   3.890   9.601  0.00  0.00    +0.000 OA
BRANCH   9  10
ATOM     10  C   UNL     1      44.540   2.530   9.525  0.00  0.00    +0.000 C 
BRANCH  10  11
ATOM     11  C   UNL     1      45.550   2.379   8.408  0.00  0.00    +0.000 A 
ATOM     12  C   UNL     1      45.804   3.433   7.528  0.00  0.00    +0.000 A 
ATOM     13  C   UNL     1      46.728   3.256   6.503  0.00  0.00    +0.000 A 
ATOM     14  C   UNL     1      47.388   2.041   6.388  0.00  0.00    +0.000 A 
ATOM     15  C   UNL     1      47.098   1.051   7.312  0.00  0.00    +0.000 A 
ATOM     16  N   UNL     1      46.203   1.191   8.316  0.00  0.00    +0.000 NA
ENDBRANCH  10  11
ENDBRANCH   9  10
ENDBRANCH   8   9
ENDBRANCH   5   8
ENDBRANCH   1   2
BRANCH   1  19
ATOM     17  O   UNL     1      50.238   6.598  15.526  0.00  0.00    +0.000 OA
ATOM     18  C   UNL     1      49.102   6.450  15.958  0.00  0.00    +0.000 C 
ATOM     19  N   UNL     1      47.995   6.466  15.141  0.00  0.00    +0.000 N 
ATOM     20  H   UNL     1      47.075   6.574  15.555  0.00  0.00    +0.000 HD
BRANCH  18  21
ATOM     21  C   UNL     1      48.845   6.196  17.374  0.00  0.00    +0.000 A 
ATOM     22  C   UNL     1      49.097   4.955  17.939  0.00  0.00    +0.000 A 
ATOM     23  S   UNL     1      48.725   4.883  19.606  0.00  0.00    +0.000 S 
ATOM     24  C   UNL     1      48.247   6.517  19.624  0.00  0.00    +0.000 A 
ATOM     25  N   UNL     1      47.817   7.117  20.768  0.00  0.00    +0.000 NA
ATOM     26  C   UNL     1      47.523   8.368  20.635  0.00  0.00    +0.000 A 
ATOM     27  N   UNL     1      47.615   9.076  19.467  0.00  0.00    +0.000 N 
ATOM     28  C   UNL     1      47.978   8.499  18.274  0.00  0.00    +0.000 A 
ATOM     29  O   UNL     1      47.922   9.135  17.232  0.00  0.00    +0.000 OA
ATOM     30  C   UNL     1      48.352   7.102  18.377  0.00  0.00    +0.000 A 
ATOM     31  H   UNL     1      47.343  10.045  19.412  0.00  0.00    +0.000 HD
ENDBRANCH  18  21
ENDBRANCH   1  19
TORSDOF 7
ENDMDL
MODEL 3
REMARK VINA RESULT:    -7.480      1.749      2.963
REMARK INTER + INTRA:         -11.554
REMARK INTER:                 -10.430
REMARK INTRA:                  -1.124
REMARK UNBOUND:                -1.014
REMARK  Name = 
REMARK  7 active torsions:
REMARK  status: ('A' for Active; 'I' for Inactive)
REMARK    1  A    between atoms: C_2  and  C_20
REMARK    2  A    between atoms: N_3  and  C_4
REMARK    3  A    between atoms: C_4  and  C_5
REMARK    4  A    between atoms: C_8  and  C_9
REMARK    5  A    between atoms: C_9  and  O_10
REMARK    6  A    between atoms: O_10  and  C_11
REMARK    7  A    between atoms: C_11  and  C_12
REMARK                            x       y       z     vdW  Elec       q    Type
REMARK                         _______ _______ _______ _____ _____    ______ ____
ROOT
ATOM      1  C   UNL     1      47.331   4.038  14.981  0.00  0.00    +0.000 C 
ENDROOT
BRANCH   1   2
ATOM      2  C   UNL     1      46.397   4.283  13.834  0.00  0.00    +0.000 A 
ATOM      3  C   UNL     1      45.856   5.543  13.565  0.00  0.00    +0.000 A 
ATOM      4  C   UNL     1      44.965   5.700  12.501  0.00  0.00    +0.000 A 
ATOM      5  C   UNL     1      44.642   4.593  11.716  0.00  0.00    +0.000 A 
ATOM      6  N   UNL     1      45.159   3.362  11.958  0.00  0.00    +0.000 NA
ATOM      7  C   UNL     1      46.024   3.241  12.993  0.00  0.00    +0.000 A 
BRANCH   5   8
ATOM      8  C   UNL     1      43.691   4.730  10.548  0.00  0.00    +0.000 C 
BRANCH   8   9
ATOM      9  O   UNL     1      44.028   3.759   9.560  0.00  0.00    +0.000 OA
BRANCH   9  10
ATOM     10  C   UNL     1      44.814   4.306   8.499  0.00  0.00    +0.000 C 
BRANCH  10  11
ATOM     11  C   UNL     1      45.721   3.234   7.932  0.00  0.00    +0.000 A 
ATOM     12  C   UNL     1      46.583   3.517   6.871  0.00  0.00    +0.000 A 
ATOM     13  C   UNL     1      47.393   2.506   6.364  0.00  0.00    +0.000 A 
ATOM     14  C   UNL     1      47.337   1.242   6.935  0.00  0.00    +0.000 A 
ATOM     15  C   UNL     1      46.471   1.044   7.997  0.00  0.00    +0.000 A 
ATOM     16  N   UNL     1      45.669   2.005   8.510  0.00  0.00    +0.000 NA
ENDBRANCH  10  11
ENDBRANCH   9  10
ENDBRANCH   8   9
ENDBRANCH   5   8
ENDBRANCH   1   2
BRANCH   1  19
ATOM     17  O   UNL     1      49.512   4.582  16.648  0.00  0.00    +0.000 OA
ATOM     18  C   UNL     1      48.594   5.391  16.601  0.00  0.00    +0.000 C 
ATOM     19  N   UNL     1      47.468   5.184  15.838  0.00  0.00    +0.000 N 
ATOM     20  H   UNL     1      46.851   5.966  15.645  0.00  0.00    +0.000 HD
BRANCH  18  21
ATOM     21  C   UNL     1      48.610   6.617  17.396  0.00  0.00    +0.000 A 
ATOM     22  C   UNL     1      48.700   6.576  18.779  0.00  0.00    +0.000 A 
ATOM     23  S   UNL     1      48.702   8.125  19.503  0.00  0.00    +0.000 S 
ATOM     24  C   UNL     1      48.613   8.892  17.985  0.00  0.00    +0.000 A 
ATOM     25  N   UNL     1      48.592  10.249  17.878  0.00  0.00    +0.000 NA
ATOM     26  C   UNL     1      48.559  10.686  16.662  0.00  0.00    +0.000 A 
ATOM     27  N   UNL     1      48.543   9.897  15.545  0.00  0.00    +0.000 N 
ATOM     28  C   UNL     1      48.495   8.524  15.604  0.00  0.00    +0.000 A 
ATOM     29  O   UNL     1      48.350   7.862  14.587  0.00  0.00    +0.000 OA
ATOM     30  C   UNL     1      48.564   7.983  16.946  0.00  0.00    +0.000 A 
ATOM     31  H   UNL     1      48.487  10.290  14.618  0.00  0.00    +0.000 HD
ENDBRANCH  18  21
ENDBRANCH   1  19
TORSDOF 7
ENDMDL
MODEL 4
REMARK VINA RESULT:    -7.477      1.795      2.254
REMARK INTER + INTRA:         -11.551
REMARK INTER:                 -10.775
REMARK INTRA:                  -0.776
REMARK UNBOUND:                -1.014
REMARK  Name = 
REMARK  7 active torsions:
REMARK  status: ('A' for Active; 'I' for Inactive)
REMARK    1  A    between atoms: C_2  and  C_20
REMARK    2  A    between atoms: N_3  and  C_4
REMARK    3  A    between atoms: C_4  and  C_5
REMARK    4  A    between atoms: C_8  and  C_9
REMARK    5  A    between atoms: C_9  and  O_10
REMARK    6  A    between atoms: O_10  and  C_11
REMARK    7  A    between atoms: C_11  and  C_12
REMARK                            x       y       z     vdW  Elec       q    Type
REMARK                         _______ _______ _______ _____ _____    ______ ____
ROOT
ATOM      1  C   UNL     1      47.631   6.931  13.779  0.00  0.00    +0.000 C 
ENDROOT
BRANCH   1   2
ATOM      2  C   UNL     1      46.556   6.176  13.055  0.00  0.00    +0.000 A 
ATOM      3  C   UNL     1      46.102   4.926  13.482  0.00  0.00    +0.000 A 
ATOM      4  C   UNL     1      45.122   4.258  12.745  0.00  0.00    +0.000 A 
ATOM      5  C   UNL     1      44.602   4.862  11.601  0.00  0.00    +0.000 A 
ATOM      6  N   UNL     1      45.026   6.077  11.171  0.00  0.00    +0.000 NA
ATOM      7  C   UNL     1      45.974   6.704  11.908  0.00  0.00    +0.000 A 
BRANCH   5   8
ATOM      8  C   UNL     1      43.530   4.173  10.786  0.00  0.00    +0.000 C 
BRANCH   8   9
ATOM      9  O   UNL     1      44.072   3.811   9.518  0.00  0.00    +0.000 OA
BRANCH   9  10
ATOM     10  C   UNL     1      44.589   2.479   9.502  0.00  0.00    +0.000 C 
BRANCH  10  11
ATOM     11  C   UNL     1      45.609   2.341   8.390  0.00  0.00    +0.000 A 
ATOM     12  C   UNL     1      45.891   3.414   7.544  0.00  0.00    +0.000 A 
ATOM     13  C   UNL     1      46.822   3.250   6.524  0.00  0.00    +0.000 A 
ATOM     14  C   UNL     1      47.462   2.026   6.381  0.00  0.00    +0.000 A 
ATOM     15  C   UNL     1      47.143   1.016   7.272  0.00  0.00    +0.000 A 
ATOM     16  N   UNL     1      46.240   1.144   8.271  0.00  0.00    +0.000 NA
ENDBRANCH  10  11
ENDBRANCH   9  10
ENDBRANCH   8   9
ENDBRANCH   5   8
ENDBRANCH   1   2
BRANCH   1  19
ATOM     17  O   UNL     1      48.962   8.050  15.972  0.00  0.00    +0.000 OA
ATOM     18  C   UNL     1      48.769   6.840  15.957  0.00  0.00    +0.000 C 
ATOM     19  N   UNL     1      48.158   6.204  14.902  0.00  0.00    +0.000 N 
ATOM     20  H   UNL     1      47.811   5.259  15.027  0.00  0.00    +0.000 HD
BRANCH  18  21
ATOM     21  C   UNL     1      49.223   5.977  17.045  0.00  0.00    +0.000 A 
ATOM     22  C   UNL     1      48.320   5.355  17.895  0.00  0.00    +0.000 A 
ATOM     23  S   UNL     1      49.070   4.394  19.093  0.00  0.00    +0.000 S 
ATOM     24  C   UNL     1      50.620   4.760  18.490  0.00  0.00    +0.000 A 
ATOM     25  N   UNL     1      51.743   4.239  19.060  0.00  0.00    +0.000 NA
ATOM     26  C   UNL     1      52.842   4.576  18.473  0.00  0.00    +0.000 A 
ATOM     27  N   UNL     1      52.929   5.385  17.373  0.00  0.00    +0.000 N 
ATOM     28  C   UNL     1      51.832   5.987  16.803  0.00  0.00    +0.000 A 
ATOM     29  O   UNL     1      51.966   6.803  15.905  0.00  0.00    +0.000 OA
ATOM     30  C   UNL     1      50.568   5.613  17.406  0.00  0.00    +0.000 A 
ATOM     31  H   UNL     1      53.817   5.641  16.971  0.00  0.00    +0.000 HD
ENDBRANCH  18  21
ENDBRANCH   1  19
TORSDOF 7
ENDMDL
MODEL 5
REMARK VINA RESULT:    -7.395      1.977      2.505
REMARK INTER + INTRA:         -11.435
REMARK INTER:                 -10.196
REMARK INTRA:                  -1.239
REMARK UNBOUND:                -1.014
REMARK  Name = 
REMARK  7 active torsions:
REMARK  status: ('A' for Active; 'I' for Inactive)
REMARK    1  A    between atoms: C_2  and  C_20
REMARK    2  A    between atoms: N_3  and  C_4
REMARK    3  A    between atoms: C_4  and  C_5
REMARK    4  A    between atoms: C_8  and  C_9
REMARK    5  A    between atoms: C_9  and  O_10
REMARK    6  A    between atoms: O_10  and  C_11
REMARK    7  A    between atoms: C_11  and  C_12
REMARK                            x       y       z     vdW  Elec       q    Type
REMARK                         _______ _______ _______ _____ _____    ______ ____
ROOT
ATOM      1  C   UNL     1      45.544   8.565  12.666  0.00  0.00    +0.000 C 
ENDROOT
BRANCH   1   2
ATOM      2  C   UNL     1      45.158   7.184  12.225  0.00  0.00    +0.000 A 
ATOM      3  C   UNL     1      46.000   6.382  11.451  0.00  0.00    +0.000 A 
ATOM      4  C   UNL     1      45.570   5.118  11.045  0.00  0.00    +0.000 A 
ATOM      5  C   UNL     1      44.307   4.672  11.434  0.00  0.00    +0.000 A 
ATOM      6  N   UNL     1      43.475   5.433  12.189  0.00  0.00    +0.000 NA
ATOM      7  C   UNL     1      43.921   6.653  12.573  0.00  0.00    +0.000 A 
BRANCH   5   8
ATOM      8  C   UNL     1      43.813   3.303  11.023  0.00  0.00    +0.000 C 
BRANCH   8   9
ATOM      9  O   UNL     1      44.905   2.559  10.486  0.00  0.00    +0.000 OA
BRANCH   9  10
ATOM     10  C   UNL     1      44.581   1.926   9.246  0.00  0.00    +0.000 C 
BRANCH  10  11
ATOM     11  C   UNL     1      45.710   2.132   8.258  0.00  0.00    +0.000 A 
ATOM     12  C   UNL     1      45.895   3.367   7.634  0.00  0.00    +0.000 A 
ATOM     13  C   UNL     1      46.933   3.518   6.720  0.00  0.00    +0.000 A 
ATOM     14  C   UNL     1      47.771   2.442   6.461  0.00  0.00    +0.000 A 
ATOM     15  C   UNL     1      47.535   1.255   7.134  0.00  0.00    +0.000 A 
ATOM     16  N   UNL     1      46.533   1.076   8.026  0.00  0.00    +0.000 NA
ENDBRANCH  10  11
ENDBRANCH   9  10
ENDBRANCH   8   9
ENDBRANCH   5   8
ENDBRANCH   1   2
BRANCH   1  19
ATOM     17  O   UNL     1      48.294   9.066  12.538  0.00  0.00    +0.000 OA
ATOM     18  C   UNL     1      47.788   8.850  13.632  0.00  0.00    +0.000 C 
ATOM     19  N   UNL     1      46.452   8.557  13.780  0.00  0.00    +0.000 N 
ATOM     20  H   UNL     1      46.031   8.616  14.702  0.00  0.00    +0.000 HD
BRANCH  18  21
ATOM     21  C   UNL     1      48.583   8.840  14.858  0.00  0.00    +0.000 A 
ATOM     22  C   UNL     1      49.119  10.009  15.377  0.00  0.00    +0.000 A 
ATOM     23  S   UNL     1      50.010   9.764  16.815  0.00  0.00    +0.000 S 
ATOM     24  C   UNL     1      49.679   8.094  16.798  0.00  0.00    +0.000 A 
ATOM     25  N   UNL     1      50.145   7.269  17.777  0.00  0.00    +0.000 NA
ATOM     26  C   UNL     1      49.783   6.036  17.650  0.00  0.00    +0.000 A 
ATOM     27  N   UNL     1      49.003   5.547  16.638  0.00  0.00    +0.000 N 
ATOM     28  C   UNL     1      48.566   6.325  15.593  0.00  0.00    +0.000 A 
ATOM     29  O   UNL     1      47.983   5.823  14.644  0.00  0.00    +0.000 OA
ATOM     30  C   UNL     1      48.917   7.727  15.707  0.00  0.00    +0.000 A 
ATOM     31  H   UNL     1      48.774   4.567  16.570  0.00  0.00    +0.000 HD
ENDBRANCH  18  21
ENDBRANCH   1  19
TORSDOF 7
ENDMDL
MODEL 6
REMARK VINA RESULT:    -7.300      3.190      4.935
REMARK INTER + INTRA:         -11.301
REMARK INTER:                 -10.174
REMARK INTRA:                  -1.127
REMARK UNBOUND:                -1.014
REMARK  Name = 
REMARK  7 active torsions:
REMARK  status: ('A' for Active; 'I' for Inactive)
REMARK    1  A    between atoms: C_2  and  C_20
REMARK    2  A    between atoms: N_3  and  C_4
REMARK    3  A    between atoms: C_4  and  C_5
REMARK    4  A    between atoms: C_8  and  C_9
REMARK    5  A    between atoms: C_9  and  O_10
REMARK    6  A    between atoms: O_10  and  C_11
REMARK    7  A    between atoms: C_11  and  C_12
REMARK                            x       y       z     vdW  Elec       q    Type
REMARK                         _______ _______ _______ _____ _____    ______ ____
ROOT
ATOM      1  C   UNL     1      47.958   6.029  14.095  0.00  0.00    +0.000 C 
ENDROOT
BRANCH   1   2
ATOM      2  C   UNL     1      46.856   5.733  13.121  0.00  0.00    +0.000 A 
ATOM      3  C   UNL     1      46.769   6.361  11.876  0.00  0.00    +0.000 A 
ATOM      4  C   UNL     1      45.700   6.067  11.027  0.00  0.00    +0.000 A 
ATOM      5  C   UNL     1      44.743   5.139  11.436  0.00  0.00    +0.000 A 
ATOM      6  N   UNL     1      44.811   4.516  12.639  0.00  0.00    +0.000 NA
ATOM      7  C   UNL     1      45.861   4.816  13.439  0.00  0.00    +0.000 A 
BRANCH   5   8
ATOM      8  C   UNL     1      43.579   4.787  10.536  0.00  0.00    +0.000 C 
BRANCH   8   9
ATOM      9  O   UNL     1      44.081   4.219   9.329  0.00  0.00    +0.000 OA
BRANCH   9  10
ATOM     10  C   UNL     1      44.464   2.851   9.483  0.00  0.00    +0.000 C 
BRANCH  10  11
ATOM     11  C   UNL     1      45.536   2.504   8.471  0.00  0.00    +0.000 A 
ATOM     12  C   UNL     1      46.058   3.481   7.623  0.00  0.00    +0.000 A 
ATOM     13  C   UNL     1      47.032   3.125   6.694  0.00  0.00    +0.000 A 
ATOM     14  C   UNL     1      47.472   1.810   6.644  0.00  0.00    +0.000 A 
ATOM     15  C   UNL     1      46.921   0.903   7.533  0.00  0.00    +0.000 A 
ATOM     16  N   UNL     1      45.971   1.217   8.444  0.00  0.00    +0.000 NA
ENDBRANCH  10  11
ENDBRANCH   9  10
ENDBRANCH   8   9
ENDBRANCH   5   8
ENDBRANCH   1   2
BRANCH   1  19
ATOM     17  O   UNL     1      50.364   6.874  15.246  0.00  0.00    +0.000 OA
ATOM     18  C   UNL     1      49.847   7.576  14.387  0.00  0.00    +0.000 C 
ATOM     19  N   UNL     1      48.646   7.255  13.797  0.00  0.00    +0.000 N 
ATOM     20  H   UNL     1      48.373   7.727  12.941  0.00  0.00    +0.000 HD
BRANCH  18  21
ATOM     21  C   UNL     1      50.449   8.838  13.960  0.00  0.00    +0.000 A 
ATOM     22  C   UNL     1      50.613   9.892  14.846  0.00  0.00    +0.000 A 
ATOM     23  S   UNL     1      51.337  11.267  14.135  0.00  0.00    +0.000 S 
ATOM     24  C   UNL     1      51.479  10.480  12.632  0.00  0.00    +0.000 A 
ATOM     25  N   UNL     1      52.041  11.100  11.557  0.00  0.00    +0.000 NA
ATOM     26  C   UNL     1      52.113  10.366  10.497  0.00  0.00    +0.000 A 
ATOM     27  N   UNL     1      51.675   9.073  10.406  0.00  0.00    +0.000 N 
ATOM     28  C   UNL     1      51.042   8.427  11.442  0.00  0.00    +0.000 A 
ATOM     29  O   UNL     1      50.552   7.320  11.278  0.00  0.00    +0.000 OA
ATOM     30  C   UNL     1      50.967   9.198  12.667  0.00  0.00    +0.000 A 
ATOM     31  H   UNL     1      51.728   8.553   9.544  0.00  0.00    +0.000 HD
ENDBRANCH  18  21
ENDBRANCH   1  19
TORSDOF 7
ENDMDL
MODEL 7
REMARK VINA RESULT:    -7.040      2.921      3.824
REMARK INTER + INTRA:         -10.935
REMARK INTER:                 -10.033
REMARK INTRA:                  -0.902
REMARK UNBOUND:                -1.014
REMARK  Name = 
REMARK  7 active torsions:
REMARK  status: ('A' for Active; 'I' for Inactive)
REMARK    1  A    between atoms: C_2  and  C_20
REMARK    2  A    between atoms: N_3  and  C_4
REMARK    3  A    between atoms: C_4  and  C_5
REMARK    4  A    between atoms: C_8  and  C_9
REMARK    5  A    between atoms: C_9  and  O_10
REMARK    6  A    between atoms: O_10  and  C_11
REMARK    7  A    between atoms: C_11  and  C_12
REMARK                            x       y       z     vdW  Elec       q    Type
REMARK                         _______ _______ _______ _____ _____    ______ ____
ROOT
ATOM      1  C   UNL     1      47.889   4.898  16.841  0.00  0.00    +0.000 C 
ENDROOT
BRANCH   1   2
ATOM      2  C   UNL     1      47.434   5.075  15.422  0.00  0.00    +0.000 A 
ATOM      3  C   UNL     1      48.013   6.012  14.563  0.00  0.00    +0.000 A 
ATOM      4  C   UNL     1      47.524   6.153  13.263  0.00  0.00    +0.000 A 
ATOM      5  C   UNL     1      46.470   5.342  12.843  0.00  0.00    +0.000 A 
ATOM      6  N   UNL     1      45.896   4.424  13.660  0.00  0.00    +0.000 NA
ATOM      7  C   UNL     1      46.395   4.306  14.913  0.00  0.00    +0.000 A 
BRANCH   5   8
ATOM      8  C   UNL     1      45.923   5.459  11.437  0.00  0.00    +0.000 C 
BRANCH   8   9
ATOM      9  O   UNL     1      45.077   4.341  11.174  0.00  0.00    +0.000 OA
BRANCH   9  10
ATOM     10  C   UNL     1      44.489   4.391   9.873  0.00  0.00    +0.000 C 
BRANCH  10  11
ATOM     11  C   UNL     1      45.329   3.588   8.902  0.00  0.00    +0.000 A 
ATOM     12  C   UNL     1      45.406   2.199   9.005  0.00  0.00    +0.000 A 
ATOM     13  C   UNL     1      46.199   1.493   8.106  0.00  0.00    +0.000 A 
ATOM     14  C   UNL     1      46.882   2.185   7.116  0.00  0.00    +0.000 A 
ATOM     15  C   UNL     1      46.739   3.561   7.065  0.00  0.00    +0.000 A 
ATOM     16  N   UNL     1      45.979   4.276   7.927  0.00  0.00    +0.000 NA
ENDBRANCH  10  11
ENDBRANCH   9  10
ENDBRANCH   8   9
ENDBRANCH   5   8
ENDBRANCH   1   2
BRANCH   1  19
ATOM     17  O   UNL     1      49.410   4.897  19.189  0.00  0.00    +0.000 OA
ATOM     18  C   UNL     1      49.947   4.554  18.143  0.00  0.00    +0.000 C 
ATOM     19  N   UNL     1      49.283   4.561  16.938  0.00  0.00    +0.000 N 
ATOM     20  H   UNL     1      49.679   4.058  16.151  0.00  0.00    +0.000 HD
BRANCH  18  21
ATOM     21  C   UNL     1      51.352   4.156  18.094  0.00  0.00    +0.000 A 
ATOM     22  C   UNL     1      52.363   5.047  18.421  0.00  0.00    +0.000 A 
ATOM     23  S   UNL     1      53.928   4.371  18.295  0.00  0.00    +0.000 S 
ATOM     24  C   UNL     1      53.294   2.860  17.830  0.00  0.00    +0.000 A 
ATOM     25  N   UNL     1      54.109   1.799  17.573  0.00  0.00    +0.000 NA
ATOM     26  C   UNL     1      53.484   0.711  17.267  0.00  0.00    +0.000 A 
ATOM     27  N   UNL     1      52.124   0.582  17.190  0.00  0.00    +0.000 N 
ATOM     28  C   UNL     1      51.264   1.639  17.374  0.00  0.00    +0.000 A 
ATOM     29  O   UNL     1      50.067   1.510  17.169  0.00  0.00    +0.000 OA
ATOM     30  C   UNL     1      51.916   2.876  17.754  0.00  0.00    +0.000 A 
ATOM     31  H   UNL     1      51.688  -0.285  16.916  0.00  0.00    +0.000 HD
ENDBRANCH  18  21
ENDBRANCH   1  19
TORSDOF 7
ENDMDL
MODEL 8
REMARK VINA RESULT:    -7.036      1.863      2.422
REMARK INTER + INTRA:         -10.930
REMARK INTER:                 -10.044
REMARK INTRA:                  -0.886
REMARK UNBOUND:                -1.014
REMARK  Name = 
REMARK  7 active torsions:
REMARK  status: ('A' for Active; 'I' for Inactive)
REMARK    1  A    between atoms: C_2  and  C_20
REMARK    2  A    between atoms: N_3  and  C_4
REMARK    3  A    between atoms: C_4  and  C_5
REMARK    4  A    between atoms: C_8  and  C_9
REMARK    5  A    between atoms: C_9  and  O_10
REMARK    6  A    between atoms: O_10  and  C_11
REMARK    7  A    between atoms: C_11  and  C_12
REMARK                            x       y       z     vdW  Elec       q    Type
REMARK                         _______ _______ _______ _____ _____    ______ ____
ROOT
ATOM      1  C   UNL     1      47.863   4.931  15.125  0.00  0.00    +0.000 C 
ENDROOT
BRANCH   1   2
ATOM      2  C   UNL     1      46.873   4.893  13.998  0.00  0.00    +0.000 A 
ATOM      3  C   UNL     1      46.545   6.027  13.251  0.00  0.00    +0.000 A 
ATOM      4  C   UNL     1      45.591   5.934  12.236  0.00  0.00    +0.000 A 
ATOM      5  C   UNL     1      44.992   4.701  11.978  0.00  0.00    +0.000 A 
ATOM      6  N   UNL     1      45.298   3.588  12.689  0.00  0.00    +0.000 NA
ATOM      7  C   UNL     1      46.230   3.706  13.664  0.00  0.00    +0.000 A 
BRANCH   5   8
ATOM      8  C   UNL     1      43.963   4.562  10.877  0.00  0.00    +0.000 C 
BRANCH   8   9
ATOM      9  O   UNL     1      44.628   4.221   9.663  0.00  0.00    +0.000 OA
BRANCH   9  10
ATOM     10  C   UNL     1      44.543   2.826   9.363  0.00  0.00    +0.000 C 
BRANCH  10  11
ATOM     11  C   UNL     1      45.617   2.454   8.361  0.00  0.00    +0.000 A 
ATOM     12  C   UNL     1      46.121   3.403   7.471  0.00  0.00    +0.000 A 
ATOM     13  C   UNL     1      47.097   3.024   6.554  0.00  0.00    +0.000 A 
ATOM     14  C   UNL     1      47.558   1.714   6.556  0.00  0.00    +0.000 A 
ATOM     15  C   UNL     1      47.023   0.837   7.484  0.00  0.00    +0.000 A 
ATOM     16  N   UNL     1      46.072   1.174   8.385  0.00  0.00    +0.000 NA
ENDBRANCH  10  11
ENDBRANCH   9  10
ENDBRANCH   8   9
ENDBRANCH   5   8
ENDBRANCH   1   2
BRANCH   1  19
ATOM     17  O   UNL     1      50.065   6.649  15.289  0.00  0.00    +0.000 OA
ATOM     18  C   UNL     1      49.009   7.001  15.798  0.00  0.00    +0.000 C 
ATOM     19  N   UNL     1      47.888   6.202  15.796  0.00  0.00    +0.000 N 
ATOM     20  H   UNL     1      46.986   6.613  16.014  0.00  0.00    +0.000 HD
BRANCH  18  21
ATOM     21  C   UNL     1      48.878   8.281  16.490  0.00  0.00    +0.000 A 
ATOM     22  C   UNL     1      49.197   9.475  15.860  0.00  0.00    +0.000 A 
ATOM     23  S   UNL     1      48.968  10.846  16.854  0.00  0.00    +0.000 S 
ATOM     24  C   UNL     1      48.408   9.885  18.143  0.00  0.00    +0.000 A 
ATOM     25  N   UNL     1      48.019  10.440  19.324  0.00  0.00    +0.000 NA
ATOM     26  C   UNL     1      47.584   9.589  20.193  0.00  0.00    +0.000 A 
ATOM     27  N   UNL     1      47.503   8.238  19.997  0.00  0.00    +0.000 N 
ATOM     28  C   UNL     1      47.946   7.624  18.848  0.00  0.00    +0.000 A 
ATOM     29  O   UNL     1      47.976   6.406  18.766  0.00  0.00    +0.000 OA
ATOM     30  C   UNL     1      48.412   8.540  17.827  0.00  0.00    +0.000 A 
ATOM     31  H   UNL     1      47.183   7.614  20.722  0.00  0.00    +0.000 HD
ENDBRANCH  18  21
ENDBRANCH   1  19
TORSDOF 7
ENDMDL
MODEL 9
REMARK VINA RESULT:    -7.010      2.812      8.838
REMARK INTER + INTRA:         -10.892
REMARK INTER:                  -9.574
REMARK INTRA:                  -1.318
REMARK UNBOUND:                -1.014
REMARK  Name = 
REMARK  7 active torsions:
REMARK  status: ('A' for Active; 'I' for Inactive)
REMARK    1  A    between atoms: C_2  and  C_20
REMARK    2  A    between atoms: N_3  and  C_4
REMARK    3  A    between atoms: C_4  and  C_5
REMARK    4  A    between atoms: C_8  and  C_9
REMARK    5  A    between atoms: C_9  and  O_10
REMARK    6  A    between atoms: O_10  and  C_11
REMARK    7  A    between atoms: C_11  and  C_12
REMARK                            x       y       z     vdW  Elec       q    Type
REMARK                         _______ _______ _______ _____ _____    ______ ____
ROOT
ATOM      1  C   UNL     1      47.596   7.653  11.953  0.00  0.00    +0.000 C 
ENDROOT
BRANCH   1   2
ATOM      2  C   UNL     1      48.089   7.793  13.363  0.00  0.00    +0.000 A 
ATOM      3  C   UNL     1      47.951   8.977  14.090  0.00  0.00    +0.000 A 
ATOM      4  C   UNL     1      48.460   9.054  15.388  0.00  0.00    +0.000 A 
ATOM      5  C   UNL     1      49.088   7.938  15.939  0.00  0.00    +0.000 A 
ATOM      6  N   UNL     1      49.229   6.777  15.251  0.00  0.00    +0.000 NA
ATOM      7  C   UNL     1      48.721   6.729  13.997  0.00  0.00    +0.000 A 
BRANCH   5   8
ATOM      8  C   UNL     1      49.640   7.982  17.347  0.00  0.00    +0.000 C 
BRANCH   8   9
ATOM      9  O   UNL     1      48.666   7.453  18.243  0.00  0.00    +0.000 OA
BRANCH   9  10
ATOM     10  C   UNL     1      49.153   6.332  18.984  0.00  0.00    +0.000 C 
BRANCH  10  11
ATOM     11  C   UNL     1      48.806   5.050  18.257  0.00  0.00    +0.000 A 
ATOM     12  C   UNL     1      49.773   4.066  18.046  0.00  0.00    +0.000 A 
ATOM     13  C   UNL     1      49.424   2.906  17.361  0.00  0.00    +0.000 A 
ATOM     14  C   UNL     1      48.119   2.747  16.917  0.00  0.00    +0.000 A 
ATOM     15  C   UNL     1      47.212   3.759  17.182  0.00  0.00    +0.000 A 
ATOM     16  N   UNL     1      47.521   4.899  17.842  0.00  0.00    +0.000 NA
ENDBRANCH  10  11
ENDBRANCH   9  10
ENDBRANCH   8   9
ENDBRANCH   5   8
ENDBRANCH   1   2
BRANCH   1  19
ATOM     17  O   UNL     1      44.810   7.388  11.963  0.00  0.00    +0.000 OA
ATOM     18  C   UNL     1      45.493   6.399  11.726  0.00  0.00    +0.000 C 
ATOM     19  N   UNL     1      46.868   6.433  11.739  0.00  0.00    +0.000 N 
ATOM     20  H   UNL     1      47.386   5.670  11.316  0.00  0.00    +0.000 HD
BRANCH  18  21
ATOM     21  C   UNL     1      44.889   5.095  11.460  0.00  0.00    +0.000 A 
ATOM     22  C   UNL     1      44.130   4.444  12.421  0.00  0.00    +0.000 A 
ATOM     23  S   UNL     1      43.522   2.936  11.895  0.00  0.00    +0.000 S 
ATOM     24  C   UNL     1      44.231   3.126  10.359  0.00  0.00    +0.000 A 
ATOM     25  N   UNL     1      44.086   2.180   9.390  0.00  0.00    +0.000 NA
ATOM     26  C   UNL     1      44.649   2.480   8.266  0.00  0.00    +0.000 A 
ATOM     27  N   UNL     1      45.344   3.632   8.019  0.00  0.00    +0.000 N 
ATOM     28  C   UNL     1      45.574   4.584   8.984  0.00  0.00    +0.000 A 
ATOM     29  O   UNL     1      46.309   5.534   8.758  0.00  0.00    +0.000 OA
ATOM     30  C   UNL     1      44.934   4.310  10.254  0.00  0.00    +0.000 A 
ATOM     31  H   UNL     1      45.790   3.803   7.131  0.00  0.00    +0.000 HD
ENDBRANCH  18  21
ENDBRANCH   1  19
TORSDOF 7
ENDMDL
