MODEL 1
REMARK VINA RESULT:    -6.998      0.000      0.000
REMARK INTER + INTRA:          -9.620
REMARK INTER:                  -9.044
REMARK INTRA:                  -0.576
REMARK UNBOUND:                -0.576
REMARK  Name = 
REMARK  7 active torsions:
REMARK  status: ('A' for Active; 'I' for Inactive)
REMARK    1  A    between atoms: C_1  and  O_2
REMARK    2  A    between atoms: O_2  and  C_3
REMARK    3  A    between atoms: C_5  and  N_6
REMARK    4  A    between atoms: N_6  and  C_7
REMARK    5  A    between atoms: C_7  and  C_8
REMARK    6  A    between atoms: C_7  and  C_9
REMARK    7  A    between atoms: C_17  and  C_18
REMARK                            x       y       z     vdW  Elec       q    Type
REMARK                         _______ _______ _______ _____ _____    ______ ____
ROOT
ATOM      1  C   UNL     1      46.407   1.601   8.096  0.00  0.00    +0.000 A 
ATOM      2  C   UNL     1      45.447   2.003   9.041  0.00  0.00    +0.000 A 
ATOM      3  C   UNL     1      44.921   3.304   9.054  0.00  0.00    +0.000 A 
ATOM      4  C   UNL     1      45.396   4.212   8.109  0.00  0.00    +0.000 A 
ATOM      5  C   UNL     1      46.349   3.827   7.157  0.00  0.00    +0.000 A 
ATOM      6  C   UNL     1      46.863   2.525   7.151  0.00  0.00    +0.000 A 
ENDROOT
BRANCH   1   8
ATOM      7  C   UNL     1      46.314  -0.614   7.265  0.00  0.00    +0.000 C 
ATOM      8  O   UNL     1      46.970   0.352   8.079  0.00  0.00    +0.000 OA
ENDBRANCH   1   8
BRANCH   3   9
ATOM      9  N   UNL     1      43.977   3.601  10.029  0.00  0.00    +0.000 N 
ATOM     10  H   UNL     1      43.063   3.201   9.836  0.00  0.00    +0.000 HD
BRANCH   9  11
ATOM     11  C   UNL     1      43.947   4.860  10.767  0.00  0.00    +0.000 C 
ATOM     12  C   UNL     1      42.593   5.086  11.440  0.00  0.00    +0.000 C 
BRANCH  11  13
ATOM     13  C   UNL     1      45.071   4.853  11.786  0.00  0.00    +0.000 A 
ATOM     14  C   UNL     1      45.976   5.912  11.942  0.00  0.00    +0.000 A 
ATOM     15  C   UNL     1      47.007   5.817  12.875  0.00  0.00    +0.000 A 
ATOM     16  C   UNL     1      47.102   4.664  13.633  0.00  0.00    +0.000 A 
ATOM     17  N   UNL     1      46.245   3.629  13.529  0.00  0.00    +0.000 NA
ATOM     18  C   UNL     1      45.250   3.750  12.620  0.00  0.00    +0.000 A 
ENDBRANCH  11  13
ENDBRANCH   9  11
ENDBRANCH   3   9
BRANCH   6  19
ATOM     19  C   UNL     1      47.834   2.162   6.156  0.00  0.00    +0.000 C 
ATOM     20  N   UNL     1      48.617   1.821   5.364  0.00  0.00    +0.000 NA
ENDBRANCH   6  19
TORSDOF 5
ENDMDL
MODEL 2
REMARK VINA RESULT:    -6.738      1.477      2.134
REMARK INTER + INTRA:          -9.284
REMARK INTER:                  -9.092
REMARK INTRA:                  -0.192
REMARK UNBOUND:                -0.576
REMARK  Name = 
REMARK  7 active torsions:
REMARK  status: ('A' for Active; 'I' for Inactive)
REMARK    1  A    between atoms: C_1  and  O_2
REMARK    2  A    between atoms: O_2  and  C_3
REMARK    3  A    between atoms: C_5  and  N_6
REMARK    4  A    between atoms: N_6  and  C_7
REMARK    5  A    between atoms: C_7  and  C_8
REMARK    6  A    between atoms: C_7  and  C_9
REMARK    7  A    between atoms: C_17  and  C_18
REMARK                            x       y       z     vdW  Elec       q    Type
REMARK                         _______ _______ _______ _____ _____    ______ ____
ROOT
ATOM      1  C   UNL     1      46.241   3.276   8.087  0.00  0.00    +0.000 A 
ATOM      2  C   UNL     1      45.641   4.432   8.617  0.00  0.00    +0.000 A 
ATOM      3  C   UNL     1      44.604   4.361   9.560  0.00  0.00    +0.000 A 
ATOM      4  C   UNL     1      44.156   3.099   9.947  0.00  0.00    +0.000 A 
ATOM      5  C   UNL     1      44.747   1.937   9.432  0.00  0.00    +0.000 A 
ATOM      6  C   UNL     1      45.784   2.021   8.496  0.00  0.00    +0.000 A 
ENDROOT
BRANCH   1   8
ATOM      7  C   UNL     1      46.790   3.265   5.783  0.00  0.00    +0.000 C 
ATOM      8  O   UNL     1      47.228   3.308   7.137  0.00  0.00    +0.000 OA
ENDBRANCH   1   8
BRANCH   3   9
ATOM      9  N   UNL     1      44.078   5.561  10.022  0.00  0.00    +0.000 N 
ATOM     10  H   UNL     1      44.418   6.370   9.508  0.00  0.00    +0.000 HD
BRANCH   9  11
ATOM     11  C   UNL     1      43.762   5.818  11.423  0.00  0.00    +0.000 C 
ATOM     12  C   UNL     1      42.600   4.951  11.907  0.00  0.00    +0.000 C 
BRANCH  11  13
ATOM     13  C   UNL     1      45.009   5.577  12.254  0.00  0.00    +0.000 A 
ATOM     14  C   UNL     1      46.198   6.300  12.087  0.00  0.00    +0.000 A 
ATOM     15  C   UNL     1      47.315   5.996  12.862  0.00  0.00    +0.000 A 
ATOM     16  C   UNL     1      47.211   4.977  13.791  0.00  0.00    +0.000 A 
ATOM     17  N   UNL     1      46.084   4.267  13.998  0.00  0.00    +0.000 NA
ATOM     18  C   UNL     1      45.013   4.587  13.235  0.00  0.00    +0.000 A 
ENDBRANCH  11  13
ENDBRANCH   9  11
ENDBRANCH   3   9
BRANCH   6  19
ATOM     19  C   UNL     1      46.370   0.809   7.994  0.00  0.00    +0.000 C 
ATOM     20  N   UNL     1      46.819  -0.198   7.619  0.00  0.00    +0.000 NA
ENDBRANCH   6  19
TORSDOF 5
ENDMDL
MODEL 3
REMARK VINA RESULT:    -6.146      2.292      6.168
REMARK INTER + INTRA:          -8.518
REMARK INTER:                  -7.901
REMARK INTRA:                  -0.617
REMARK UNBOUND:                -0.576
REMARK  Name = 
REMARK  7 active torsions:
REMARK  status: ('A' for Active; 'I' for Inactive)
REMARK    1  A    between atoms: C_1  and  O_2
REMARK    2  A    between atoms: O_2  and  C_3
REMARK    3  A    between atoms: C_5  and  N_6
REMARK    4  A    between atoms: N_6  and  C_7
REMARK    5  A    between atoms: C_7  and  C_8
REMARK    6  A    between atoms: C_7  and  C_9
REMARK    7  A    between atoms: C_17  and  C_18
REMARK                            x       y       z     vdW  Elec       q    Type
REMARK                         _______ _______ _______ _____ _____    ______ ____
ROOT
ATOM      1  C   UNL     1      45.902   4.790  12.674  0.00  0.00    +0.000 A 
ATOM      2  C   UNL     1      45.328   3.954  11.700  0.00  0.00    +0.000 A 
ATOM      3  C   UNL     1      45.242   4.338  10.353  0.00  0.00    +0.000 A 
ATOM      4  C   UNL     1      45.723   5.597   9.999  0.00  0.00    +0.000 A 
ATOM      5  C   UNL     1      46.303   6.441  10.956  0.00  0.00    +0.000 A 
ATOM      6  C   UNL     1      46.388   6.045  12.296  0.00  0.00    +0.000 A 
ENDROOT
BRANCH   1   8
ATOM      7  C   UNL     1      47.056   3.630  14.385  0.00  0.00    +0.000 C 
ATOM      8  O   UNL     1      45.967   4.464  14.003  0.00  0.00    +0.000 OA
ENDBRANCH   1   8
BRANCH   3   9
ATOM      9  N   UNL     1      44.656   3.439   9.469  0.00  0.00    +0.000 N 
ATOM     10  H   UNL     1      43.641   3.471   9.482  0.00  0.00    +0.000 HD
BRANCH   9  11
ATOM     11  C   UNL     1      45.221   2.131   9.156  0.00  0.00    +0.000 C 
ATOM     12  C   UNL     1      44.129   1.081   8.952  0.00  0.00    +0.000 C 
BRANCH  11  13
ATOM     13  C   UNL     1      46.092   2.262   7.920  0.00  0.00    +0.000 A 
ATOM     14  C   UNL     1      45.992   3.329   7.017  0.00  0.00    +0.000 A 
ATOM     15  C   UNL     1      46.801   3.362   5.883  0.00  0.00    +0.000 A 
ATOM     16  C   UNL     1      47.696   2.325   5.685  0.00  0.00    +0.000 A 
ATOM     17  N   UNL     1      47.838   1.289   6.535  0.00  0.00    +0.000 NA
ATOM     18  C   UNL     1      47.044   1.286   7.631  0.00  0.00    +0.000 A 
ENDBRANCH  11  13
ENDBRANCH   9  11
ENDBRANCH   3   9
BRANCH   6  19
ATOM     19  C   UNL     1      46.994   6.932  13.249  0.00  0.00    +0.000 C 
ATOM     20  N   UNL     1      47.516   7.615  14.034  0.00  0.00    +0.000 NA
ENDBRANCH   6  19
TORSDOF 5
ENDMDL
MODEL 4
REMARK VINA RESULT:    -6.126      2.563      6.288
REMARK INTER + INTRA:          -8.493
REMARK INTER:                  -8.720
REMARK INTRA:                   0.226
REMARK UNBOUND:                -0.576
REMARK  Name = 
REMARK  7 active torsions:
REMARK  status: ('A' for Active; 'I' for Inactive)
REMARK    1  A    between atoms: C_1  and  O_2
REMARK    2  A    between atoms: O_2  and  C_3
REMARK    3  A    between atoms: C_5  and  N_6
REMARK    4  A    between atoms: N_6  and  C_7
REMARK    5  A    between atoms: C_7  and  C_8
REMARK    6  A    between atoms: C_7  and  C_9
REMARK    7  A    between atoms: C_17  and  C_18
REMARK                            x       y       z     vdW  Elec       q    Type
REMARK                         _______ _______ _______ _____ _____    ______ ____
ROOT
ATOM      1  C   UNL     1      47.190   4.560  13.997  0.00  0.00    +0.000 A 
ATOM      2  C   UNL     1      46.393   3.638  13.296  0.00  0.00    +0.000 A 
ATOM      3  C   UNL     1      45.647   4.012  12.168  0.00  0.00    +0.000 A 
ATOM      4  C   UNL     1      45.694   5.346  11.765  0.00  0.00    +0.000 A 
ATOM      5  C   UNL     1      46.487   6.277  12.449  0.00  0.00    +0.000 A 
ATOM      6  C   UNL     1      47.231   5.890  13.570  0.00  0.00    +0.000 A 
ENDROOT
BRANCH   1   8
ATOM      7  C   UNL     1      47.136   4.075  16.315  0.00  0.00    +0.000 C 
ATOM      8  O   UNL     1      47.900   4.238  15.124  0.00  0.00    +0.000 OA
ENDBRANCH   1   8
BRANCH   3   9
ATOM      9  N   UNL     1      44.891   3.026  11.546  0.00  0.00    +0.000 N 
ATOM     10  H   UNL     1      45.280   2.094  11.661  0.00  0.00    +0.000 HD
BRANCH   9  11
ATOM     11  C   UNL     1      44.161   3.233  10.300  0.00  0.00    +0.000 C 
ATOM     12  C   UNL     1      43.500   4.611  10.257  0.00  0.00    +0.000 C 
BRANCH  11  13
ATOM     13  C   UNL     1      45.121   3.050   9.139  0.00  0.00    +0.000 A 
ATOM     14  C   UNL     1      45.674   1.811   8.786  0.00  0.00    +0.000 A 
ATOM     15  C   UNL     1      46.579   1.726   7.729  0.00  0.00    +0.000 A 
ATOM     16  C   UNL     1      46.903   2.886   7.048  0.00  0.00    +0.000 A 
ATOM     17  N   UNL     1      46.383   4.095   7.342  0.00  0.00    +0.000 NA
ATOM     18  C   UNL     1      45.502   4.146   8.369  0.00  0.00    +0.000 A 
ENDBRANCH  11  13
ENDBRANCH   9  11
ENDBRANCH   3   9
BRANCH   6  19
ATOM     19  C   UNL     1      48.038   6.869  14.244  0.00  0.00    +0.000 C 
ATOM     20  N   UNL     1      48.724   7.627  14.801  0.00  0.00    +0.000 NA
ENDBRANCH   6  19
TORSDOF 5
ENDMDL
MODEL 5
REMARK VINA RESULT:    -5.489      3.338      6.943
REMARK INTER + INTRA:          -7.670
REMARK INTER:                  -7.032
REMARK INTRA:                  -0.638
REMARK UNBOUND:                -0.576
REMARK  Name = 
REMARK  7 active torsions:
REMARK  status: ('A' for Active; 'I' for Inactive)
REMARK    1  A    between atoms: C_1  and  O_2
REMARK    2  A    between atoms: O_2  and  C_3
REMARK    3  A    between atoms: C_5  and  N_6
REMARK    4  A    between atoms: N_6  and  C_7
REMARK    5  A    between atoms: C_7  and  C_8
REMARK    6  A    between atoms: C_7  and  C_9
REMARK    7  A    between atoms: C_17  and  C_18
REMARK                            x       y       z     vdW  Elec       q    Type
REMARK                         _______ _______ _______ _____ _____    ______ ____
ROOT
ATOM      1  C   UNL     1      47.777   7.975  13.103  0.00  0.00    +0.000 A 
ATOM      2  C   UNL     1      46.720   7.636  12.240  0.00  0.00    +0.000 A 
ATOM      3  C   UNL     1      46.103   6.376  12.286  0.00  0.00    +0.000 A 
ATOM      4  C   UNL     1      46.584   5.444  13.205  0.00  0.00    +0.000 A 
ATOM      5  C   UNL     1      47.633   5.769  14.076  0.00  0.00    +0.000 A 
ATOM      6  C   UNL     1      48.237   7.030  14.024  0.00  0.00    +0.000 A 
ENDROOT
BRANCH   1   8
ATOM      7  C   UNL     1      48.767   9.657  11.761  0.00  0.00    +0.000 C 
ATOM      8  O   UNL     1      48.427   9.181  13.059  0.00  0.00    +0.000 OA
ENDBRANCH   1   8
BRANCH   3   9
ATOM      9  N   UNL     1      45.068   6.139  11.390  0.00  0.00    +0.000 N 
ATOM     10  H   UNL     1      44.490   6.958  11.223  0.00  0.00    +0.000 HD
BRANCH   9  11
ATOM     11  C   UNL     1      44.365   4.865  11.287  0.00  0.00    +0.000 C 
ATOM     12  C   UNL     1      42.850   5.059  11.240  0.00  0.00    +0.000 C 
BRANCH  11  13
ATOM     13  C   UNL     1      44.862   4.135  10.053  0.00  0.00    +0.000 A 
ATOM     14  C   UNL     1      44.766   2.745   9.889  0.00  0.00    +0.000 A 
ATOM     15  C   UNL     1      45.279   2.141   8.743  0.00  0.00    +0.000 A 
ATOM     16  C   UNL     1      45.871   2.945   7.786  0.00  0.00    +0.000 A 
ATOM     17  N   UNL     1      45.970   4.285   7.894  0.00  0.00    +0.000 NA
ATOM     18  C   UNL     1      45.458   4.846   9.013  0.00  0.00    +0.000 A 
ENDBRANCH  11  13
ENDBRANCH   9  11
ENDBRANCH   3   9
BRANCH   6  19
ATOM     19  C   UNL     1      49.306   7.331  14.936  0.00  0.00    +0.000 C 
ATOM     20  N   UNL     1      50.202   7.577  15.637  0.00  0.00    +0.000 NA
ENDBRANCH   6  19
TORSDOF 5
ENDMDL
MODEL 6
REMARK VINA RESULT:    -5.398      1.701      2.389
REMARK INTER + INTRA:          -7.552
REMARK INTER:                  -7.697
REMARK INTRA:                   0.145
REMARK UNBOUND:                -0.576
REMARK  Name = 
REMARK  7 active torsions:
REMARK  status: ('A' for Active; 'I' for Inactive)
REMARK    1  A    between atoms: C_1  and  O_2
REMARK    2  A    between atoms: O_2  and  C_3
REMARK    3  A    between atoms: C_5  and  N_6
REMARK    4  A    between atoms: N_6  and  C_7
REMARK    5  A    between atoms: C_7  and  C_8
REMARK    6  A    between atoms: C_7  and  C_9
REMARK    7  A    between atoms: C_17  and  C_18
REMARK                            x       y       z     vdW  Elec       q    Type
REMARK                         _______ _______ _______ _____ _____    ______ ____
ROOT
ATOM      1  C   UNL     1      45.310   2.505   8.694  0.00  0.00    +0.000 A 
ATOM      2  C   UNL     1      44.804   2.839   9.962  0.00  0.00    +0.000 A 
ATOM      3  C   UNL     1      44.857   4.151  10.459  0.00  0.00    +0.000 A 
ATOM      4  C   UNL     1      45.456   5.127   9.664  0.00  0.00    +0.000 A 
ATOM      5  C   UNL     1      45.961   4.813   8.395  0.00  0.00    +0.000 A 
ATOM      6  C   UNL     1      45.897   3.502   7.909  0.00  0.00    +0.000 A 
ENDROOT
BRANCH   1   8
ATOM      7  C   UNL     1      46.590   0.635   8.004  0.00  0.00    +0.000 C 
ATOM      8  O   UNL     1      45.310   1.229   8.195  0.00  0.00    +0.000 OA
ENDBRANCH   1   8
BRANCH   3   9
ATOM      9  N   UNL     1      44.330   4.376  11.724  0.00  0.00    +0.000 N 
ATOM     10  H   UNL     1      43.523   4.994  11.715  0.00  0.00    +0.000 HD
BRANCH   9  11
ATOM     11  C   UNL     1      45.140   4.449  12.935  0.00  0.00    +0.000 C 
ATOM     12  C   UNL     1      46.235   3.383  12.946  0.00  0.00    +0.000 C 
BRANCH  11  13
ATOM     13  C   UNL     1      45.732   5.842  13.040  0.00  0.00    +0.000 A 
ATOM     14  C   UNL     1      45.009   7.010  12.758  0.00  0.00    +0.000 A 
ATOM     15  C   UNL     1      45.632   8.254  12.840  0.00  0.00    +0.000 A 
ATOM     16  C   UNL     1      46.964   8.297  13.209  0.00  0.00    +0.000 A 
ATOM     17  N   UNL     1      47.693   7.203  13.506  0.00  0.00    +0.000 NA
ATOM     18  C   UNL     1      47.061   6.009  13.424  0.00  0.00    +0.000 A 
ENDBRANCH  11  13
ENDBRANCH   9  11
ENDBRANCH   3   9
BRANCH   6  19
ATOM     19  C   UNL     1      46.419   3.216   6.601  0.00  0.00    +0.000 C 
ATOM     20  N   UNL     1      46.798   2.996   5.523  0.00  0.00    +0.000 NA
ENDBRANCH   6  19
TORSDOF 5
ENDMDL
MODEL 7
REMARK VINA RESULT:    -5.374      2.861      4.889
REMARK INTER + INTRA:          -7.521
REMARK INTER:                  -6.874
REMARK INTRA:                  -0.647
REMARK UNBOUND:                -0.576
REMARK  Name = 
REMARK  7 active torsions:
REMARK  status: ('A' for Active; 'I' for Inactive)
REMARK    1  A    between atoms: C_1  and  O_2
REMARK    2  A    between atoms: O_2  and  C_3
REMARK    3  A    between atoms: C_5  and  N_6
REMARK    4  A    between atoms: N_6  and  C_7
REMARK    5  A    between atoms: C_7  and  C_8
REMARK    6  A    between atoms: C_7  and  C_9
REMARK    7  A    between atoms: C_17  and  C_18
REMARK                            x       y       z     vdW  Elec       q    Type
REMARK                         _______ _______ _______ _____ _____    ______ ____
ROOT
ATOM      1  C   UNL     1      44.915   4.020  11.239  0.00  0.00    +0.000 A 
ATOM      2  C   UNL     1      45.332   4.485  12.499  0.00  0.00    +0.000 A 
ATOM      3  C   UNL     1      46.113   5.642  12.640  0.00  0.00    +0.000 A 
ATOM      4  C   UNL     1      46.494   6.320  11.483  0.00  0.00    +0.000 A 
ATOM      5  C   UNL     1      46.083   5.874  10.220  0.00  0.00    +0.000 A 
ATOM      6  C   UNL     1      45.300   4.721  10.092  0.00  0.00    +0.000 A 
ENDROOT
BRANCH   1   8
ATOM      7  C   UNL     1      43.404   2.456  12.177  0.00  0.00    +0.000 C 
ATOM      8  O   UNL     1      44.185   2.874  11.062  0.00  0.00    +0.000 OA
ENDBRANCH   1   8
BRANCH   3   9
ATOM      9  N   UNL     1      46.473   6.016  13.929  0.00  0.00    +0.000 N 
ATOM     10  H   UNL     1      45.921   6.790  14.288  0.00  0.00    +0.000 HD
BRANCH   9  11
ATOM     11  C   UNL     1      47.840   5.955  14.435  0.00  0.00    +0.000 C 
ATOM     12  C   UNL     1      48.456   7.349  14.561  0.00  0.00    +0.000 C 
BRANCH  11  13
ATOM     13  C   UNL     1      47.831   5.238  15.772  0.00  0.00    +0.000 A 
ATOM     14  C   UNL     1      48.618   5.632  16.864  0.00  0.00    +0.000 A 
ATOM     15  C   UNL     1      48.584   4.901  18.049  0.00  0.00    +0.000 A 
ATOM     16  C   UNL     1      47.758   3.793  18.113  0.00  0.00    +0.000 A 
ATOM     17  N   UNL     1      46.973   3.387  17.096  0.00  0.00    +0.000 NA
ATOM     18  C   UNL     1      47.021   4.120  15.959  0.00  0.00    +0.000 A 
ENDBRANCH  11  13
ENDBRANCH   9  11
ENDBRANCH   3   9
BRANCH   6  19
ATOM     19  C   UNL     1      44.891   4.295   8.782  0.00  0.00    +0.000 C 
ATOM     20  N   UNL     1      44.582   3.908   7.729  0.00  0.00    +0.000 NA
ENDBRANCH   6  19
TORSDOF 5
ENDMDL
MODEL 8
REMARK VINA RESULT:    -5.365      3.321      7.320
REMARK INTER + INTRA:          -7.509
REMARK INTER:                  -7.054
REMARK INTRA:                  -0.455
REMARK UNBOUND:                -0.576
REMARK  Name = 
REMARK  7 active torsions:
REMARK  status: ('A' for Active; 'I' for Inactive)
REMARK    1  A    between atoms: C_1  and  O_2
REMARK    2  A    between atoms: O_2  and  C_3
REMARK    3  A    between atoms: C_5  and  N_6
REMARK    4  A    between atoms: N_6  and  C_7
REMARK    5  A    between atoms: C_7  and  C_8
REMARK    6  A    between atoms: C_7  and  C_9
REMARK    7  A    between atoms: C_17  and  C_18
REMARK                            x       y       z     vdW  Elec       q    Type
REMARK                         _______ _______ _______ _____ _____    ______ ____
ROOT
ATOM      1  C   UNL     1      47.527   4.592  15.775  0.00  0.00    +0.000 A 
ATOM      2  C   UNL     1      46.969   4.617  14.485  0.00  0.00    +0.000 A 
ATOM      3  C   UNL     1      47.227   5.664  13.587  0.00  0.00    +0.000 A 
ATOM      4  C   UNL     1      48.043   6.709  14.017  0.00  0.00    +0.000 A 
ATOM      5  C   UNL     1      48.613   6.697  15.297  0.00  0.00    +0.000 A 
ATOM      6  C   UNL     1      48.352   5.645  16.182  0.00  0.00    +0.000 A 
ENDROOT
BRANCH   1   8
ATOM      7  C   UNL     1      48.141   2.484  16.661  0.00  0.00    +0.000 C 
ATOM      8  O   UNL     1      47.266   3.606  16.690  0.00  0.00    +0.000 OA
ENDBRANCH   1   8
BRANCH   3   9
ATOM      9  N   UNL     1      46.626   5.595  12.336  0.00  0.00    +0.000 N 
ATOM     10  H   UNL     1      46.941   6.323  11.701  0.00  0.00    +0.000 HD
BRANCH   9  11
ATOM     11  C   UNL     1      45.250   5.156  12.124  0.00  0.00    +0.000 C 
ATOM     12  C   UNL     1      44.257   6.302  12.318  0.00  0.00    +0.000 C 
BRANCH  11  13
ATOM     13  C   UNL     1      45.138   4.565  10.732  0.00  0.00    +0.000 A 
ATOM     14  C   UNL     1      44.530   3.330  10.465  0.00  0.00    +0.000 A 
ATOM     15  C   UNL     1      44.498   2.833   9.164  0.00  0.00    +0.000 A 
ATOM     16  C   UNL     1      45.073   3.590   8.159  0.00  0.00    +0.000 A 
ATOM     17  N   UNL     1      45.653   4.789   8.365  0.00  0.00    +0.000 NA
ATOM     18  C   UNL     1      45.664   5.250   9.638  0.00  0.00    +0.000 A 
ENDBRANCH  11  13
ENDBRANCH   9  11
ENDBRANCH   3   9
BRANCH   6  19
ATOM     19  C   UNL     1      48.957   5.662  17.485  0.00  0.00    +0.000 C 
ATOM     20  N   UNL     1      49.483   5.647  18.523  0.00  0.00    +0.000 NA
ENDBRANCH   6  19
TORSDOF 5
ENDMDL
MODEL 9
REMARK VINA RESULT:    -5.194      3.246      5.656
REMARK INTER + INTRA:          -7.288
REMARK INTER:                  -6.687
REMARK INTRA:                  -0.601
REMARK UNBOUND:                -0.576
REMARK  Name = 
REMARK  7 active torsions:
REMARK  status: ('A' for Active; 'I' for Inactive)
REMARK    1  A    between atoms: C_1  and  O_2
REMARK    2  A    between atoms: O_2  and  C_3
REMARK    3  A    between atoms: C_5  and  N_6
REMARK    4  A    between atoms: N_6  and  C_7
REMARK    5  A    between atoms: C_7  and  C_8
REMARK    6  A    between atoms: C_7  and  C_9
REMARK    7  A    between atoms: C_17  and  C_18
REMARK                            x       y       z     vdW  Elec       q    Type
REMARK                         _______ _______ _______ _____ _____    ______ ____
ROOT
ATOM      1  C   UNL     1      45.003   4.878  10.750  0.00  0.00    +0.000 A 
ATOM      2  C   UNL     1      45.949   5.907  10.900  0.00  0.00    +0.000 A 
ATOM      3  C   UNL     1      46.604   6.137  12.120  0.00  0.00    +0.000 A 
ATOM      4  C   UNL     1      46.273   5.325  13.204  0.00  0.00    +0.000 A 
ATOM      5  C   UNL     1      45.337   4.291  13.069  0.00  0.00    +0.000 A 
ATOM      6  C   UNL     1      44.693   4.068  11.846  0.00  0.00    +0.000 A 
ENDROOT
BRANCH   1   8
ATOM      7  C   UNL     1      45.088   4.152   8.497  0.00  0.00    +0.000 C 
ATOM      8  O   UNL     1      44.317   4.650   9.585  0.00  0.00    +0.000 OA
ENDBRANCH   1   8
BRANCH   3   9
ATOM      9  N   UNL     1      47.521   7.179  12.166  0.00  0.00    +0.000 N 
ATOM     10  H   UNL     1      47.487   7.777  11.345  0.00  0.00    +0.000 HD
BRANCH   9  11
ATOM     11  C   UNL     1      48.838   7.070  12.786  0.00  0.00    +0.000 C 
ATOM     12  C   UNL     1      49.898   7.835  11.994  0.00  0.00    +0.000 C 
BRANCH  11  13
ATOM     13  C   UNL     1      48.746   7.579  14.212  0.00  0.00    +0.000 A 
ATOM     14  C   UNL     1      48.294   8.864  14.544  0.00  0.00    +0.000 A 
ATOM     15  C   UNL     1      48.273   9.274  15.875  0.00  0.00    +0.000 A 
ATOM     16  C   UNL     1      48.702   8.384  16.843  0.00  0.00    +0.000 A 
ATOM     17  N   UNL     1      49.128   7.134  16.572  0.00  0.00    +0.000 NA
ATOM     18  C   UNL     1      49.132   6.760  15.272  0.00  0.00    +0.000 A 
ENDBRANCH  11  13
ENDBRANCH   9  11
ENDBRANCH   3   9
BRANCH   6  19
ATOM     19  C   UNL     1      43.743   2.996  11.742  0.00  0.00    +0.000 C 
ATOM     20  N   UNL     1      42.950   2.152  11.623  0.00  0.00    +0.000 NA
ENDBRANCH   6  19
TORSDOF 5
ENDMDL
