MODEL 1
REMARK VINA RESULT:    -7.902      0.000      0.000
REMARK INTER + INTRA:         -10.456
REMARK INTER:                  -9.750
REMARK INTRA:                  -0.706
REMARK UNBOUND:                -0.706
REMARK  Name = 
REMARK  5 active torsions:
REMARK  status: ('A' for Active; 'I' for Inactive)
REMARK    1  A    between atoms: C_1  and  C_2
REMARK    2  A    between atoms: C_4  and  C_5
REMARK    3  A    between atoms: N_10  and  C_11
REMARK    4  A    between atoms: C_11  and  C_12
REMARK    5  A    between atoms: C_16  and  C_17
REMARK                            x       y       z     vdW  Elec       q    Type
REMARK                         _______ _______ _______ _____ _____    ______ ____
ROOT
ATOM      1  C   UNL     1      48.113   5.143  20.678  0.00  0.00    +0.000 C 
ATOM      2  C   UNL     1      48.539   4.893  19.263  0.00  0.00    +0.000 A 
ATOM      3  C   UNL     1      49.017   3.669  18.873  0.00  0.00    +0.000 A 
ATOM      4  C   UNL     1      49.365   3.574  17.547  0.00  0.00    +0.000 A 
ATOM      5  N   UNL     1      49.256   4.583  16.644  0.00  0.00    +0.000 NA
ATOM      6  C   UNL     1      48.760   5.730  17.115  0.00  0.00    +0.000 A 
ATOM      7  N   UNL     1      48.522   6.803  16.275  0.00  0.00    +0.000 N 
ATOM      8  N   UNL     1      48.417   5.924  18.397  0.00  0.00    +0.000 NA
ATOM      9  H   UNL     1      48.409   7.622  16.862  0.00  0.00    +0.000 HD
ENDROOT
BRANCH   4  10
ATOM     10  C   UNL     1      49.889   2.270  17.033  0.00  0.00    +0.000 C 
ATOM     11  N   UNL     1      50.890   1.703  17.770  0.00  0.00    +0.000 N 
ATOM     12  O   UNL     1      49.457   1.740  16.018  0.00  0.00    +0.000 OA
ATOM     13  H   UNL     1      51.261   2.189  18.577  0.00  0.00    +0.000 HD
ATOM     14  H   UNL     1      51.314   0.844  17.453  0.00  0.00    +0.000 HD
ENDBRANCH   4  10
BRANCH   7  15
ATOM     15  C   UNL     1      49.423   6.958  15.159  0.00  0.00    +0.000 C 
BRANCH  15  16
ATOM     16  C   UNL     1      48.632   6.945  13.865  0.00  0.00    +0.000 A 
ATOM     17  C   UNL     1      49.052   7.690  12.758  0.00  0.00    +0.000 A 
ATOM     18  C   UNL     1      48.322   7.656  11.572  0.00  0.00    +0.000 A 
ATOM     19  C   UNL     1      47.164   6.876  11.478  0.00  0.00    +0.000 A 
ATOM     20  C   UNL     1      46.705   6.115  12.568  0.00  0.00    +0.000 A 
ATOM     21  C   UNL     1      47.453   6.184  13.761  0.00  0.00    +0.000 A 
BRANCH  20  22
ATOM     22  C   UNL     1      45.510   5.251  12.460  0.00  0.00    +0.000 A 
ATOM     23  C   UNL     1      45.568   3.868  12.684  0.00  0.00    +0.000 A 
ATOM     24  N   UNL     1      44.511   3.015  12.632  0.00  0.00    +0.000 NA
ATOM     25  C   UNL     1      43.312   3.567  12.348  0.00  0.00    +0.000 A 
ATOM     26  C   UNL     1      43.138   4.916  12.107  0.00  0.00    +0.000 A 
ATOM     27  F   UNL     1      41.922   5.408  11.837  0.00  0.00    +0.000 F 
ATOM     28  C   UNL     1      44.239   5.763  12.156  0.00  0.00    +0.000 A 
ENDBRANCH  20  22
ENDBRANCH  15  16
ENDBRANCH   7  15
TORSDOF 4
ENDMDL
MODEL 2
REMARK VINA RESULT:    -7.750      2.438      2.810
REMARK INTER + INTRA:         -10.268
REMARK INTER:                  -9.612
REMARK INTRA:                  -0.656
REMARK UNBOUND:                -0.706
REMARK  Name = 
REMARK  5 active torsions:
REMARK  status: ('A' for Active; 'I' for Inactive)
REMARK    1  A    between atoms: C_1  and  C_2
REMARK    2  A    between atoms: C_4  and  C_5
REMARK    3  A    between atoms: N_10  and  C_11
REMARK    4  A    between atoms: C_11  and  C_12
REMARK    5  A    between atoms: C_16  and  C_17
REMARK                            x       y       z     vdW  Elec       q    Type
REMARK                         _______ _______ _______ _____ _____    ______ ____
ROOT
ATOM      1  C   UNL     1      49.827   6.979  19.193  0.00  0.00    +0.000 C 
ATOM      2  C   UNL     1      49.258   6.421  17.924  0.00  0.00    +0.000 A 
ATOM      3  C   UNL     1      48.825   5.122  17.853  0.00  0.00    +0.000 A 
ATOM      4  C   UNL     1      48.319   4.742  16.633  0.00  0.00    +0.000 A 
ATOM      5  N   UNL     1      48.225   5.553  15.548  0.00  0.00    +0.000 NA
ATOM      6  C   UNL     1      48.654   6.805  15.722  0.00  0.00    +0.000 A 
ATOM      7  N   UNL     1      48.531   7.748  14.717  0.00  0.00    +0.000 N 
ATOM      8  N   UNL     1      49.185   7.260  16.867  0.00  0.00    +0.000 NA
ATOM      9  H   UNL     1      49.142   8.521  14.957  0.00  0.00    +0.000 HD
ENDROOT
BRANCH   4  10
ATOM     10  C   UNL     1      47.815   3.343  16.470  0.00  0.00    +0.000 C 
ATOM     11  N   UNL     1      47.016   2.880  17.478  0.00  0.00    +0.000 N 
ATOM     12  O   UNL     1      48.098   2.649  15.502  0.00  0.00    +0.000 OA
ATOM     13  H   UNL     1      46.841   3.459  18.289  0.00  0.00    +0.000 HD
ATOM     14  H   UNL     1      46.679   1.929  17.446  0.00  0.00    +0.000 HD
ENDBRANCH   4  10
BRANCH   7  15
ATOM     15  C   UNL     1      48.645   7.263  13.363  0.00  0.00    +0.000 C 
BRANCH  15  16
ATOM     16  C   UNL     1      47.273   7.238  12.718  0.00  0.00    +0.000 A 
ATOM     17  C   UNL     1      46.384   8.306  12.876  0.00  0.00    +0.000 A 
ATOM     18  C   UNL     1      45.133   8.273  12.263  0.00  0.00    +0.000 A 
ATOM     19  C   UNL     1      44.756   7.173  11.487  0.00  0.00    +0.000 A 
ATOM     20  C   UNL     1      45.618   6.077  11.305  0.00  0.00    +0.000 A 
ATOM     21  C   UNL     1      46.870   6.129  11.951  0.00  0.00    +0.000 A 
BRANCH  20  22
ATOM     22  C   UNL     1      45.245   4.933  10.445  0.00  0.00    +0.000 A 
ATOM     23  C   UNL     1      44.449   3.877  10.913  0.00  0.00    +0.000 A 
ATOM     24  N   UNL     1      44.041   2.810  10.176  0.00  0.00    +0.000 NA
ATOM     25  C   UNL     1      44.438   2.788   8.886  0.00  0.00    +0.000 A 
ATOM     26  C   UNL     1      45.224   3.773   8.319  0.00  0.00    +0.000 A 
ATOM     27  F   UNL     1      45.581   3.701   7.031  0.00  0.00    +0.000 F 
ATOM     28  C   UNL     1      45.636   4.847   9.100  0.00  0.00    +0.000 A 
ENDBRANCH  20  22
ENDBRANCH  15  16
ENDBRANCH   7  15
TORSDOF 4
ENDMDL
MODEL 3
REMARK VINA RESULT:    -7.645      4.081      6.279
REMARK INTER + INTRA:         -10.139
REMARK INTER:                  -9.455
REMARK INTRA:                  -0.684
REMARK UNBOUND:                -0.706
REMARK  Name = 
REMARK  5 active torsions:
REMARK  status: ('A' for Active; 'I' for Inactive)
REMARK    1  A    between atoms: C_1  and  C_2
REMARK    2  A    between atoms: C_4  and  C_5
REMARK    3  A    between atoms: N_10  and  C_11
REMARK    4  A    between atoms: C_11  and  C_12
REMARK    5  A    between atoms: C_16  and  C_17
REMARK                            x       y       z     vdW  Elec       q    Type
REMARK                         _______ _______ _______ _____ _____    ______ ____
ROOT
ATOM      1  C   UNL     1      50.549   7.467  11.141  0.00  0.00    +0.000 C 
ATOM      2  C   UNL     1      49.370   7.524  12.064  0.00  0.00    +0.000 A 
ATOM      3  C   UNL     1      49.530   7.775  13.402  0.00  0.00    +0.000 A 
ATOM      4  C   UNL     1      48.366   7.806  14.133  0.00  0.00    +0.000 A 
ATOM      5  N   UNL     1      47.124   7.617  13.617  0.00  0.00    +0.000 NA
ATOM      6  C   UNL     1      47.070   7.401  12.301  0.00  0.00    +0.000 A 
ATOM      7  N   UNL     1      45.857   7.279  11.647  0.00  0.00    +0.000 N 
ATOM      8  N   UNL     1      48.152   7.328  11.512  0.00  0.00    +0.000 NA
ATOM      9  H   UNL     1      46.047   6.864  10.742  0.00  0.00    +0.000 HD
ENDROOT
BRANCH   4  10
ATOM     10  C   UNL     1      48.448   8.083  15.601  0.00  0.00    +0.000 C 
ATOM     11  N   UNL     1      47.724   9.154  16.043  0.00  0.00    +0.000 N 
ATOM     12  O   UNL     1      49.121   7.401  16.363  0.00  0.00    +0.000 OA
ATOM     13  H   UNL     1      47.217   9.729  15.381  0.00  0.00    +0.000 HD
ATOM     14  H   UNL     1      47.772   9.417  17.016  0.00  0.00    +0.000 HD
ENDBRANCH   4  10
BRANCH   7  15
ATOM     15  C   UNL     1      44.781   6.674  12.395  0.00  0.00    +0.000 C 
BRANCH  15  16
ATOM     16  C   UNL     1      44.491   5.294  11.838  0.00  0.00    +0.000 A 
ATOM     17  C   UNL     1      43.568   4.447  12.460  0.00  0.00    +0.000 A 
ATOM     18  C   UNL     1      43.302   3.188  11.925  0.00  0.00    +0.000 A 
ATOM     19  C   UNL     1      43.954   2.762  10.764  0.00  0.00    +0.000 A 
ATOM     20  C   UNL     1      44.891   3.581  10.109  0.00  0.00    +0.000 A 
ATOM     21  C   UNL     1      45.155   4.842  10.682  0.00  0.00    +0.000 A 
BRANCH  20  22
ATOM     22  C   UNL     1      45.547   3.155   8.854  0.00  0.00    +0.000 A 
ATOM     23  C   UNL     1      45.883   4.068   7.843  0.00  0.00    +0.000 A 
ATOM     24  N   UNL     1      46.512   3.758   6.678  0.00  0.00    +0.000 NA
ATOM     25  C   UNL     1      46.839   2.460   6.503  0.00  0.00    +0.000 A 
ATOM     26  C   UNL     1      46.555   1.476   7.430  0.00  0.00    +0.000 A 
ATOM     27  F   UNL     1      46.911   0.205   7.205  0.00  0.00    +0.000 F 
ATOM     28  C   UNL     1      45.901   1.820   8.608  0.00  0.00    +0.000 A 
ENDBRANCH  20  22
ENDBRANCH  15  16
ENDBRANCH   7  15
TORSDOF 4
ENDMDL
MODEL 4
REMARK VINA RESULT:    -7.429      4.950      7.205
REMARK INTER + INTRA:          -9.872
REMARK INTER:                  -9.186
REMARK INTRA:                  -0.686
REMARK UNBOUND:                -0.706
REMARK  Name = 
REMARK  5 active torsions:
REMARK  status: ('A' for Active; 'I' for Inactive)
REMARK    1  A    between atoms: C_1  and  C_2
REMARK    2  A    between atoms: C_4  and  C_5
REMARK    3  A    between atoms: N_10  and  C_11
REMARK    4  A    between atoms: C_11  and  C_12
REMARK    5  A    between atoms: C_16  and  C_17
REMARK                            x       y       z     vdW  Elec       q    Type
REMARK                         _______ _______ _______ _____ _____    ______ ____
ROOT
ATOM      1  C   UNL     1      49.617   9.868  12.345  0.00  0.00    +0.000 C 
ATOM      2  C   UNL     1      48.255   9.245  12.346  0.00  0.00    +0.000 A 
ATOM      3  C   UNL     1      47.137   9.985  12.057  0.00  0.00    +0.000 A 
ATOM      4  C   UNL     1      45.953   9.289  12.086  0.00  0.00    +0.000 A 
ATOM      5  N   UNL     1      45.841   7.964  12.366  0.00  0.00    +0.000 NA
ATOM      6  C   UNL     1      46.986   7.326  12.614  0.00  0.00    +0.000 A 
ATOM      7  N   UNL     1      47.011   5.960  12.828  0.00  0.00    +0.000 N 
ATOM      8  N   UNL     1      48.186   7.926  12.633  0.00  0.00    +0.000 NA
ATOM      9  H   UNL     1      47.906   5.739  13.249  0.00  0.00    +0.000 HD
ENDROOT
BRANCH   4  10
ATOM     10  C   UNL     1      44.684  10.018  11.774  0.00  0.00    +0.000 C 
ATOM     11  N   UNL     1      43.708   9.276  11.169  0.00  0.00    +0.000 N 
ATOM     12  O   UNL     1      44.523  11.202  12.035  0.00  0.00    +0.000 OA
ATOM     13  H   UNL     1      43.889   8.311  10.920  0.00  0.00    +0.000 HD
ATOM     14  H   UNL     1      42.845   9.721  10.895  0.00  0.00    +0.000 HD
ENDBRANCH   4  10
BRANCH   7  15
ATOM     15  C   UNL     1      45.858   5.392  13.486  0.00  0.00    +0.000 C 
BRANCH  15  16
ATOM     16  C   UNL     1      45.117   4.490  12.518  0.00  0.00    +0.000 A 
ATOM     17  C   UNL     1      43.867   3.956  12.847  0.00  0.00    +0.000 A 
ATOM     18  C   UNL     1      43.192   3.141  11.939  0.00  0.00    +0.000 A 
ATOM     19  C   UNL     1      43.759   2.851  10.695  0.00  0.00    +0.000 A 
ATOM     20  C   UNL     1      45.016   3.365  10.326  0.00  0.00    +0.000 A 
ATOM     21  C   UNL     1      45.684   4.171  11.270  0.00  0.00    +0.000 A 
BRANCH  20  22
ATOM     22  C   UNL     1      45.598   3.102   8.992  0.00  0.00    +0.000 A 
ATOM     23  C   UNL     1      45.872   4.134   8.083  0.00  0.00    +0.000 A 
ATOM     24  N   UNL     1      46.433   3.974   6.854  0.00  0.00    +0.000 NA
ATOM     25  C   UNL     1      46.752   2.711   6.503  0.00  0.00    +0.000 A 
ATOM     26  C   UNL     1      46.525   1.618   7.318  0.00  0.00    +0.000 A 
ATOM     27  F   UNL     1      46.870   0.388   6.918  0.00  0.00    +0.000 F 
ATOM     28  C   UNL     1      45.940   1.810   8.564  0.00  0.00    +0.000 A 
ENDBRANCH  20  22
ENDBRANCH  15  16
ENDBRANCH   7  15
TORSDOF 4
ENDMDL
MODEL 5
REMARK VINA RESULT:    -7.391      3.406      4.576
REMARK INTER + INTRA:          -9.825
REMARK INTER:                  -9.330
REMARK INTRA:                  -0.495
REMARK UNBOUND:                -0.706
REMARK  Name = 
REMARK  5 active torsions:
REMARK  status: ('A' for Active; 'I' for Inactive)
REMARK    1  A    between atoms: C_1  and  C_2
REMARK    2  A    between atoms: C_4  and  C_5
REMARK    3  A    between atoms: N_10  and  C_11
REMARK    4  A    between atoms: C_11  and  C_12
REMARK    5  A    between atoms: C_16  and  C_17
REMARK                            x       y       z     vdW  Elec       q    Type
REMARK                         _______ _______ _______ _____ _____    ______ ____
ROOT
ATOM      1  C   UNL     1      47.934   2.863  18.666  0.00  0.00    +0.000 C 
ATOM      2  C   UNL     1      48.063   3.842  17.539  0.00  0.00    +0.000 A 
ATOM      3  C   UNL     1      49.078   4.763  17.513  0.00  0.00    +0.000 A 
ATOM      4  C   UNL     1      49.084   5.595  16.420  0.00  0.00    +0.000 A 
ATOM      5  N   UNL     1      48.179   5.549  15.407  0.00  0.00    +0.000 NA
ATOM      6  C   UNL     1      47.241   4.605  15.512  0.00  0.00    +0.000 A 
ATOM      7  N   UNL     1      46.316   4.403  14.504  0.00  0.00    +0.000 N 
ATOM      8  N   UNL     1      47.141   3.764  16.553  0.00  0.00    +0.000 NA
ATOM      9  H   UNL     1      45.565   3.847  14.896  0.00  0.00    +0.000 HD
ENDROOT
BRANCH   4  10
ATOM     10  C   UNL     1      50.164   6.625  16.307  0.00  0.00    +0.000 C 
ATOM     11  N   UNL     1      50.573   7.186  17.484  0.00  0.00    +0.000 N 
ATOM     12  O   UNL     1      50.651   6.953  15.234  0.00  0.00    +0.000 OA
ATOM     13  H   UNL     1      50.116   6.931  18.351  0.00  0.00    +0.000 HD
ATOM     14  H   UNL     1      51.268   7.917  17.470  0.00  0.00    +0.000 HD
ENDBRANCH   4  10
BRANCH   7  15
ATOM     15  C   UNL     1      45.905   5.572  13.765  0.00  0.00    +0.000 C 
BRANCH  15  16
ATOM     16  C   UNL     1      45.017   5.154  12.610  0.00  0.00    +0.000 A 
ATOM     17  C   UNL     1      43.640   5.398  12.636  0.00  0.00    +0.000 A 
ATOM     18  C   UNL     1      42.840   5.020  11.558  0.00  0.00    +0.000 A 
ATOM     19  C   UNL     1      43.408   4.396  10.444  0.00  0.00    +0.000 A 
ATOM     20  C   UNL     1      44.787   4.128  10.378  0.00  0.00    +0.000 A 
ATOM     21  C   UNL     1      45.569   4.504  11.490  0.00  0.00    +0.000 A 
BRANCH  20  22
ATOM     22  C   UNL     1      45.400   3.513   9.182  0.00  0.00    +0.000 A 
ATOM     23  C   UNL     1      45.821   4.277   8.084  0.00  0.00    +0.000 A 
ATOM     24  N   UNL     1      46.418   3.788   6.964  0.00  0.00    +0.000 NA
ATOM     25  C   UNL     1      46.621   2.454   6.931  0.00  0.00    +0.000 A 
ATOM     26  C   UNL     1      46.246   1.605   7.953  0.00  0.00    +0.000 A 
ATOM     27  F   UNL     1      46.480   0.289   7.867  0.00  0.00    +0.000 F 
ATOM     28  C   UNL     1      45.627   2.132   9.082  0.00  0.00    +0.000 A 
ENDBRANCH  20  22
ENDBRANCH  15  16
ENDBRANCH   7  15
TORSDOF 4
ENDMDL
MODEL 6
REMARK VINA RESULT:    -7.137      3.284      4.778
REMARK INTER + INTRA:          -9.513
REMARK INTER:                  -9.019
REMARK INTRA:                  -0.493
REMARK UNBOUND:                -0.706
REMARK  Name = 
REMARK  5 active torsions:
REMARK  status: ('A' for Active; 'I' for Inactive)
REMARK    1  A    between atoms: C_1  and  C_2
REMARK    2  A    between atoms: C_4  and  C_5
REMARK    3  A    between atoms: N_10  and  C_11
REMARK    4  A    between atoms: C_11  and  C_12
REMARK    5  A    between atoms: C_16  and  C_17
REMARK                            x       y       z     vdW  Elec       q    Type
REMARK                         _______ _______ _______ _____ _____    ______ ____
ROOT
ATOM      1  C   UNL     1      51.034   7.872  14.560  0.00  0.00    +0.000 C 
ATOM      2  C   UNL     1      49.952   7.004  15.126  0.00  0.00    +0.000 A 
ATOM      3  C   UNL     1      50.062   6.461  16.380  0.00  0.00    +0.000 A 
ATOM      4  C   UNL     1      48.996   5.691  16.778  0.00  0.00    +0.000 A 
ATOM      5  N   UNL     1      47.886   5.460  16.030  0.00  0.00    +0.000 NA
ATOM      6  C   UNL     1      47.862   6.049  14.832  0.00  0.00    +0.000 A 
ATOM      7  N   UNL     1      46.751   5.958  14.014  0.00  0.00    +0.000 N 
ATOM      8  N   UNL     1      48.865   6.796  14.348  0.00  0.00    +0.000 NA
ATOM      9  H   UNL     1      47.042   6.236  13.083  0.00  0.00    +0.000 HD
ENDROOT
BRANCH   4  10
ATOM     10  C   UNL     1      49.029   5.067  18.138  0.00  0.00    +0.000 C 
ATOM     11  N   UNL     1      47.812   4.770  18.684  0.00  0.00    +0.000 N 
ATOM     12  O   UNL     1      50.075   4.837  18.731  0.00  0.00    +0.000 OA
ATOM     13  H   UNL     1      46.963   5.018  18.190  0.00  0.00    +0.000 HD
ATOM     14  H   UNL     1      47.767   4.386  19.616  0.00  0.00    +0.000 HD
ENDBRANCH   4  10
BRANCH   7  15
ATOM     15  C   UNL     1      45.996   4.730  14.089  0.00  0.00    +0.000 C 
BRANCH  15  16
ATOM     16  C   UNL     1      45.101   4.611  12.871  0.00  0.00    +0.000 A 
ATOM     17  C   UNL     1      43.768   5.031  12.914  0.00  0.00    +0.000 A 
ATOM     18  C   UNL     1      42.963   4.929  11.781  0.00  0.00    +0.000 A 
ATOM     19  C   UNL     1      43.482   4.406  10.592  0.00  0.00    +0.000 A 
ATOM     20  C   UNL     1      44.816   3.969  10.506  0.00  0.00    +0.000 A 
ATOM     21  C   UNL     1      45.602   4.067  11.673  0.00  0.00    +0.000 A 
BRANCH  20  22
ATOM     22  C   UNL     1      45.384   3.461   9.239  0.00  0.00    +0.000 A 
ATOM     23  C   UNL     1      45.741   4.317   8.187  0.00  0.00    +0.000 A 
ATOM     24  N   UNL     1      46.294   3.929   7.007  0.00  0.00    +0.000 NA
ATOM     25  C   UNL     1      46.518   2.606   6.859  0.00  0.00    +0.000 A 
ATOM     26  C   UNL     1      46.205   1.672   7.828  0.00  0.00    +0.000 A 
ATOM     27  F   UNL     1      46.457   0.373   7.628  0.00  0.00    +0.000 F 
ATOM     28  C   UNL     1      45.629   2.097   9.020  0.00  0.00    +0.000 A 
ENDBRANCH  20  22
ENDBRANCH  15  16
ENDBRANCH   7  15
TORSDOF 4
ENDMDL
MODEL 7
REMARK VINA RESULT:    -7.091      3.142      7.159
REMARK INTER + INTRA:          -9.455
REMARK INTER:                  -8.700
REMARK INTRA:                  -0.755
REMARK UNBOUND:                -0.706
REMARK  Name = 
REMARK  5 active torsions:
REMARK  status: ('A' for Active; 'I' for Inactive)
REMARK    1  A    between atoms: C_1  and  C_2
REMARK    2  A    between atoms: C_4  and  C_5
REMARK    3  A    between atoms: N_10  and  C_11
REMARK    4  A    between atoms: C_11  and  C_12
REMARK    5  A    between atoms: C_16  and  C_17
REMARK                            x       y       z     vdW  Elec       q    Type
REMARK                         _______ _______ _______ _____ _____    ______ ____
ROOT
ATOM      1  C   UNL     1      45.355   3.598   7.461  0.00  0.00    +0.000 C 
ATOM      2  C   UNL     1      45.196   3.968   8.904  0.00  0.00    +0.000 A 
ATOM      3  C   UNL     1      44.404   3.226   9.742  0.00  0.00    +0.000 A 
ATOM      4  C   UNL     1      44.352   3.671  11.041  0.00  0.00    +0.000 A 
ATOM      5  N   UNL     1      45.021   4.753  11.516  0.00  0.00    +0.000 NA
ATOM      6  C   UNL     1      45.783   5.398  10.629  0.00  0.00    +0.000 A 
ATOM      7  N   UNL     1      46.578   6.463  11.011  0.00  0.00    +0.000 N 
ATOM      8  N   UNL     1      45.877   5.053   9.336  0.00  0.00    +0.000 NA
ATOM      9  H   UNL     1      46.847   6.953  10.165  0.00  0.00    +0.000 HD
ENDROOT
BRANCH   4  10
ATOM     10  C   UNL     1      43.518   2.914  12.026  0.00  0.00    +0.000 C 
ATOM     11  N   UNL     1      43.468   3.438  13.287  0.00  0.00    +0.000 N 
ATOM     12  O   UNL     1      42.919   1.888  11.731  0.00  0.00    +0.000 OA
ATOM     13  H   UNL     1      44.015   4.260  13.514  0.00  0.00    +0.000 HD
ATOM     14  H   UNL     1      42.956   2.951  14.007  0.00  0.00    +0.000 HD
ENDBRANCH   4  10
BRANCH   7  15
ATOM     15  C   UNL     1      46.070   7.295  12.075  0.00  0.00    +0.000 C 
BRANCH  15  16
ATOM     16  C   UNL     1      47.125   7.435  13.155  0.00  0.00    +0.000 A 
ATOM     17  C   UNL     1      47.889   8.601  13.268  0.00  0.00    +0.000 A 
ATOM     18  C   UNL     1      48.844   8.719  14.276  0.00  0.00    +0.000 A 
ATOM     19  C   UNL     1      49.046   7.674  15.182  0.00  0.00    +0.000 A 
ATOM     20  C   UNL     1      48.303   6.482  15.102  0.00  0.00    +0.000 A 
ATOM     21  C   UNL     1      47.357   6.383  14.061  0.00  0.00    +0.000 A 
BRANCH  20  22
ATOM     22  C   UNL     1      48.478   5.393  16.087  0.00  0.00    +0.000 A 
ATOM     23  C   UNL     1      49.643   5.267  16.858  0.00  0.00    +0.000 A 
ATOM     24  N   UNL     1      49.865   4.314  17.802  0.00  0.00    +0.000 NA
ATOM     25  C   UNL     1      48.865   3.429  18.003  0.00  0.00    +0.000 A 
ATOM     26  C   UNL     1      47.676   3.457  17.300  0.00  0.00    +0.000 A 
ATOM     27  F   UNL     1      46.716   2.558  17.549  0.00  0.00    +0.000 F 
ATOM     28  C   UNL     1      47.481   4.437  16.333  0.00  0.00    +0.000 A 
ENDBRANCH  20  22
ENDBRANCH  15  16
ENDBRANCH   7  15
TORSDOF 4
ENDMDL
MODEL 8
REMARK VINA RESULT:    -6.816      2.698      4.356
REMARK INTER + INTRA:          -9.116
REMARK INTER:                  -8.476
REMARK INTRA:                  -0.639
REMARK UNBOUND:                -0.706
REMARK  Name = 
REMARK  5 active torsions:
REMARK  status: ('A' for Active; 'I' for Inactive)
REMARK    1  A    between atoms: C_1  and  C_2
REMARK    2  A    between atoms: C_4  and  C_5
REMARK    3  A    between atoms: N_10  and  C_11
REMARK    4  A    between atoms: C_11  and  C_12
REMARK    5  A    between atoms: C_16  and  C_17
REMARK                            x       y       z     vdW  Elec       q    Type
REMARK                         _______ _______ _______ _____ _____    ______ ____
ROOT
ATOM      1  C   UNL     1      48.228   5.985  19.452  0.00  0.00    +0.000 C 
ATOM      2  C   UNL     1      48.456   4.956  18.386  0.00  0.00    +0.000 A 
ATOM      3  C   UNL     1      49.536   4.114  18.433  0.00  0.00    +0.000 A 
ATOM      4  C   UNL     1      49.621   3.215  17.397  0.00  0.00    +0.000 A 
ATOM      5  N   UNL     1      48.725   3.119  16.381  0.00  0.00    +0.000 NA
ATOM      6  C   UNL     1      47.696   3.968  16.434  0.00  0.00    +0.000 A 
ATOM      7  N   UNL     1      46.674   3.910  15.503  0.00  0.00    +0.000 N 
ATOM      8  N   UNL     1      47.542   4.895  17.391  0.00  0.00    +0.000 NA
ATOM      9  H   UNL     1      46.162   4.782  15.569  0.00  0.00    +0.000 HD
ENDROOT
BRANCH   4  10
ATOM     10  C   UNL     1      50.766   2.252  17.375  0.00  0.00    +0.000 C 
ATOM     11  N   UNL     1      51.831   2.580  18.166  0.00  0.00    +0.000 N 
ATOM     12  O   UNL     1      50.759   1.236  16.693  0.00  0.00    +0.000 OA
ATOM     13  H   UNL     1      51.829   3.452  18.680  0.00  0.00    +0.000 HD
ATOM     14  H   UNL     1      52.651   1.991  18.161  0.00  0.00    +0.000 HD
ENDBRANCH   4  10
BRANCH   7  15
ATOM     15  C   UNL     1      47.043   3.503  14.169  0.00  0.00    +0.000 C 
BRANCH  15  16
ATOM     16  C   UNL     1      46.557   4.538  13.173  0.00  0.00    +0.000 A 
ATOM     17  C   UNL     1      45.431   4.298  12.378  0.00  0.00    +0.000 A 
ATOM     18  C   UNL     1      44.990   5.266  11.478  0.00  0.00    +0.000 A 
ATOM     19  C   UNL     1      45.667   6.484  11.362  0.00  0.00    +0.000 A 
ATOM     20  C   UNL     1      46.806   6.764  12.139  0.00  0.00    +0.000 A 
ATOM     21  C   UNL     1      47.241   5.759  13.028  0.00  0.00    +0.000 A 
BRANCH  20  22
ATOM     22  C   UNL     1      47.497   8.068  12.057  0.00  0.00    +0.000 A 
ATOM     23  C   UNL     1      46.879   9.265  12.446  0.00  0.00    +0.000 A 
ATOM     24  N   UNL     1      47.458  10.495  12.427  0.00  0.00    +0.000 NA
ATOM     25  C   UNL     1      48.738  10.546  12.003  0.00  0.00    +0.000 A 
ATOM     26  C   UNL     1      49.445   9.431  11.595  0.00  0.00    +0.000 A 
ATOM     27  F   UNL     1      50.717   9.541  11.191  0.00  0.00    +0.000 F 
ATOM     28  C   UNL     1      48.823   8.187  11.614  0.00  0.00    +0.000 A 
ENDBRANCH  20  22
ENDBRANCH  15  16
ENDBRANCH   7  15
TORSDOF 4
ENDMDL
MODEL 9
REMARK VINA RESULT:    -6.495      3.670      5.554
REMARK INTER + INTRA:          -8.720
REMARK INTER:                  -8.163
REMARK INTRA:                  -0.557
REMARK UNBOUND:                -0.706
REMARK  Name = 
REMARK  5 active torsions:
REMARK  status: ('A' for Active; 'I' for Inactive)
REMARK    1  A    between atoms: C_1  and  C_2
REMARK    2  A    between atoms: C_4  and  C_5
REMARK    3  A    between atoms: N_10  and  C_11
REMARK    4  A    between atoms: C_11  and  C_12
REMARK    5  A    between atoms: C_16  and  C_17
REMARK                            x       y       z     vdW  Elec       q    Type
REMARK                         _______ _______ _______ _____ _____    ______ ____
ROOT
ATOM      1  C   UNL     1      49.810  10.214  11.755  0.00  0.00    +0.000 C 
ATOM      2  C   UNL     1      49.377   9.131  12.695  0.00  0.00    +0.000 A 
ATOM      3  C   UNL     1      50.238   8.618  13.630  0.00  0.00    +0.000 A 
ATOM      4  C   UNL     1      49.710   7.635  14.433  0.00  0.00    +0.000 A 
ATOM      5  N   UNL     1      48.435   7.174  14.354  0.00  0.00    +0.000 NA
ATOM      6  C   UNL     1      47.667   7.750  13.426  0.00  0.00    +0.000 A 
ATOM      7  N   UNL     1      46.328   7.425  13.306  0.00  0.00    +0.000 N 
ATOM      8  N   UNL     1      48.101   8.698  12.582  0.00  0.00    +0.000 NA
ATOM      9  H   UNL     1      46.019   7.764  12.402  0.00  0.00    +0.000 HD
ENDROOT
BRANCH   4  10
ATOM     10  C   UNL     1      50.579   7.026  15.487  0.00  0.00    +0.000 C 
ATOM     11  N   UNL     1      51.839   7.547  15.591  0.00  0.00    +0.000 N 
ATOM     12  O   UNL     1      50.197   6.116  16.212  0.00  0.00    +0.000 OA
ATOM     13  H   UNL     1      52.143   8.265  14.945  0.00  0.00    +0.000 HD
ATOM     14  H   UNL     1      52.486   7.150  16.255  0.00  0.00    +0.000 HD
ENDBRANCH   4  10
BRANCH   7  15
ATOM     15  C   UNL     1      45.966   6.064  13.617  0.00  0.00    +0.000 C 
BRANCH  15  16
ATOM     16  C   UNL     1      45.043   5.527  12.540  0.00  0.00    +0.000 A 
ATOM     17  C   UNL     1      43.672   5.799  12.567  0.00  0.00    +0.000 A 
ATOM     18  C   UNL     1      42.840   5.310  11.560  0.00  0.00    +0.000 A 
ATOM     19  C   UNL     1      43.370   4.545  10.517  0.00  0.00    +0.000 A 
ATOM     20  C   UNL     1      44.742   4.244  10.454  0.00  0.00    +0.000 A 
ATOM     21  C   UNL     1      45.557   4.736  11.495  0.00  0.00    +0.000 A 
BRANCH  20  22
ATOM     22  C   UNL     1      45.316   3.477   9.328  0.00  0.00    +0.000 A 
ATOM     23  C   UNL     1      45.418   2.078   9.355  0.00  0.00    +0.000 A 
ATOM     24  N   UNL     1      45.905   1.303   8.350  0.00  0.00    +0.000 NA
ATOM     25  C   UNL     1      46.310   1.952   7.238  0.00  0.00    +0.000 A 
ATOM     26  C   UNL     1      46.257   3.326   7.102  0.00  0.00    +0.000 A 
ATOM     27  F   UNL     1      46.666   3.915   5.971  0.00  0.00    +0.000 F 
ATOM     28  C   UNL     1      45.765   4.095   8.151  0.00  0.00    +0.000 A 
ENDBRANCH  20  22
ENDBRANCH  15  16
ENDBRANCH   7  15
TORSDOF 4
ENDMDL
