MODEL 1
REMARK VINA RESULT:    -8.175      0.000      0.000
REMARK INTER + INTRA:         -10.842
REMARK INTER:                 -10.086
REMARK INTRA:                  -0.755
REMARK UNBOUND:                -0.755
REMARK  Name = 
REMARK  5 active torsions:
REMARK  status: ('A' for Active; 'I' for Inactive)
REMARK    1  A    between atoms: C_1  and  O_2
REMARK    2  A    between atoms: O_2  and  C_3
REMARK    3  A    between atoms: C_6  and  C_7
REMARK    4  A    between atoms: C_7  and  N_8
REMARK    5  A    between atoms: C_13  and  C_14
REMARK                            x       y       z     vdW  Elec       q    Type
REMARK                         _______ _______ _______ _____ _____    ______ ____
ROOT
ATOM      1  N   UNL     1      44.281   4.327  10.676  0.00  0.00    +0.000 N 
ATOM      2  C   UNL     1      43.865   3.172  11.297  0.00  0.00    +0.000 A 
ATOM      3  C   UNL     1      43.856   2.180  10.350  0.00  0.00    +0.000 A 
ATOM      4  C   UNL     1      44.824   2.593   9.405  0.00  0.00    +0.000 A 
ATOM      5  C   UNL     1      45.667   1.893   8.530  0.00  0.00    +0.000 A 
ATOM      6  C   UNL     1      46.521   2.609   7.675  0.00  0.00    +0.000 A 
ATOM      7  C   UNL     1      46.379   4.000   7.587  0.00  0.00    +0.000 A 
ATOM      8  C   UNL     1      45.563   4.721   8.485  0.00  0.00    +0.000 A 
ATOM      9  C   UNL     1      44.898   3.986   9.481  0.00  0.00    +0.000 A 
ENDROOT
BRANCH   6  10
ATOM     10  C   UNL     1      47.572   1.803   6.970  0.00  0.00    +0.000 C 
ATOM     11  N   UNL     1      48.621   2.472   6.412  0.00  0.00    +0.000 N 
ATOM     12  O   UNL     1      47.520   0.588   6.912  0.00  0.00    +0.000 OA
ATOM     13  H   UNL     1      48.755   3.441   6.431  0.00  0.00    +0.000 HD
ATOM     14  H   UNL     1      49.331   1.905   5.965  0.00  0.00    +0.000 HD
ENDBRANCH   6  10
BRANCH   1  15
ATOM     15  C   UNL     1      44.368   5.600  11.398  0.00  0.00    +0.000 C 
BRANCH  15  19
ATOM     16  C   UNL     1      48.186   6.475  13.267  0.00  0.00    +0.000 A 
ATOM     17  C   UNL     1      47.845   7.115  12.074  0.00  0.00    +0.000 A 
ATOM     18  C   UNL     1      46.620   6.822  11.443  0.00  0.00    +0.000 A 
ATOM     19  C   UNL     1      45.726   5.895  11.993  0.00  0.00    +0.000 A 
ATOM     20  C   UNL     1      46.068   5.287  13.210  0.00  0.00    +0.000 A 
ATOM     21  C   UNL     1      47.284   5.580  13.835  0.00  0.00    +0.000 A 
BRANCH  16  23
ATOM     22  C   UNL     1      49.218   7.029  15.344  0.00  0.00    +0.000 C 
ATOM     23  O   UNL     1      49.338   6.636  13.985  0.00  0.00    +0.000 OA
ENDBRANCH  16  23
ENDBRANCH  15  19
ENDBRANCH   1  15
TORSDOF 4
ENDMDL
MODEL 2
REMARK VINA RESULT:    -7.186      1.264      1.762
REMARK INTER + INTRA:          -9.622
REMARK INTER:                  -8.786
REMARK INTRA:                  -0.836
REMARK UNBOUND:                -0.755
REMARK  Name = 
REMARK  5 active torsions:
REMARK  status: ('A' for Active; 'I' for Inactive)
REMARK    1  A    between atoms: C_1  and  O_2
REMARK    2  A    between atoms: O_2  and  C_3
REMARK    3  A    between atoms: C_6  and  C_7
REMARK    4  A    between atoms: C_7  and  N_8
REMARK    5  A    between atoms: C_13  and  C_14
REMARK                            x       y       z     vdW  Elec       q    Type
REMARK                         _______ _______ _______ _____ _____    ______ ____
ROOT
ATOM      1  N   UNL     1      43.952   4.571  11.593  0.00  0.00    +0.000 N 
ATOM      2  C   UNL     1      43.542   3.434  12.251  0.00  0.00    +0.000 A 
ATOM      3  C   UNL     1      43.397   2.448  11.309  0.00  0.00    +0.000 A 
ATOM      4  C   UNL     1      44.289   2.819  10.278  0.00  0.00    +0.000 A 
ATOM      5  C   UNL     1      45.011   2.083   9.326  0.00  0.00    +0.000 A 
ATOM      6  C   UNL     1      45.813   2.762   8.394  0.00  0.00    +0.000 A 
ATOM      7  C   UNL     1      45.730   4.159   8.319  0.00  0.00    +0.000 A 
ATOM      8  C   UNL     1      45.038   4.913   9.290  0.00  0.00    +0.000 A 
ATOM      9  C   UNL     1      44.436   4.207  10.345  0.00  0.00    +0.000 A 
ENDROOT
BRANCH   6  10
ATOM     10  C   UNL     1      46.754   1.910   7.593  0.00  0.00    +0.000 C 
ATOM     11  N   UNL     1      46.649   0.555   7.715  0.00  0.00    +0.000 N 
ATOM     12  O   UNL     1      47.574   2.394   6.835  0.00  0.00    +0.000 OA
ATOM     13  H   UNL     1      46.007   0.081   8.281  0.00  0.00    +0.000 HD
ATOM     14  H   UNL     1      47.276   0.002   7.144  0.00  0.00    +0.000 HD
ENDBRANCH   6  10
BRANCH   1  15
ATOM     15  C   UNL     1      44.167   5.836  12.303  0.00  0.00    +0.000 C 
BRANCH  15  19
ATOM     16  C   UNL     1      48.348   6.913  12.746  0.00  0.00    +0.000 A 
ATOM     17  C   UNL     1      47.889   5.712  13.289  0.00  0.00    +0.000 A 
ATOM     18  C   UNL     1      46.529   5.361  13.175  0.00  0.00    +0.000 A 
ATOM     19  C   UNL     1      45.618   6.198  12.519  0.00  0.00    +0.000 A 
ATOM     20  C   UNL     1      46.102   7.385  11.948  0.00  0.00    +0.000 A 
ATOM     21  C   UNL     1      47.452   7.731  12.063  0.00  0.00    +0.000 A 
BRANCH  16  23
ATOM     22  C   UNL     1      50.270   7.670  11.555  0.00  0.00    +0.000 C 
ATOM     23  O   UNL     1      49.624   7.400  12.791  0.00  0.00    +0.000 OA
ENDBRANCH  16  23
ENDBRANCH  15  19
ENDBRANCH   1  15
TORSDOF 4
ENDMDL
MODEL 3
REMARK VINA RESULT:    -7.118      1.834      6.390
REMARK INTER + INTRA:          -9.537
REMARK INTER:                  -8.982
REMARK INTRA:                  -0.556
REMARK UNBOUND:                -0.755
REMARK  Name = 
REMARK  5 active torsions:
REMARK  status: ('A' for Active; 'I' for Inactive)
REMARK    1  A    between atoms: C_1  and  O_2
REMARK    2  A    between atoms: O_2  and  C_3
REMARK    3  A    between atoms: C_6  and  C_7
REMARK    4  A    between atoms: C_7  and  N_8
REMARK    5  A    between atoms: C_13  and  C_14
REMARK                            x       y       z     vdW  Elec       q    Type
REMARK                         _______ _______ _______ _____ _____    ______ ____
ROOT
ATOM      1  N   UNL     1      43.953   4.197  11.098  0.00  0.00    +0.000 N 
ATOM      2  C   UNL     1      43.361   5.378  10.711  0.00  0.00    +0.000 A 
ATOM      3  C   UNL     1      43.606   6.299  11.697  0.00  0.00    +0.000 A 
ATOM      4  C   UNL     1      44.807   5.855  12.297  0.00  0.00    +0.000 A 
ATOM      5  C   UNL     1      45.853   6.522  12.953  0.00  0.00    +0.000 A 
ATOM      6  C   UNL     1      46.923   5.779  13.474  0.00  0.00    +0.000 A 
ATOM      7  C   UNL     1      46.834   4.381  13.490  0.00  0.00    +0.000 A 
ATOM      8  C   UNL     1      45.808   3.696  12.804  0.00  0.00    +0.000 A 
ATOM      9  C   UNL     1      44.878   4.475  12.095  0.00  0.00    +0.000 A 
ENDROOT
BRANCH   6  10
ATOM     10  C   UNL     1      48.119   6.571  13.916  0.00  0.00    +0.000 C 
ATOM     11  N   UNL     1      48.317   7.797  13.352  0.00  0.00    +0.000 N 
ATOM     12  O   UNL     1      48.885   6.159  14.769  0.00  0.00    +0.000 OA
ATOM     13  H   UNL     1      47.742   8.215  12.679  0.00  0.00    +0.000 HD
ATOM     14  H   UNL     1      49.115   8.324  13.686  0.00  0.00    +0.000 HD
ENDBRANCH   6  10
BRANCH   1  15
ATOM     15  C   UNL     1      43.851   2.982  10.284  0.00  0.00    +0.000 C 
BRANCH  15  19
ATOM     16  C   UNL     1      46.936   2.553   7.261  0.00  0.00    +0.000 A 
ATOM     17  C   UNL     1      46.419   3.820   7.537  0.00  0.00    +0.000 A 
ATOM     18  C   UNL     1      45.400   3.971   8.498  0.00  0.00    +0.000 A 
ATOM     19  C   UNL     1      44.890   2.867   9.192  0.00  0.00    +0.000 A 
ATOM     20  C   UNL     1      45.444   1.605   8.929  0.00  0.00    +0.000 A 
ATOM     21  C   UNL     1      46.456   1.458   7.975  0.00  0.00    +0.000 A 
BRANCH  16  23
ATOM     22  C   UNL     1      47.659   2.565   4.989  0.00  0.00    +0.000 C 
ATOM     23  O   UNL     1      47.906   2.243   6.350  0.00  0.00    +0.000 OA
ENDBRANCH  16  23
ENDBRANCH  15  19
ENDBRANCH   1  15
TORSDOF 4
ENDMDL
MODEL 4
REMARK VINA RESULT:    -6.591      2.089      6.867
REMARK INTER + INTRA:          -8.888
REMARK INTER:                  -8.239
REMARK INTRA:                  -0.649
REMARK UNBOUND:                -0.755
REMARK  Name = 
REMARK  5 active torsions:
REMARK  status: ('A' for Active; 'I' for Inactive)
REMARK    1  A    between atoms: C_1  and  O_2
REMARK    2  A    between atoms: O_2  and  C_3
REMARK    3  A    between atoms: C_6  and  C_7
REMARK    4  A    between atoms: C_7  and  N_8
REMARK    5  A    between atoms: C_13  and  C_14
REMARK                            x       y       z     vdW  Elec       q    Type
REMARK                         _______ _______ _______ _____ _____    ______ ____
ROOT
ATOM      1  N   UNL     1      45.357   4.788  11.806  0.00  0.00    +0.000 N 
ATOM      2  C   UNL     1      45.046   4.174  12.998  0.00  0.00    +0.000 A 
ATOM      3  C   UNL     1      46.058   4.457  13.879  0.00  0.00    +0.000 A 
ATOM      4  C   UNL     1      46.586   5.685  13.419  0.00  0.00    +0.000 A 
ATOM      5  C   UNL     1      47.224   6.755  14.064  0.00  0.00    +0.000 A 
ATOM      6  C   UNL     1      47.667   7.851  13.307  0.00  0.00    +0.000 A 
ATOM      7  C   UNL     1      47.627   7.768  11.908  0.00  0.00    +0.000 A 
ATOM      8  C   UNL     1      46.958   6.717  11.246  0.00  0.00    +0.000 A 
ATOM      9  C   UNL     1      46.323   5.753  12.048  0.00  0.00    +0.000 A 
ENDROOT
BRANCH   6  10
ATOM     10  C   UNL     1      48.090   9.061  14.087  0.00  0.00    +0.000 C 
ATOM     11  N   UNL     1      47.615   9.198  15.358  0.00  0.00    +0.000 N 
ATOM     12  O   UNL     1      48.852   9.891  13.625  0.00  0.00    +0.000 OA
ATOM     13  H   UNL     1      47.019   8.571  15.816  0.00  0.00    +0.000 HD
ATOM     14  H   UNL     1      47.936  10.009  15.874  0.00  0.00    +0.000 HD
ENDBRANCH   6  10
BRANCH   1  15
ATOM     15  C   UNL     1      44.497   4.656  10.626  0.00  0.00    +0.000 C 
BRANCH  15  19
ATOM     16  C   UNL     1      46.409   2.468   7.402  0.00  0.00    +0.000 A 
ATOM     17  C   UNL     1      46.432   3.863   7.390  0.00  0.00    +0.000 A 
ATOM     18  C   UNL     1      45.794   4.587   8.417  0.00  0.00    +0.000 A 
ATOM     19  C   UNL     1      45.133   3.930   9.462  0.00  0.00    +0.000 A 
ATOM     20  C   UNL     1      45.148   2.528   9.478  0.00  0.00    +0.000 A 
ATOM     21  C   UNL     1      45.782   1.812   8.459  0.00  0.00    +0.000 A 
BRANCH  16  23
ATOM     22  C   UNL     1      47.898   2.183   5.561  0.00  0.00    +0.000 C 
ATOM     23  O   UNL     1      46.961   1.630   6.474  0.00  0.00    +0.000 OA
ENDBRANCH  16  23
ENDBRANCH  15  19
ENDBRANCH   1  15
TORSDOF 4
ENDMDL
MODEL 5
REMARK VINA RESULT:    -6.037      3.885      5.917
REMARK INTER + INTRA:          -8.204
REMARK INTER:                  -7.749
REMARK INTRA:                  -0.456
REMARK UNBOUND:                -0.755
REMARK  Name = 
REMARK  5 active torsions:
REMARK  status: ('A' for Active; 'I' for Inactive)
REMARK    1  A    between atoms: C_1  and  O_2
REMARK    2  A    between atoms: O_2  and  C_3
REMARK    3  A    between atoms: C_6  and  C_7
REMARK    4  A    between atoms: C_7  and  N_8
REMARK    5  A    between atoms: C_13  and  C_14
REMARK                            x       y       z     vdW  Elec       q    Type
REMARK                         _______ _______ _______ _____ _____    ______ ____
ROOT
ATOM      1  N   UNL     1      47.319   4.880  14.848  0.00  0.00    +0.000 N 
ATOM      2  C   UNL     1      47.752   6.176  14.684  0.00  0.00    +0.000 A 
ATOM      3  C   UNL     1      47.752   6.439  13.338  0.00  0.00    +0.000 A 
ATOM      4  C   UNL     1      46.768   5.569  12.814  0.00  0.00    +0.000 A 
ATOM      5  C   UNL     1      45.916   5.647  11.702  0.00  0.00    +0.000 A 
ATOM      6  C   UNL     1      45.046   4.580  11.425  0.00  0.00    +0.000 A 
ATOM      7  C   UNL     1      45.178   3.392  12.155  0.00  0.00    +0.000 A 
ATOM      8  C   UNL     1      46.003   3.310  13.297  0.00  0.00    +0.000 A 
ATOM      9  C   UNL     1      46.687   4.476  13.681  0.00  0.00    +0.000 A 
ENDROOT
BRANCH   6  10
ATOM     10  C   UNL     1      43.989   4.846  10.393  0.00  0.00    +0.000 C 
ATOM     11  N   UNL     1      44.183   4.347   9.139  0.00  0.00    +0.000 N 
ATOM     12  O   UNL     1      42.972   5.462  10.657  0.00  0.00    +0.000 OA
ATOM     13  H   UNL     1      44.956   3.823   8.846  0.00  0.00    +0.000 HD
ATOM     14  H   UNL     1      43.443   4.516   8.467  0.00  0.00    +0.000 HD
ENDBRANCH   6  10
BRANCH   1  15
ATOM     15  C   UNL     1      47.236   4.258  16.173  0.00  0.00    +0.000 C 
BRANCH  15  19
ATOM     16  C   UNL     1      51.051   2.703  17.537  0.00  0.00    +0.000 A 
ATOM     17  C   UNL     1      50.155   1.850  16.892  0.00  0.00    +0.000 A 
ATOM     18  C   UNL     1      48.902   2.334  16.467  0.00  0.00    +0.000 A 
ATOM     19  C   UNL     1      48.534   3.669  16.675  0.00  0.00    +0.000 A 
ATOM     20  C   UNL     1      49.460   4.523  17.293  0.00  0.00    +0.000 A 
ATOM     21  C   UNL     1      50.702   4.040  17.714  0.00  0.00    +0.000 A 
BRANCH  16  23
ATOM     22  C   UNL     1      52.799   1.092  17.719  0.00  0.00    +0.000 C 
ATOM     23  O   UNL     1      52.288   2.381  18.023  0.00  0.00    +0.000 OA
ENDBRANCH  16  23
ENDBRANCH  15  19
ENDBRANCH   1  15
TORSDOF 4
ENDMDL
MODEL 6
REMARK VINA RESULT:    -5.492      2.926      4.841
REMARK INTER + INTRA:          -7.531
REMARK INTER:                  -6.864
REMARK INTRA:                  -0.667
REMARK UNBOUND:                -0.755
REMARK  Name = 
REMARK  5 active torsions:
REMARK  status: ('A' for Active; 'I' for Inactive)
REMARK    1  A    between atoms: C_1  and  O_2
REMARK    2  A    between atoms: O_2  and  C_3
REMARK    3  A    between atoms: C_6  and  C_7
REMARK    4  A    between atoms: C_7  and  N_8
REMARK    5  A    between atoms: C_13  and  C_14
REMARK                            x       y       z     vdW  Elec       q    Type
REMARK                         _______ _______ _______ _____ _____    ______ ____
ROOT
ATOM      1  N   UNL     1      47.130   6.870  13.704  0.00  0.00    +0.000 N 
ATOM      2  C   UNL     1      47.713   5.783  14.314  0.00  0.00    +0.000 A 
ATOM      3  C   UNL     1      46.812   4.750  14.254  0.00  0.00    +0.000 A 
ATOM      4  C   UNL     1      46.029   5.038  13.112  0.00  0.00    +0.000 A 
ATOM      5  C   UNL     1      45.332   4.231  12.201  0.00  0.00    +0.000 A 
ATOM      6  C   UNL     1      44.608   4.835  11.160  0.00  0.00    +0.000 A 
ATOM      7  C   UNL     1      44.449   6.227  11.165  0.00  0.00    +0.000 A 
ATOM      8  C   UNL     1      45.172   7.054  12.051  0.00  0.00    +0.000 A 
ATOM      9  C   UNL     1      46.068   6.423  12.931  0.00  0.00    +0.000 A 
ENDROOT
BRANCH   6  10
ATOM     10  C   UNL     1      44.117   3.915  10.081  0.00  0.00    +0.000 C 
ATOM     11  N   UNL     1      44.099   4.385   8.801  0.00  0.00    +0.000 N 
ATOM     12  O   UNL     1      43.767   2.773  10.319  0.00  0.00    +0.000 OA
ATOM     13  H   UNL     1      44.383   5.277   8.517  0.00  0.00    +0.000 HD
ATOM     14  H   UNL     1      43.790   3.736   8.087  0.00  0.00    +0.000 HD
ENDBRANCH   6  10
BRANCH   1  15
ATOM     15  C   UNL     1      47.812   8.165  13.627  0.00  0.00    +0.000 C 
BRANCH  15  19
ATOM     16  C   UNL     1      51.744   8.215  11.791  0.00  0.00    +0.000 A 
ATOM     17  C   UNL     1      50.647   7.780  11.047  0.00  0.00    +0.000 A 
ATOM     18  C   UNL     1      49.368   7.734  11.637  0.00  0.00    +0.000 A 
ATOM     19  C   UNL     1      49.172   8.124  12.968  0.00  0.00    +0.000 A 
ATOM     20  C   UNL     1      50.278   8.592  13.692  0.00  0.00    +0.000 A 
ATOM     21  C   UNL     1      51.546   8.636  13.103  0.00  0.00    +0.000 A 
BRANCH  16  23
ATOM     22  C   UNL     1      53.430   7.484  10.272  0.00  0.00    +0.000 C 
ATOM     23  O   UNL     1      53.042   8.297  11.369  0.00  0.00    +0.000 OA
ENDBRANCH  16  23
ENDBRANCH  15  19
ENDBRANCH   1  15
TORSDOF 4
ENDMDL
MODEL 7
REMARK VINA RESULT:    -5.359      3.648      5.903
REMARK INTER + INTRA:          -7.368
REMARK INTER:                  -6.796
REMARK INTRA:                  -0.572
REMARK UNBOUND:                -0.755
REMARK  Name = 
REMARK  5 active torsions:
REMARK  status: ('A' for Active; 'I' for Inactive)
REMARK    1  A    between atoms: C_1  and  O_2
REMARK    2  A    between atoms: O_2  and  C_3
REMARK    3  A    between atoms: C_6  and  C_7
REMARK    4  A    between atoms: C_7  and  N_8
REMARK    5  A    between atoms: C_13  and  C_14
REMARK                            x       y       z     vdW  Elec       q    Type
REMARK                         _______ _______ _______ _____ _____    ______ ____
ROOT
ATOM      1  N   UNL     1      48.355   7.241  13.909  0.00  0.00    +0.000 N 
ATOM      2  C   UNL     1      48.829   8.099  12.943  0.00  0.00    +0.000 A 
ATOM      3  C   UNL     1      48.549   7.536  11.724  0.00  0.00    +0.000 A 
ATOM      4  C   UNL     1      47.414   6.728  11.968  0.00  0.00    +0.000 A 
ATOM      5  C   UNL     1      46.344   6.312  11.161  0.00  0.00    +0.000 A 
ATOM      6  C   UNL     1      45.362   5.467  11.703  0.00  0.00    +0.000 A 
ATOM      7  C   UNL     1      45.570   4.914  12.973  0.00  0.00    +0.000 A 
ATOM      8  C   UNL     1      46.620   5.349  13.809  0.00  0.00    +0.000 A 
ATOM      9  C   UNL     1      47.452   6.369  13.318  0.00  0.00    +0.000 A 
ENDROOT
BRANCH   6  10
ATOM     10  C   UNL     1      44.123   5.286  10.876  0.00  0.00    +0.000 C 
ATOM     11  N   UNL     1      43.135   6.219  10.993  0.00  0.00    +0.000 N 
ATOM     12  O   UNL     1      43.997   4.356  10.100  0.00  0.00    +0.000 OA
ATOM     13  H   UNL     1      43.161   7.008  11.571  0.00  0.00    +0.000 HD
ATOM     14  H   UNL     1      42.321   6.090  10.405  0.00  0.00    +0.000 HD
ENDBRANCH   6  10
BRANCH   1  15
ATOM     15  C   UNL     1      48.525   7.522  15.337  0.00  0.00    +0.000 C 
BRANCH  15  19
ATOM     16  C   UNL     1      50.812   4.623  17.619  0.00  0.00    +0.000 A 
ATOM     17  C   UNL     1      51.474   5.689  17.007  0.00  0.00    +0.000 A 
ATOM     18  C   UNL     1      50.748   6.624  16.242  0.00  0.00    +0.000 A 
ATOM     19  C   UNL     1      49.361   6.507  16.083  0.00  0.00    +0.000 A 
ATOM     20  C   UNL     1      48.706   5.450  16.733  0.00  0.00    +0.000 A 
ATOM     21  C   UNL     1      49.429   4.525  17.491  0.00  0.00    +0.000 A 
BRANCH  16  23
ATOM     22  C   UNL     1      52.666   3.173  17.998  0.00  0.00    +0.000 C 
ATOM     23  O   UNL     1      51.375   3.630  18.371  0.00  0.00    +0.000 OA
ENDBRANCH  16  23
ENDBRANCH  15  19
ENDBRANCH   1  15
TORSDOF 4
ENDMDL
MODEL 8
REMARK VINA RESULT:    -5.339      4.585      6.383
REMARK INTER + INTRA:          -7.343
REMARK INTER:                  -6.591
REMARK INTRA:                  -0.752
REMARK UNBOUND:                -0.755
REMARK  Name = 
REMARK  5 active torsions:
REMARK  status: ('A' for Active; 'I' for Inactive)
REMARK    1  A    between atoms: C_1  and  O_2
REMARK    2  A    between atoms: O_2  and  C_3
REMARK    3  A    between atoms: C_6  and  C_7
REMARK    4  A    between atoms: C_7  and  N_8
REMARK    5  A    between atoms: C_13  and  C_14
REMARK                            x       y       z     vdW  Elec       q    Type
REMARK                         _______ _______ _______ _____ _____    ______ ____
ROOT
ATOM      1  N   UNL     1      48.259   7.507  13.501  0.00  0.00    +0.000 N 
ATOM      2  C   UNL     1      47.964   8.798  13.127  0.00  0.00    +0.000 A 
ATOM      3  C   UNL     1      46.966   8.732  12.187  0.00  0.00    +0.000 A 
ATOM      4  C   UNL     1      46.290   7.527  12.484  0.00  0.00    +0.000 A 
ATOM      5  C   UNL     1      44.963   7.106  12.306  0.00  0.00    +0.000 A 
ATOM      6  C   UNL     1      44.597   5.805  12.689  0.00  0.00    +0.000 A 
ATOM      7  C   UNL     1      45.600   4.902  13.066  0.00  0.00    +0.000 A 
ATOM      8  C   UNL     1      46.930   5.320  13.284  0.00  0.00    +0.000 A 
ATOM      9  C   UNL     1      47.211   6.686  13.112  0.00  0.00    +0.000 A 
ENDROOT
BRANCH   6  10
ATOM     10  C   UNL     1      43.123   5.520  12.720  0.00  0.00    +0.000 C 
ATOM     11  N   UNL     1      42.336   6.128  11.786  0.00  0.00    +0.000 N 
ATOM     12  O   UNL     1      42.633   4.754  13.530  0.00  0.00    +0.000 OA
ATOM     13  H   UNL     1      42.647   6.737  11.087  0.00  0.00    +0.000 HD
ATOM     14  H   UNL     1      41.350   5.898  11.811  0.00  0.00    +0.000 HD
ENDBRANCH   6  10
BRANCH   1  15
ATOM     15  C   UNL     1      49.317   7.211  14.471  0.00  0.00    +0.000 C 
BRANCH  15  19
ATOM     16  C   UNL     1      48.079   6.896  18.619  0.00  0.00    +0.000 A 
ATOM     17  C   UNL     1      48.258   5.733  17.868  0.00  0.00    +0.000 A 
ATOM     18  C   UNL     1      48.635   5.821  16.513  0.00  0.00    +0.000 A 
ATOM     19  C   UNL     1      48.840   7.062  15.898  0.00  0.00    +0.000 A 
ATOM     20  C   UNL     1      48.691   8.220  16.676  0.00  0.00    +0.000 A 
ATOM     21  C   UNL     1      48.317   8.130  18.020  0.00  0.00    +0.000 A 
BRANCH  16  23
ATOM     22  C   UNL     1      48.061   5.903  20.787  0.00  0.00    +0.000 C 
ATOM     23  O   UNL     1      47.699   6.976  19.930  0.00  0.00    +0.000 OA
ENDBRANCH  16  23
ENDBRANCH  15  19
ENDBRANCH   1  15
TORSDOF 4
ENDMDL
