MODEL 1
REMARK VINA RESULT:    -8.977      0.000      0.000
REMARK INTER + INTRA:         -12.102
REMARK INTER:                 -11.601
REMARK INTRA:                  -0.501
REMARK UNBOUND:                -0.501
REMARK  Name = 
REMARK  6 active torsions:
REMARK  status: ('A' for Active; 'I' for Inactive)
REMARK    1  A    between atoms: C_1  and  C_2
REMARK    2  A    between atoms: C_2  and  N_3
REMARK    3  A    between atoms: C_2  and  C_16
REMARK    4  A    between atoms: C_4  and  C_6
REMARK    5  A    between atoms: C_19  and  O_20
REMARK    6  A    between atoms: O_20  and  C_21
REMARK                            x       y       z     vdW  Elec       q    Type
REMARK                         _______ _______ _______ _____ _____    ______ ____
ROOT
ATOM      1  C   UNL     1      45.306   8.427  12.770  0.00  0.00    +0.000 C 
ATOM      2  C   UNL     1      46.428   7.407  12.569  0.00  0.00    +0.000 C 
ENDROOT
BRANCH   2   3
ATOM      3  C   UNL     1      45.984   6.239  11.705  0.00  0.00    +0.000 A 
ATOM      4  C   UNL     1      45.353   5.144  12.314  0.00  0.00    +0.000 A 
ATOM      5  C   UNL     1      44.897   4.068  11.551  0.00  0.00    +0.000 A 
ATOM      6  C   UNL     1      45.016   4.088  10.162  0.00  0.00    +0.000 A 
ATOM      7  C   UNL     1      45.672   5.156   9.545  0.00  0.00    +0.000 A 
ATOM      8  C   UNL     1      46.149   6.226  10.311  0.00  0.00    +0.000 A 
BRANCH   6   9
ATOM      9  O   UNL     1      44.584   3.068   9.344  0.00  0.00    +0.000 OA
BRANCH   9  10
ATOM     10  C   UNL     1      45.473   2.564   8.399  0.00  0.00    +0.000 A 
ATOM     11  C   UNL     1      45.734   3.369   7.299  0.00  0.00    +0.000 A 
ATOM     12  C   UNL     1      46.632   2.906   6.342  0.00  0.00    +0.000 A 
ATOM     13  C   UNL     1      47.232   1.662   6.515  0.00  0.00    +0.000 A 
ATOM     14  C   UNL     1      46.893   0.921   7.632  0.00  0.00    +0.000 A 
ATOM     15  N   UNL     1      46.015   1.334   8.568  0.00  0.00    +0.000 NA
ENDBRANCH   9  10
ENDBRANCH   6   9
ENDBRANCH   2   3
BRANCH   2  16
ATOM     16  N   UNL     1      46.938   6.933  13.840  0.00  0.00    +0.000 N 
ATOM     17  C   UNL     1      48.259   6.627  14.037  0.00  0.00    +0.000 C 
ATOM     18  O   UNL     1      49.094   6.728  13.142  0.00  0.00    +0.000 OA
ATOM     19  H   UNL     1      46.258   6.719  14.563  0.00  0.00    +0.000 HD
BRANCH  17  20
ATOM     20  C   UNL     1      48.644   6.225  15.396  0.00  0.00    +0.000 A 
ATOM     21  C   UNL     1      49.592   6.969  16.087  0.00  0.00    +0.000 A 
ATOM     22  S   UNL     1      49.899   6.392  17.662  0.00  0.00    +0.000 S 
ATOM     23  C   UNL     1      48.819   5.093  17.455  0.00  0.00    +0.000 A 
ATOM     24  N   UNL     1      48.632   4.176  18.443  0.00  0.00    +0.000 NA
ATOM     25  C   UNL     1      47.825   3.217  18.133  0.00  0.00    +0.000 A 
ATOM     26  N   UNL     1      47.175   3.101  16.933  0.00  0.00    +0.000 N 
ATOM     27  C   UNL     1      47.271   4.046  15.940  0.00  0.00    +0.000 A 
ATOM     28  O   UNL     1      46.572   3.982  14.933  0.00  0.00    +0.000 OA
ATOM     29  C   UNL     1      48.209   5.117  16.213  0.00  0.00    +0.000 A 
ATOM     30  H   UNL     1      46.533   2.341  16.760  0.00  0.00    +0.000 HD
ENDBRANCH  17  20
ENDBRANCH   2  16
TORSDOF 5
ENDMDL
MODEL 2
REMARK VINA RESULT:    -8.037      2.658      4.037
REMARK INTER + INTRA:         -10.887
REMARK INTER:                  -9.908
REMARK INTRA:                  -0.979
REMARK UNBOUND:                -0.501
REMARK  Name = 
REMARK  6 active torsions:
REMARK  status: ('A' for Active; 'I' for Inactive)
REMARK    1  A    between atoms: C_1  and  C_2
REMARK    2  A    between atoms: C_2  and  N_3
REMARK    3  A    between atoms: C_2  and  C_16
REMARK    4  A    between atoms: C_4  and  C_6
REMARK    5  A    between atoms: C_19  and  O_20
REMARK    6  A    between atoms: O_20  and  C_21
REMARK                            x       y       z     vdW  Elec       q    Type
REMARK                         _______ _______ _______ _____ _____    ______ ____
ROOT
ATOM      1  C   UNL     1      46.767   4.757  14.692  0.00  0.00    +0.000 C 
ATOM      2  C   UNL     1      46.347   5.776  13.631  0.00  0.00    +0.000 C 
ENDROOT
BRANCH   2   3
ATOM      3  C   UNL     1      45.840   5.103  12.368  0.00  0.00    +0.000 A 
ATOM      4  C   UNL     1      45.941   5.784  11.147  0.00  0.00    +0.000 A 
ATOM      5  C   UNL     1      45.520   5.185   9.958  0.00  0.00    +0.000 A 
ATOM      6  C   UNL     1      45.039   3.876   9.959  0.00  0.00    +0.000 A 
ATOM      7  C   UNL     1      44.902   3.197  11.173  0.00  0.00    +0.000 A 
ATOM      8  C   UNL     1      45.304   3.805  12.369  0.00  0.00    +0.000 A 
BRANCH   6   9
ATOM      9  O   UNL     1      44.614   3.218   8.827  0.00  0.00    +0.000 OA
BRANCH   9  10
ATOM     10  C   UNL     1      45.572   2.599   8.030  0.00  0.00    +0.000 A 
ATOM     11  C   UNL     1      45.997   3.300   6.910  0.00  0.00    +0.000 A 
ATOM     12  C   UNL     1      46.967   2.719   6.099  0.00  0.00    +0.000 A 
ATOM     13  C   UNL     1      47.475   1.467   6.432  0.00  0.00    +0.000 A 
ATOM     14  C   UNL     1      46.974   0.834   7.555  0.00  0.00    +0.000 A 
ATOM     15  N   UNL     1      46.023   1.363   8.351  0.00  0.00    +0.000 NA
ENDBRANCH   9  10
ENDBRANCH   6   9
ENDBRANCH   2   3
BRANCH   2  16
ATOM     16  N   UNL     1      47.433   6.686  13.322  0.00  0.00    +0.000 N 
ATOM     17  C   UNL     1      47.271   8.046  13.300  0.00  0.00    +0.000 C 
ATOM     18  O   UNL     1      46.191   8.581  13.535  0.00  0.00    +0.000 OA
ATOM     19  H   UNL     1      48.305   6.276  13.001  0.00  0.00    +0.000 HD
BRANCH  17  20
ATOM     20  C   UNL     1      48.475   8.845  13.038  0.00  0.00    +0.000 A 
ATOM     21  C   UNL     1      48.391   9.957  12.209  0.00  0.00    +0.000 A 
ATOM     22  S   UNL     1      49.866  10.795  12.038  0.00  0.00    +0.000 S 
ATOM     23  C   UNL     1      50.682   9.669  13.019  0.00  0.00    +0.000 A 
ATOM     24  N   UNL     1      52.016   9.790  13.259  0.00  0.00    +0.000 NA
ATOM     25  C   UNL     1      52.516   8.840  13.977  0.00  0.00    +0.000 A 
ATOM     26  N   UNL     1      51.800   7.791  14.490  0.00  0.00    +0.000 N 
ATOM     27  C   UNL     1      50.439   7.675  14.341  0.00  0.00    +0.000 A 
ATOM     28  O   UNL     1      49.810   6.799  14.927  0.00  0.00    +0.000 OA
ATOM     29  C   UNL     1      49.835   8.685  13.496  0.00  0.00    +0.000 A 
ATOM     30  H   UNL     1      52.244   7.092  15.069  0.00  0.00    +0.000 HD
ENDBRANCH  17  20
ENDBRANCH   2  16
TORSDOF 5
ENDMDL
MODEL 3
REMARK VINA RESULT:    -7.960      1.922      2.536
REMARK INTER + INTRA:         -10.788
REMARK INTER:                  -9.930
REMARK INTRA:                  -0.858
REMARK UNBOUND:                -0.501
REMARK  Name = 
REMARK  6 active torsions:
REMARK  status: ('A' for Active; 'I' for Inactive)
REMARK    1  A    between atoms: C_1  and  C_2
REMARK    2  A    between atoms: C_2  and  N_3
REMARK    3  A    between atoms: C_2  and  C_16
REMARK    4  A    between atoms: C_4  and  C_6
REMARK    5  A    between atoms: C_19  and  O_20
REMARK    6  A    between atoms: O_20  and  C_21
REMARK                            x       y       z     vdW  Elec       q    Type
REMARK                         _______ _______ _______ _____ _____    ______ ____
ROOT
ATOM      1  C   UNL     1      46.856   8.392  13.639  0.00  0.00    +0.000 C 
ATOM      2  C   UNL     1      47.426   6.977  13.535  0.00  0.00    +0.000 C 
ENDROOT
BRANCH   2   3
ATOM      3  C   UNL     1      46.642   6.120  12.556  0.00  0.00    +0.000 A 
ATOM      4  C   UNL     1      46.417   6.603  11.259  0.00  0.00    +0.000 A 
ATOM      5  C   UNL     1      45.732   5.831  10.319  0.00  0.00    +0.000 A 
ATOM      6  C   UNL     1      45.304   4.543  10.641  0.00  0.00    +0.000 A 
ATOM      7  C   UNL     1      45.491   4.063  11.940  0.00  0.00    +0.000 A 
ATOM      8  C   UNL     1      46.159   4.845  12.889  0.00  0.00    +0.000 A 
BRANCH   6   9
ATOM      9  O   UNL     1      44.630   3.722   9.765  0.00  0.00    +0.000 OA
BRANCH   9  10
ATOM     10  C   UNL     1      45.370   3.044   8.800  0.00  0.00    +0.000 A 
ATOM     11  C   UNL     1      45.736   3.767   7.674  0.00  0.00    +0.000 A 
ATOM     12  C   UNL     1      46.492   3.127   6.697  0.00  0.00    +0.000 A 
ATOM     13  C   UNL     1      46.853   1.795   6.877  0.00  0.00    +0.000 A 
ATOM     14  C   UNL     1      46.423   1.149   8.022  0.00  0.00    +0.000 A 
ATOM     15  N   UNL     1      45.677   1.737   8.978  0.00  0.00    +0.000 NA
ENDBRANCH   9  10
ENDBRANCH   6   9
ENDBRANCH   2   3
BRANCH   2  16
ATOM     16  N   UNL     1      47.483   6.339  14.836  0.00  0.00    +0.000 N 
ATOM     17  C   UNL     1      48.651   6.201  15.538  0.00  0.00    +0.000 C 
ATOM     18  O   UNL     1      49.727   6.604  15.105  0.00  0.00    +0.000 OA
ATOM     19  H   UNL     1      46.638   5.884  15.167  0.00  0.00    +0.000 HD
BRANCH  17  20
ATOM     20  C   UNL     1      48.547   5.596  16.872  0.00  0.00    +0.000 A 
ATOM     21  C   UNL     1      48.705   4.223  17.016  0.00  0.00    +0.000 A 
ATOM     22  S   UNL     1      48.591   3.687  18.630  0.00  0.00    +0.000 S 
ATOM     23  C   UNL     1      48.269   5.262  19.188  0.00  0.00    +0.000 A 
ATOM     24  N   UNL     1      48.036   5.502  20.507  0.00  0.00    +0.000 NA
ATOM     25  C   UNL     1      47.755   6.731  20.783  0.00  0.00    +0.000 A 
ATOM     26  N   UNL     1      47.702   7.745  19.863  0.00  0.00    +0.000 N 
ATOM     27  C   UNL     1      48.009   7.563  18.537  0.00  0.00    +0.000 A 
ATOM     28  O   UNL     1      48.086   8.516  17.767  0.00  0.00    +0.000 OA
ATOM     29  C   UNL     1      48.278   6.190  18.161  0.00  0.00    +0.000 A 
ATOM     30  H   UNL     1      47.503   8.694  20.146  0.00  0.00    +0.000 HD
ENDBRANCH  17  20
ENDBRANCH   2  16
TORSDOF 5
ENDMDL
MODEL 4
REMARK VINA RESULT:    -7.623      1.873      2.593
REMARK INTER + INTRA:         -10.353
REMARK INTER:                  -9.349
REMARK INTRA:                  -1.004
REMARK UNBOUND:                -0.501
REMARK  Name = 
REMARK  6 active torsions:
REMARK  status: ('A' for Active; 'I' for Inactive)
REMARK    1  A    between atoms: C_1  and  C_2
REMARK    2  A    between atoms: C_2  and  N_3
REMARK    3  A    between atoms: C_2  and  C_16
REMARK    4  A    between atoms: C_4  and  C_6
REMARK    5  A    between atoms: C_19  and  O_20
REMARK    6  A    between atoms: O_20  and  C_21
REMARK                            x       y       z     vdW  Elec       q    Type
REMARK                         _______ _______ _______ _____ _____    ______ ____
ROOT
ATOM      1  C   UNL     1      48.336   9.212  13.404  0.00  0.00    +0.000 C 
ATOM      2  C   UNL     1      48.306   7.735  13.804  0.00  0.00    +0.000 C 
ENDROOT
BRANCH   2   3
ATOM      3  C   UNL     1      47.227   6.968  13.059  0.00  0.00    +0.000 A 
ATOM      4  C   UNL     1      46.394   7.659  12.167  0.00  0.00    +0.000 A 
ATOM      5  C   UNL     1      45.415   6.983  11.437  0.00  0.00    +0.000 A 
ATOM      6  C   UNL     1      45.284   5.599  11.544  0.00  0.00    +0.000 A 
ATOM      7  C   UNL     1      46.084   4.903  12.454  0.00  0.00    +0.000 A 
ATOM      8  C   UNL     1      47.052   5.583  13.203  0.00  0.00    +0.000 A 
BRANCH   6   9
ATOM      9  O   UNL     1      44.348   4.866  10.851  0.00  0.00    +0.000 OA
BRANCH   9  10
ATOM     10  C   UNL     1      44.800   3.979   9.877  0.00  0.00    +0.000 A 
ATOM     11  C   UNL     1      45.529   4.524   8.830  0.00  0.00    +0.000 A 
ATOM     12  C   UNL     1      46.013   3.666   7.847  0.00  0.00    +0.000 A 
ATOM     13  C   UNL     1      45.751   2.302   7.943  0.00  0.00    +0.000 A 
ATOM     14  C   UNL     1      44.996   1.854   9.011  0.00  0.00    +0.000 A 
ATOM     15  N   UNL     1      44.500   2.662   9.969  0.00  0.00    +0.000 NA
ENDBRANCH   9  10
ENDBRANCH   6   9
ENDBRANCH   2   3
BRANCH   2  16
ATOM     16  N   UNL     1      48.139   7.585  15.236  0.00  0.00    +0.000 N 
ATOM     17  C   UNL     1      49.096   7.015  16.034  0.00  0.00    +0.000 C 
ATOM     18  O   UNL     1      50.155   6.588  15.582  0.00  0.00    +0.000 OA
ATOM     19  H   UNL     1      47.228   7.812  15.624  0.00  0.00    +0.000 HD
BRANCH  17  20
ATOM     20  C   UNL     1      48.819   6.992  17.476  0.00  0.00    +0.000 A 
ATOM     21  C   UNL     1      48.531   8.180  18.137  0.00  0.00    +0.000 A 
ATOM     22  S   UNL     1      48.198   7.975  19.796  0.00  0.00    +0.000 S 
ATOM     23  C   UNL     1      48.484   6.300  19.703  0.00  0.00    +0.000 A 
ATOM     24  N   UNL     1      48.395   5.513  20.810  0.00  0.00    +0.000 NA
ATOM     25  C   UNL     1      48.686   4.272  20.605  0.00  0.00    +0.000 A 
ATOM     26  N   UNL     1      49.041   3.744  19.393  0.00  0.00    +0.000 N 
ATOM     27  C   UNL     1      49.062   4.484  18.236  0.00  0.00    +0.000 A 
ATOM     28  O   UNL     1      49.250   3.952  17.146  0.00  0.00    +0.000 OA
ATOM     29  C   UNL     1      48.798   5.897  18.417  0.00  0.00    +0.000 A 
ATOM     30  H   UNL     1      49.230   2.756  19.291  0.00  0.00    +0.000 HD
ENDBRANCH  17  20
ENDBRANCH   2  16
TORSDOF 5
ENDMDL
MODEL 5
REMARK VINA RESULT:    -7.604      3.313      7.881
REMARK INTER + INTRA:         -10.328
REMARK INTER:                  -9.233
REMARK INTRA:                  -1.096
REMARK UNBOUND:                -0.501
REMARK  Name = 
REMARK  6 active torsions:
REMARK  status: ('A' for Active; 'I' for Inactive)
REMARK    1  A    between atoms: C_1  and  C_2
REMARK    2  A    between atoms: C_2  and  N_3
REMARK    3  A    between atoms: C_2  and  C_16
REMARK    4  A    between atoms: C_4  and  C_6
REMARK    5  A    between atoms: C_19  and  O_20
REMARK    6  A    between atoms: O_20  and  C_21
REMARK                            x       y       z     vdW  Elec       q    Type
REMARK                         _______ _______ _______ _____ _____    ______ ____
ROOT
ATOM      1  C   UNL     1      49.423   7.920  12.282  0.00  0.00    +0.000 C 
ATOM      2  C   UNL     1      48.262   7.409  13.137  0.00  0.00    +0.000 C 
ENDROOT
BRANCH   2   3
ATOM      3  C   UNL     1      48.740   6.848  14.465  0.00  0.00    +0.000 A 
ATOM      4  C   UNL     1      47.932   5.924  15.143  0.00  0.00    +0.000 A 
ATOM      5  C   UNL     1      48.353   5.358  16.348  0.00  0.00    +0.000 A 
ATOM      6  C   UNL     1      49.609   5.663  16.871  0.00  0.00    +0.000 A 
ATOM      7  C   UNL     1      50.410   6.608  16.223  0.00  0.00    +0.000 A 
ATOM      8  C   UNL     1      49.980   7.192  15.026  0.00  0.00    +0.000 A 
BRANCH   6   9
ATOM      9  O   UNL     1      50.094   5.139  18.048  0.00  0.00    +0.000 OA
BRANCH   9  10
ATOM     10  C   UNL     1      50.911   4.014  17.977  0.00  0.00    +0.000 A 
ATOM     11  C   UNL     1      50.344   2.866  17.441  0.00  0.00    +0.000 A 
ATOM     12  C   UNL     1      51.137   1.727  17.338  0.00  0.00    +0.000 A 
ATOM     13  C   UNL     1      52.458   1.774  17.773  0.00  0.00    +0.000 A 
ATOM     14  C   UNL     1      52.929   2.956  18.314  0.00  0.00    +0.000 A 
ATOM     15  N   UNL     1      52.182   4.071  18.442  0.00  0.00    +0.000 NA
ENDBRANCH   9  10
ENDBRANCH   6   9
ENDBRANCH   2   3
BRANCH   2  16
ATOM     16  N   UNL     1      47.479   6.421  12.420  0.00  0.00    +0.000 N 
ATOM     17  C   UNL     1      46.349   6.745  11.717  0.00  0.00    +0.000 C 
ATOM     18  O   UNL     1      45.923   7.895  11.656  0.00  0.00    +0.000 OA
ATOM     19  H   UNL     1      47.730   5.446  12.552  0.00  0.00    +0.000 HD
BRANCH  17  20
ATOM     20  C   UNL     1      45.697   5.652  10.984  0.00  0.00    +0.000 A 
ATOM     21  C   UNL     1      45.771   5.619   9.596  0.00  0.00    +0.000 A 
ATOM     22  S   UNL     1      44.995   4.269   8.903  0.00  0.00    +0.000 S 
ATOM     23  C   UNL     1      44.484   3.711  10.427  0.00  0.00    +0.000 A 
ATOM     24  N   UNL     1      43.728   2.585  10.541  0.00  0.00    +0.000 NA
ATOM     25  C   UNL     1      43.367   2.307  11.749  0.00  0.00    +0.000 A 
ATOM     26  N   UNL     1      43.708   3.041  12.854  0.00  0.00    +0.000 N 
ATOM     27  C   UNL     1      44.535   4.136  12.794  0.00  0.00    +0.000 A 
ATOM     28  O   UNL     1      44.931   4.689  13.816  0.00  0.00    +0.000 OA
ATOM     29  C   UNL     1      44.925   4.526  11.454  0.00  0.00    +0.000 A 
ATOM     30  H   UNL     1      43.417   2.755  13.779  0.00  0.00    +0.000 HD
ENDBRANCH  17  20
ENDBRANCH   2  16
TORSDOF 5
ENDMDL
MODEL 6
REMARK VINA RESULT:    -7.525      2.618      4.367
REMARK INTER + INTRA:         -10.225
REMARK INTER:                  -9.171
REMARK INTRA:                  -1.055
REMARK UNBOUND:                -0.501
REMARK  Name = 
REMARK  6 active torsions:
REMARK  status: ('A' for Active; 'I' for Inactive)
REMARK    1  A    between atoms: C_1  and  C_2
REMARK    2  A    between atoms: C_2  and  N_3
REMARK    3  A    between atoms: C_2  and  C_16
REMARK    4  A    between atoms: C_4  and  C_6
REMARK    5  A    between atoms: C_19  and  O_20
REMARK    6  A    between atoms: O_20  and  C_21
REMARK                            x       y       z     vdW  Elec       q    Type
REMARK                         _______ _______ _______ _____ _____    ______ ____
ROOT
ATOM      1  C   UNL     1      47.150   4.519  15.216  0.00  0.00    +0.000 C 
ATOM      2  C   UNL     1      46.902   5.606  14.169  0.00  0.00    +0.000 C 
ENDROOT
BRANCH   2   3
ATOM      3  C   UNL     1      46.241   5.050  12.920  0.00  0.00    +0.000 A 
ATOM      4  C   UNL     1      46.187   5.846  11.767  0.00  0.00    +0.000 A 
ATOM      5  C   UNL     1      45.620   5.357  10.588  0.00  0.00    +0.000 A 
ATOM      6  C   UNL     1      45.144   4.048  10.524  0.00  0.00    +0.000 A 
ATOM      7  C   UNL     1      45.161   3.255  11.675  0.00  0.00    +0.000 A 
ATOM      8  C   UNL     1      45.710   3.751  12.863  0.00  0.00    +0.000 A 
BRANCH   6   9
ATOM      9  O   UNL     1      44.580   3.496   9.396  0.00  0.00    +0.000 OA
BRANCH   9  10
ATOM     10  C   UNL     1      45.419   2.848   8.494  0.00  0.00    +0.000 A 
ATOM     11  C   UNL     1      45.855   3.590   7.406  0.00  0.00    +0.000 A 
ATOM     12  C   UNL     1      46.710   2.981   6.492  0.00  0.00    +0.000 A 
ATOM     13  C   UNL     1      47.094   1.659   6.695  0.00  0.00    +0.000 A 
ATOM     14  C   UNL     1      46.590   0.991   7.796  0.00  0.00    +0.000 A 
ATOM     15  N   UNL     1      45.748   1.549   8.689  0.00  0.00    +0.000 NA
ENDBRANCH   9  10
ENDBRANCH   6   9
ENDBRANCH   2   3
BRANCH   2  16
ATOM     16  N   UNL     1      48.132   6.294  13.828  0.00  0.00    +0.000 N 
ATOM     17  C   UNL     1      48.714   7.217  14.657  0.00  0.00    +0.000 C 
ATOM     18  O   UNL     1      48.224   7.525  15.740  0.00  0.00    +0.000 OA
ATOM     19  H   UNL     1      48.496   6.158  12.890  0.00  0.00    +0.000 HD
BRANCH  17  20
ATOM     20  C   UNL     1      49.994   7.783  14.213  0.00  0.00    +0.000 A 
ATOM     21  C   UNL     1      51.119   7.646  15.016  0.00  0.00    +0.000 A 
ATOM     22  S   UNL     1      52.530   8.325  14.341  0.00  0.00    +0.000 S 
ATOM     23  C   UNL     1      51.675   8.877  12.976  0.00  0.00    +0.000 A 
ATOM     24  N   UNL     1      52.304   9.582  11.997  0.00  0.00    +0.000 NA
ATOM     25  C   UNL     1      51.526   9.982  11.047  0.00  0.00    +0.000 A 
ATOM     26  N   UNL     1      50.183   9.727  10.978  0.00  0.00    +0.000 N 
ATOM     27  C   UNL     1      49.524   8.951  11.901  0.00  0.00    +0.000 A 
ATOM     28  O   UNL     1      48.352   8.628  11.738  0.00  0.00    +0.000 OA
ATOM     29  C   UNL     1      50.339   8.521  13.020  0.00  0.00    +0.000 A 
ATOM     30  H   UNL     1      49.632  10.044  10.193  0.00  0.00    +0.000 HD
ENDBRANCH  17  20
ENDBRANCH   2  16
TORSDOF 5
ENDMDL
MODEL 7
REMARK VINA RESULT:    -7.355      2.688      3.730
REMARK INTER + INTRA:         -10.005
REMARK INTER:                  -8.951
REMARK INTRA:                  -1.055
REMARK UNBOUND:                -0.501
REMARK  Name = 
REMARK  6 active torsions:
REMARK  status: ('A' for Active; 'I' for Inactive)
REMARK    1  A    between atoms: C_1  and  C_2
REMARK    2  A    between atoms: C_2  and  N_3
REMARK    3  A    between atoms: C_2  and  C_16
REMARK    4  A    between atoms: C_4  and  C_6
REMARK    5  A    between atoms: C_19  and  O_20
REMARK    6  A    between atoms: O_20  and  C_21
REMARK                            x       y       z     vdW  Elec       q    Type
REMARK                         _______ _______ _______ _____ _____    ______ ____
ROOT
ATOM      1  C   UNL     1      47.029   4.573  15.298  0.00  0.00    +0.000 C 
ATOM      2  C   UNL     1      46.949   5.676  14.241  0.00  0.00    +0.000 C 
ENDROOT
BRANCH   2   3
ATOM      3  C   UNL     1      46.358   5.170  12.937  0.00  0.00    +0.000 A 
ATOM      4  C   UNL     1      45.831   3.871  12.888  0.00  0.00    +0.000 A 
ATOM      5  C   UNL     1      45.247   3.382  11.718  0.00  0.00    +0.000 A 
ATOM      6  C   UNL     1      45.131   4.197  10.593  0.00  0.00    +0.000 A 
ATOM      7  C   UNL     1      45.682   5.481  10.616  0.00  0.00    +0.000 A 
ATOM      8  C   UNL     1      46.288   5.965  11.782  0.00  0.00    +0.000 A 
BRANCH   6   9
ATOM      9  O   UNL     1      44.561   3.786   9.409  0.00  0.00    +0.000 OA
BRANCH   9  10
ATOM     10  C   UNL     1      45.386   3.197   8.454  0.00  0.00    +0.000 A 
ATOM     11  C   UNL     1      45.727   1.868   8.660  0.00  0.00    +0.000 A 
ATOM     12  C   UNL     1      46.535   1.241   7.717  0.00  0.00    +0.000 A 
ATOM     13  C   UNL     1      46.973   1.960   6.608  0.00  0.00    +0.000 A 
ATOM     14  C   UNL     1      46.601   3.287   6.499  0.00  0.00    +0.000 A 
ATOM     15  N   UNL     1      45.832   3.926   7.404  0.00  0.00    +0.000 NA
ENDBRANCH   9  10
ENDBRANCH   6   9
ENDBRANCH   2   3
BRANCH   2  16
ATOM     16  N   UNL     1      48.249   6.276  14.011  0.00  0.00    +0.000 N 
ATOM     17  C   UNL     1      48.452   7.630  14.046  0.00  0.00    +0.000 C 
ATOM     18  O   UNL     1      47.542   8.423  14.268  0.00  0.00    +0.000 OA
ATOM     19  H   UNL     1      48.996   5.661  13.702  0.00  0.00    +0.000 HD
BRANCH  17  20
ATOM     20  C   UNL     1      49.835   8.090  13.863  0.00  0.00    +0.000 A 
ATOM     21  C   UNL     1      50.145   8.917  12.790  0.00  0.00    +0.000 A 
ATOM     22  S   UNL     1      51.781   9.391  12.741  0.00  0.00    +0.000 S 
ATOM     23  C   UNL     1      52.147   8.460  14.119  0.00  0.00    +0.000 A 
ATOM     24  N   UNL     1      53.418   8.400  14.604  0.00  0.00    +0.000 NA
ATOM     25  C   UNL     1      53.562   7.618  15.621  0.00  0.00    +0.000 A 
ATOM     26  N   UNL     1      52.551   6.905  16.207  0.00  0.00    +0.000 N 
ATOM     27  C   UNL     1      51.241   7.000  15.802  0.00  0.00    +0.000 A 
ATOM     28  O   UNL     1      50.341   6.456  16.433  0.00  0.00    +0.000 OA
ATOM     29  C   UNL     1      51.030   7.822  14.628  0.00  0.00    +0.000 A 
ATOM     30  H   UNL     1      52.723   6.330  17.020  0.00  0.00    +0.000 HD
ENDBRANCH  17  20
ENDBRANCH   2  16
TORSDOF 5
ENDMDL
MODEL 8
REMARK VINA RESULT:    -6.980      2.965      8.827
REMARK INTER + INTRA:          -9.521
REMARK INTER:                  -8.670
REMARK INTRA:                  -0.851
REMARK UNBOUND:                -0.501
REMARK  Name = 
REMARK  6 active torsions:
REMARK  status: ('A' for Active; 'I' for Inactive)
REMARK    1  A    between atoms: C_1  and  C_2
REMARK    2  A    between atoms: C_2  and  N_3
REMARK    3  A    between atoms: C_2  and  C_16
REMARK    4  A    between atoms: C_4  and  C_6
REMARK    5  A    between atoms: C_19  and  O_20
REMARK    6  A    between atoms: O_20  and  C_21
REMARK                            x       y       z     vdW  Elec       q    Type
REMARK                         _______ _______ _______ _____ _____    ______ ____
ROOT
ATOM      1  C   UNL     1      48.800   7.829  11.624  0.00  0.00    +0.000 C 
ATOM      2  C   UNL     1      47.651   7.724  12.628  0.00  0.00    +0.000 C 
ENDROOT
BRANCH   2   3
ATOM      3  C   UNL     1      48.144   7.806  14.063  0.00  0.00    +0.000 A 
ATOM      4  C   UNL     1      48.696   6.662  14.658  0.00  0.00    +0.000 A 
ATOM      5  C   UNL     1      49.193   6.706  15.962  0.00  0.00    +0.000 A 
ATOM      6  C   UNL     1      49.196   7.904  16.676  0.00  0.00    +0.000 A 
ATOM      7  C   UNL     1      48.618   9.042  16.108  0.00  0.00    +0.000 A 
ATOM      8  C   UNL     1      48.100   8.994  14.809  0.00  0.00    +0.000 A 
BRANCH   6   9
ATOM      9  O   UNL     1      49.675   8.025  17.961  0.00  0.00    +0.000 OA
BRANCH   9  10
ATOM     10  C   UNL     1      48.956   7.421  18.989  0.00  0.00    +0.000 A 
ATOM     11  C   UNL     1      48.133   8.247  19.741  0.00  0.00    +0.000 A 
ATOM     12  C   UNL     1      47.385   7.675  20.766  0.00  0.00    +0.000 A 
ATOM     13  C   UNL     1      47.485   6.307  21.002  0.00  0.00    +0.000 A 
ATOM     14  C   UNL     1      48.348   5.568  20.215  0.00  0.00    +0.000 A 
ATOM     15  N   UNL     1      49.098   6.095  19.226  0.00  0.00    +0.000 NA
ENDBRANCH   9  10
ENDBRANCH   6   9
ENDBRANCH   2   3
BRANCH   2  16
ATOM     16  N   UNL     1      46.886   6.511  12.422  0.00  0.00    +0.000 N 
ATOM     17  C   UNL     1      45.651   6.511  11.829  0.00  0.00    +0.000 C 
ATOM     18  O   UNL     1      45.111   7.543  11.441  0.00  0.00    +0.000 OA
ATOM     19  H   UNL     1      47.244   5.659  12.842  0.00  0.00    +0.000 HD
BRANCH  17  20
ATOM     20  C   UNL     1      45.022   5.199  11.624  0.00  0.00    +0.000 A 
ATOM     21  C   UNL     1      44.349   4.590  12.676  0.00  0.00    +0.000 A 
ATOM     22  S   UNL     1      43.646   3.093  12.264  0.00  0.00    +0.000 S 
ATOM     23  C   UNL     1      44.265   3.177  10.681  0.00  0.00    +0.000 A 
ATOM     24  N   UNL     1      44.049   2.170   9.792  0.00  0.00    +0.000 NA
ATOM     25  C   UNL     1      44.618   2.340   8.646  0.00  0.00    +0.000 A 
ATOM     26  N   UNL     1      45.368   3.433   8.302  0.00  0.00    +0.000 N 
ATOM     27  C   UNL     1      45.543   4.509   9.139  0.00  0.00    +0.000 A 
ATOM     28  O   UNL     1      46.105   5.529   8.751  0.00  0.00    +0.000 OA
ATOM     29  C   UNL     1      44.972   4.346  10.460  0.00  0.00    +0.000 A 
ATOM     30  H   UNL     1      45.765   3.522   7.377  0.00  0.00    +0.000 HD
ENDBRANCH  17  20
ENDBRANCH   2  16
TORSDOF 5
ENDMDL
MODEL 9
REMARK VINA RESULT:    -6.919      3.083      8.353
REMARK INTER + INTRA:          -9.443
REMARK INTER:                  -8.777
REMARK INTRA:                  -0.665
REMARK UNBOUND:                -0.501
REMARK  Name = 
REMARK  6 active torsions:
REMARK  status: ('A' for Active; 'I' for Inactive)
REMARK    1  A    between atoms: C_1  and  C_2
REMARK    2  A    between atoms: C_2  and  N_3
REMARK    3  A    between atoms: C_2  and  C_16
REMARK    4  A    between atoms: C_4  and  C_6
REMARK    5  A    between atoms: C_19  and  O_20
REMARK    6  A    between atoms: O_20  and  C_21
REMARK                            x       y       z     vdW  Elec       q    Type
REMARK                         _______ _______ _______ _____ _____    ______ ____
ROOT
ATOM      1  C   UNL     1      48.565   7.574  12.414  0.00  0.00    +0.000 C 
ATOM      2  C   UNL     1      47.617   6.935  13.430  0.00  0.00    +0.000 C 
ENDROOT
BRANCH   2   3
ATOM      3  C   UNL     1      48.354   6.448  14.665  0.00  0.00    +0.000 A 
ATOM      4  C   UNL     1      49.593   7.021  14.987  0.00  0.00    +0.000 A 
ATOM      5  C   UNL     1      50.285   6.626  16.134  0.00  0.00    +0.000 A 
ATOM      6  C   UNL     1      49.729   5.691  17.006  0.00  0.00    +0.000 A 
ATOM      7  C   UNL     1      48.512   5.087  16.680  0.00  0.00    +0.000 A 
ATOM      8  C   UNL     1      47.828   5.466  15.519  0.00  0.00    +0.000 A 
BRANCH   6   9
ATOM      9  O   UNL     1      50.349   5.260  18.158  0.00  0.00    +0.000 OA
BRANCH   9  10
ATOM     10  C   UNL     1      51.120   4.103  18.093  0.00  0.00    +0.000 A 
ATOM     11  C   UNL     1      50.555   3.013  17.446  0.00  0.00    +0.000 A 
ATOM     12  C   UNL     1      51.304   1.844  17.347  0.00  0.00    +0.000 A 
ATOM     13  C   UNL     1      52.583   1.805  17.895  0.00  0.00    +0.000 A 
ATOM     14  C   UNL     1      53.053   2.933  18.541  0.00  0.00    +0.000 A 
ATOM     15  N   UNL     1      52.346   4.074  18.668  0.00  0.00    +0.000 NA
ENDBRANCH   9  10
ENDBRANCH   6   9
ENDBRANCH   2   3
BRANCH   2  16
ATOM     16  N   UNL     1      46.860   5.854  12.830  0.00  0.00    +0.000 N 
ATOM     17  C   UNL     1      45.510   5.931  12.613  0.00  0.00    +0.000 C 
ATOM     18  O   UNL     1      44.853   6.922  12.921  0.00  0.00    +0.000 OA
ATOM     19  H   UNL     1      47.346   4.975  12.679  0.00  0.00    +0.000 HD
BRANCH  17  20
ATOM     20  C   UNL     1      44.888   4.786  11.935  0.00  0.00    +0.000 A 
ATOM     21  C   UNL     1      44.082   3.916  12.660  0.00  0.00    +0.000 A 
ATOM     22  S   UNL     1      43.408   2.665  11.719  0.00  0.00    +0.000 S 
ATOM     23  C   UNL     1      44.215   3.207  10.322  0.00  0.00    +0.000 A 
ATOM     24  N   UNL     1      44.090   2.542   9.141  0.00  0.00    +0.000 NA
ATOM     25  C   UNL     1      44.797   3.031   8.178  0.00  0.00    +0.000 A 
ATOM     26  N   UNL     1      45.602   4.134   8.283  0.00  0.00    +0.000 N 
ATOM     27  C   UNL     1      45.693   4.882   9.431  0.00  0.00    +0.000 A 
ATOM     28  O   UNL     1      46.315   5.940   9.452  0.00  0.00    +0.000 OA
ATOM     29  C   UNL     1      44.964   4.345  10.562  0.00  0.00    +0.000 A 
ATOM     30  H   UNL     1      46.109   4.486   7.483  0.00  0.00    +0.000 HD
ENDBRANCH  17  20
ENDBRANCH   2  16
TORSDOF 5
ENDMDL
