MODEL 1
REMARK VINA RESULT:    -7.500      0.000      0.000
REMARK INTER + INTRA:         -10.669
REMARK INTER:                  -9.912
REMARK INTRA:                  -0.757
REMARK UNBOUND:                -0.757
REMARK  Name = 
REMARK  6 active torsions:
REMARK  status: ('A' for Active; 'I' for Inactive)
REMARK    1  A    between atoms: N_1  and  S_2
REMARK    2  A    between atoms: S_2  and  C_5
REMARK    3  A    between atoms: C_8  and  O_9
REMARK    4  A    between atoms: O_9  and  C_10
REMARK    5  A    between atoms: C_10  and  C_11
REMARK    6  A    between atoms: C_11  and  C_12
REMARK                            x       y       z     vdW  Elec       q    Type
REMARK                         _______ _______ _______ _____ _____    ______ ____
ROOT
ATOM      1  C   UNL     1      46.258   2.632   7.790  0.00  0.00    +0.000 A 
ATOM      2  C   UNL     1      45.999   3.997   7.909  0.00  0.00    +0.000 A 
ATOM      3  C   UNL     1      45.045   4.440   8.832  0.00  0.00    +0.000 A 
ATOM      4  C   UNL     1      44.344   3.523   9.621  0.00  0.00    +0.000 A 
ATOM      5  C   UNL     1      44.628   2.159   9.507  0.00  0.00    +0.000 A 
ATOM      6  C   UNL     1      45.574   1.708   8.583  0.00  0.00    +0.000 A 
ENDROOT
BRANCH   1   7
ATOM      7  S   UNL     1      47.400   2.051   6.572  0.00  0.00    +0.000 S 
ATOM      8  O   UNL     1      47.099   0.672   6.254  0.00  0.00    +0.000 OA
ATOM      9  O   UNL     1      48.730   2.485   6.923  0.00  0.00    +0.000 OA
BRANCH   7  10
ATOM     10  N   UNL     1      46.971   2.946   5.220  0.00  0.00    +0.000 NA
ATOM     11  H   UNL     1      46.071   2.614   4.865  0.00  0.00    +0.000 HD
ATOM     12  H   UNL     1      47.717   2.914   4.527  0.00  0.00    +0.000 HD
ENDBRANCH   7  10
ENDBRANCH   1   7
BRANCH   4  13
ATOM     13  O   UNL     1      43.396   3.853  10.553  0.00  0.00    +0.000 OA
BRANCH  13  14
ATOM     14  C   UNL     1      43.416   3.071  11.752  0.00  0.00    +0.000 C 
BRANCH  14  15
ATOM     15  C   UNL     1      43.407   4.012  12.956  0.00  0.00    +0.000 C 
BRANCH  15  16
ATOM     16  C   UNL     1      44.627   4.900  12.996  0.00  0.00    +0.000 A 
ATOM     17  C   UNL     1      45.896   4.357  13.240  0.00  0.00    +0.000 A 
ATOM     18  C   UNL     1      47.027   5.180  13.270  0.00  0.00    +0.000 A 
ATOM     19  C   UNL     1      46.898   6.553  13.064  0.00  0.00    +0.000 A 
ATOM     20  C   UNL     1      45.638   7.100  12.839  0.00  0.00    +0.000 A 
ATOM     21 CL   UNL     1      45.476   8.796  12.591  0.00  0.00    +0.000 Cl
ATOM     22  C   UNL     1      44.505   6.286  12.809  0.00  0.00    +0.000 A 
ENDBRANCH  15  16
ENDBRANCH  14  15
ENDBRANCH  13  14
ENDBRANCH   4  13
TORSDOF 6
ENDMDL
MODEL 2
REMARK VINA RESULT:    -7.190      4.656      6.992
REMARK INTER + INTRA:         -10.260
REMARK INTER:                  -9.704
REMARK INTRA:                  -0.556
REMARK UNBOUND:                -0.757
REMARK  Name = 
REMARK  6 active torsions:
REMARK  status: ('A' for Active; 'I' for Inactive)
REMARK    1  A    between atoms: N_1  and  S_2
REMARK    2  A    between atoms: S_2  and  C_5
REMARK    3  A    between atoms: C_8  and  O_9
REMARK    4  A    between atoms: O_9  and  C_10
REMARK    5  A    between atoms: C_10  and  C_11
REMARK    6  A    between atoms: C_11  and  C_12
REMARK                            x       y       z     vdW  Elec       q    Type
REMARK                         _______ _______ _______ _____ _____    ______ ____
ROOT
ATOM      1  C   UNL     1      46.794   4.434  14.328  0.00  0.00    +0.000 A 
ATOM      2  C   UNL     1      46.851   5.748  13.865  0.00  0.00    +0.000 A 
ATOM      3  C   UNL     1      46.298   6.066  12.620  0.00  0.00    +0.000 A 
ATOM      4  C   UNL     1      45.702   5.073  11.836  0.00  0.00    +0.000 A 
ATOM      5  C   UNL     1      45.632   3.764  12.320  0.00  0.00    +0.000 A 
ATOM      6  C   UNL     1      46.189   3.437  13.559  0.00  0.00    +0.000 A 
ENDROOT
BRANCH   1   7
ATOM      7  S   UNL     1      47.561   4.001  15.861  0.00  0.00    +0.000 S 
ATOM      8  O   UNL     1      46.538   3.666  16.828  0.00  0.00    +0.000 OA
ATOM      9  O   UNL     1      48.610   4.946  16.151  0.00  0.00    +0.000 OA
BRANCH   7  10
ATOM     10  N   UNL     1      48.334   2.562  15.482  0.00  0.00    +0.000 NA
ATOM     11  H   UNL     1      49.020   2.729  14.742  0.00  0.00    +0.000 HD
ATOM     12  H   UNL     1      47.648   1.847  15.244  0.00  0.00    +0.000 HD
ENDBRANCH   7  10
ENDBRANCH   1   7
BRANCH   4  13
ATOM     13  O   UNL     1      45.129   5.280  10.608  0.00  0.00    +0.000 OA
BRANCH  13  14
ATOM     14  C   UNL     1      44.420   4.162  10.066  0.00  0.00    +0.000 C 
BRANCH  14  15
ATOM     15  C   UNL     1      44.535   4.195   8.543  0.00  0.00    +0.000 C 
BRANCH  15  16
ATOM     16  C   UNL     1      45.434   3.103   8.015  0.00  0.00    +0.000 A 
ATOM     17  C   UNL     1      45.507   1.863   8.665  0.00  0.00    +0.000 A 
ATOM     18  C   UNL     1      46.336   0.850   8.171  0.00  0.00    +0.000 A 
ATOM     19  C   UNL     1      47.103   1.070   7.029  0.00  0.00    +0.000 A 
ATOM     20  C   UNL     1      47.048   2.305   6.388  0.00  0.00    +0.000 A 
ATOM     21 CL   UNL     1      47.999   2.580   4.981  0.00  0.00    +0.000 Cl
ATOM     22  C   UNL     1      46.225   3.321   6.876  0.00  0.00    +0.000 A 
ENDBRANCH  15  16
ENDBRANCH  14  15
ENDBRANCH  13  14
ENDBRANCH   4  13
TORSDOF 6
ENDMDL
MODEL 3
REMARK VINA RESULT:    -7.155      4.482      6.543
REMARK INTER + INTRA:         -10.213
REMARK INTER:                  -9.517
REMARK INTRA:                  -0.695
REMARK UNBOUND:                -0.757
REMARK  Name = 
REMARK  6 active torsions:
REMARK  status: ('A' for Active; 'I' for Inactive)
REMARK    1  A    between atoms: N_1  and  S_2
REMARK    2  A    between atoms: S_2  and  C_5
REMARK    3  A    between atoms: C_8  and  O_9
REMARK    4  A    between atoms: O_9  and  C_10
REMARK    5  A    between atoms: C_10  and  C_11
REMARK    6  A    between atoms: C_11  and  C_12
REMARK                            x       y       z     vdW  Elec       q    Type
REMARK                         _______ _______ _______ _____ _____    ______ ____
ROOT
ATOM      1  C   UNL     1      47.106   6.566  13.395  0.00  0.00    +0.000 A 
ATOM      2  C   UNL     1      46.333   7.360  12.550  0.00  0.00    +0.000 A 
ATOM      3  C   UNL     1      45.111   6.874  12.074  0.00  0.00    +0.000 A 
ATOM      4  C   UNL     1      44.670   5.596  12.429  0.00  0.00    +0.000 A 
ATOM      5  C   UNL     1      45.444   4.817  13.294  0.00  0.00    +0.000 A 
ATOM      6  C   UNL     1      46.670   5.292  13.769  0.00  0.00    +0.000 A 
ENDROOT
BRANCH   1   7
ATOM      7  S   UNL     1      48.690   7.133  13.939  0.00  0.00    +0.000 S 
ATOM      8  O   UNL     1      49.147   6.299  15.030  0.00  0.00    +0.000 OA
ATOM      9  O   UNL     1      48.675   8.572  14.028  0.00  0.00    +0.000 OA
BRANCH   7  10
ATOM     10  N   UNL     1      49.672   6.766  12.630  0.00  0.00    +0.000 NA
ATOM     11  H   UNL     1      50.556   6.377  12.966  0.00  0.00    +0.000 HD
ATOM     12  H   UNL     1      49.790   7.588  12.039  0.00  0.00    +0.000 HD
ENDBRANCH   7  10
ENDBRANCH   1   7
BRANCH   4  13
ATOM     13  O   UNL     1      43.491   5.030  12.021  0.00  0.00    +0.000 OA
BRANCH  13  14
ATOM     14  C   UNL     1      43.422   4.689  10.632  0.00  0.00    +0.000 C 
BRANCH  14  15
ATOM     15  C   UNL     1      43.896   3.248  10.453  0.00  0.00    +0.000 C 
BRANCH  15  16
ATOM     16  C   UNL     1      44.900   3.112   9.334  0.00  0.00    +0.000 A 
ATOM     17  C   UNL     1      45.354   4.244   8.642  0.00  0.00    +0.000 A 
ATOM     18  C   UNL     1      46.288   4.118   7.610  0.00  0.00    +0.000 A 
ATOM     19  C   UNL     1      46.772   2.860   7.255  0.00  0.00    +0.000 A 
ATOM     20  C   UNL     1      46.313   1.730   7.926  0.00  0.00    +0.000 A 
ATOM     21 CL   UNL     1      46.904   0.175   7.485  0.00  0.00    +0.000 Cl
ATOM     22  C   UNL     1      45.378   1.848   8.956  0.00  0.00    +0.000 A 
ENDBRANCH  15  16
ENDBRANCH  14  15
ENDBRANCH  13  14
ENDBRANCH   4  13
TORSDOF 6
ENDMDL
MODEL 4
REMARK VINA RESULT:    -7.044      4.495      6.876
REMARK INTER + INTRA:         -10.066
REMARK INTER:                  -9.527
REMARK INTRA:                  -0.539
REMARK UNBOUND:                -0.757
REMARK  Name = 
REMARK  6 active torsions:
REMARK  status: ('A' for Active; 'I' for Inactive)
REMARK    1  A    between atoms: N_1  and  S_2
REMARK    2  A    between atoms: S_2  and  C_5
REMARK    3  A    between atoms: C_8  and  O_9
REMARK    4  A    between atoms: O_9  and  C_10
REMARK    5  A    between atoms: C_10  and  C_11
REMARK    6  A    between atoms: C_11  and  C_12
REMARK                            x       y       z     vdW  Elec       q    Type
REMARK                         _______ _______ _______ _____ _____    ______ ____
ROOT
ATOM      1  C   UNL     1      47.137   6.309  13.185  0.00  0.00    +0.000 A 
ATOM      2  C   UNL     1      46.539   5.088  13.495  0.00  0.00    +0.000 A 
ATOM      3  C   UNL     1      45.461   4.633  12.728  0.00  0.00    +0.000 A 
ATOM      4  C   UNL     1      44.976   5.400  11.665  0.00  0.00    +0.000 A 
ATOM      5  C   UNL     1      45.598   6.612  11.350  0.00  0.00    +0.000 A 
ATOM      6  C   UNL     1      46.669   7.077  12.116  0.00  0.00    +0.000 A 
ENDROOT
BRANCH   1   7
ATOM      7  S   UNL     1      48.446   6.935  14.195  0.00  0.00    +0.000 S 
ATOM      8  O   UNL     1      48.745   5.978  15.238  0.00  0.00    +0.000 OA
ATOM      9  O   UNL     1      48.202   8.328  14.479  0.00  0.00    +0.000 OA
BRANCH   7  10
ATOM     10  N   UNL     1      49.755   6.906  13.146  0.00  0.00    +0.000 NA
ATOM     11  H   UNL     1      49.809   7.796  12.646  0.00  0.00    +0.000 HD
ATOM     12  H   UNL     1      49.692   6.097  12.529  0.00  0.00    +0.000 HD
ENDBRANCH   7  10
ENDBRANCH   1   7
BRANCH   4  13
ATOM     13  O   UNL     1      43.932   5.044  10.852  0.00  0.00    +0.000 OA
BRANCH  13  14
ATOM     14  C   UNL     1      44.122   3.839  10.102  0.00  0.00    +0.000 C 
BRANCH  14  15
ATOM     15  C   UNL     1      44.656   4.199   8.716  0.00  0.00    +0.000 C 
BRANCH  15  16
ATOM     16  C   UNL     1      45.493   3.093   8.122  0.00  0.00    +0.000 A 
ATOM     17  C   UNL     1      45.513   1.820   8.710  0.00  0.00    +0.000 A 
ATOM     18  C   UNL     1      46.284   0.793   8.156  0.00  0.00    +0.000 A 
ATOM     19  C   UNL     1      47.047   1.031   7.013  0.00  0.00    +0.000 A 
ATOM     20  C   UNL     1      47.045   2.297   6.435  0.00  0.00    +0.000 A 
ATOM     21 CL   UNL     1      47.991   2.594   5.028  0.00  0.00    +0.000 Cl
ATOM     22  C   UNL     1      46.280   3.327   6.984  0.00  0.00    +0.000 A 
ENDBRANCH  15  16
ENDBRANCH  14  15
ENDBRANCH  13  14
ENDBRANCH   4  13
TORSDOF 6
ENDMDL
MODEL 5
REMARK VINA RESULT:    -6.890      4.582      6.395
REMARK INTER + INTRA:          -9.862
REMARK INTER:                  -8.936
REMARK INTRA:                  -0.927
REMARK UNBOUND:                -0.757
REMARK  Name = 
REMARK  6 active torsions:
REMARK  status: ('A' for Active; 'I' for Inactive)
REMARK    1  A    between atoms: N_1  and  S_2
REMARK    2  A    between atoms: S_2  and  C_5
REMARK    3  A    between atoms: C_8  and  O_9
REMARK    4  A    between atoms: O_9  and  C_10
REMARK    5  A    between atoms: C_10  and  C_11
REMARK    6  A    between atoms: C_11  and  C_12
REMARK                            x       y       z     vdW  Elec       q    Type
REMARK                         _______ _______ _______ _____ _____    ______ ____
ROOT
ATOM      1  C   UNL     1      46.992   6.450  13.042  0.00  0.00    +0.000 A 
ATOM      2  C   UNL     1      46.922   5.146  13.529  0.00  0.00    +0.000 A 
ATOM      3  C   UNL     1      45.728   4.427  13.406  0.00  0.00    +0.000 A 
ATOM      4  C   UNL     1      44.606   5.012  12.813  0.00  0.00    +0.000 A 
ATOM      5  C   UNL     1      44.695   6.313  12.309  0.00  0.00    +0.000 A 
ATOM      6  C   UNL     1      45.881   7.041  12.433  0.00  0.00    +0.000 A 
ENDROOT
BRANCH   1   7
ATOM      7  S   UNL     1      48.467   7.400  13.262  0.00  0.00    +0.000 S 
ATOM      8  O   UNL     1      48.863   7.966  11.991  0.00  0.00    +0.000 OA
ATOM      9  O   UNL     1      49.385   6.664  14.094  0.00  0.00    +0.000 OA
BRANCH   7  10
ATOM     10  N   UNL     1      47.930   8.684  14.198  0.00  0.00    +0.000 NA
ATOM     11  H   UNL     1      48.636   8.908  14.904  0.00  0.00    +0.000 HD
ATOM     12  H   UNL     1      47.015   8.472  14.593  0.00  0.00    +0.000 HD
ENDBRANCH   7  10
ENDBRANCH   1   7
BRANCH   4  13
ATOM     13  O   UNL     1      43.395   4.394  12.641  0.00  0.00    +0.000 OA
BRANCH  13  14
ATOM     14  C   UNL     1      43.068   4.051  11.291  0.00  0.00    +0.000 C 
BRANCH  14  15
ATOM     15  C   UNL     1      43.818   2.775  10.910  0.00  0.00    +0.000 C 
BRANCH  15  16
ATOM     16  C   UNL     1      44.726   2.980   9.721  0.00  0.00    +0.000 A 
ATOM     17  C   UNL     1      44.950   4.266   9.209  0.00  0.00    +0.000 A 
ATOM     18  C   UNL     1      45.796   4.456   8.112  0.00  0.00    +0.000 A 
ATOM     19  C   UNL     1      46.420   3.363   7.513  0.00  0.00    +0.000 A 
ATOM     20  C   UNL     1      46.188   2.082   8.006  0.00  0.00    +0.000 A 
ATOM     21 CL   UNL     1      46.952   0.730   7.264  0.00  0.00    +0.000 Cl
ATOM     22  C   UNL     1      45.343   1.884   9.099  0.00  0.00    +0.000 A 
ENDBRANCH  15  16
ENDBRANCH  14  15
ENDBRANCH  13  14
ENDBRANCH   4  13
TORSDOF 6
ENDMDL
MODEL 6
REMARK VINA RESULT:    -6.254      5.233      7.299
REMARK INTER + INTRA:          -9.023
REMARK INTER:                  -8.462
REMARK INTRA:                  -0.561
REMARK UNBOUND:                -0.757
REMARK  Name = 
REMARK  6 active torsions:
REMARK  status: ('A' for Active; 'I' for Inactive)
REMARK    1  A    between atoms: N_1  and  S_2
REMARK    2  A    between atoms: S_2  and  C_5
REMARK    3  A    between atoms: C_8  and  O_9
REMARK    4  A    between atoms: O_9  and  C_10
REMARK    5  A    between atoms: C_10  and  C_11
REMARK    6  A    between atoms: C_11  and  C_12
REMARK                            x       y       z     vdW  Elec       q    Type
REMARK                         _______ _______ _______ _____ _____    ______ ____
ROOT
ATOM      1  C   UNL     1      47.751   4.537  15.737  0.00  0.00    +0.000 A 
ATOM      2  C   UNL     1      48.375   5.780  15.647  0.00  0.00    +0.000 A 
ATOM      3  C   UNL     1      48.029   6.652  14.609  0.00  0.00    +0.000 A 
ATOM      4  C   UNL     1      47.075   6.279  13.659  0.00  0.00    +0.000 A 
ATOM      5  C   UNL     1      46.440   5.038  13.772  0.00  0.00    +0.000 A 
ATOM      6  C   UNL     1      46.785   4.158  14.801  0.00  0.00    +0.000 A 
ENDROOT
BRANCH   1   7
ATOM      7  S   UNL     1      48.235   3.391  16.994  0.00  0.00    +0.000 S 
ATOM      8  O   UNL     1      48.907   4.106  18.057  0.00  0.00    +0.000 OA
ATOM      9  O   UNL     1      48.806   2.221  16.375  0.00  0.00    +0.000 OA
BRANCH   7  10
ATOM     10  N   UNL     1      46.758   2.902  17.621  0.00  0.00    +0.000 NA
ATOM     11  H   UNL     1      46.818   2.863  18.641  0.00  0.00    +0.000 HD
ATOM     12  H   UNL     1      46.473   2.019  17.199  0.00  0.00    +0.000 HD
ENDBRANCH   7  10
ENDBRANCH   1   7
BRANCH   4  13
ATOM     13  O   UNL     1      46.664   7.059  12.610  0.00  0.00    +0.000 OA
BRANCH  13  14
ATOM     14  C   UNL     1      46.784   6.459  11.315  0.00  0.00    +0.000 C 
BRANCH  14  15
ATOM     15  C   UNL     1      45.389   6.306  10.711  0.00  0.00    +0.000 C 
BRANCH  15  16
ATOM     16  C   UNL     1      45.188   4.952  10.074  0.00  0.00    +0.000 A 
ATOM     17  C   UNL     1      44.489   3.943  10.751  0.00  0.00    +0.000 A 
ATOM     18  C   UNL     1      44.298   2.691  10.158  0.00  0.00    +0.000 A 
ATOM     19  C   UNL     1      44.809   2.434   8.887  0.00  0.00    +0.000 A 
ATOM     20  C   UNL     1      45.519   3.427   8.216  0.00  0.00    +0.000 A 
ATOM     21 CL   UNL     1      46.157   3.110   6.649  0.00  0.00    +0.000 Cl
ATOM     22  C   UNL     1      45.715   4.678   8.803  0.00  0.00    +0.000 A 
ENDBRANCH  15  16
ENDBRANCH  14  15
ENDBRANCH  13  14
ENDBRANCH   4  13
TORSDOF 6
ENDMDL
MODEL 7
REMARK VINA RESULT:    -6.163      5.286      7.604
REMARK INTER + INTRA:          -8.902
REMARK INTER:                  -8.529
REMARK INTRA:                  -0.372
REMARK UNBOUND:                -0.757
REMARK  Name = 
REMARK  6 active torsions:
REMARK  status: ('A' for Active; 'I' for Inactive)
REMARK    1  A    between atoms: N_1  and  S_2
REMARK    2  A    between atoms: S_2  and  C_5
REMARK    3  A    between atoms: C_8  and  O_9
REMARK    4  A    between atoms: O_9  and  C_10
REMARK    5  A    between atoms: C_10  and  C_11
REMARK    6  A    between atoms: C_11  and  C_12
REMARK                            x       y       z     vdW  Elec       q    Type
REMARK                         _______ _______ _______ _____ _____    ______ ____
ROOT
ATOM      1  C   UNL     1      47.532   7.797  13.670  0.00  0.00    +0.000 A 
ATOM      2  C   UNL     1      47.740   6.419  13.693  0.00  0.00    +0.000 A 
ATOM      3  C   UNL     1      46.872   5.578  12.987  0.00  0.00    +0.000 A 
ATOM      4  C   UNL     1      45.794   6.111  12.275  0.00  0.00    +0.000 A 
ATOM      5  C   UNL     1      45.608   7.497  12.242  0.00  0.00    +0.000 A 
ATOM      6  C   UNL     1      46.466   8.342  12.949  0.00  0.00    +0.000 A 
ENDROOT
BRANCH   1   7
ATOM      7  S   UNL     1      48.571   8.865  14.621  0.00  0.00    +0.000 S 
ATOM      8  O   UNL     1      48.703  10.134  13.939  0.00  0.00    +0.000 OA
ATOM      9  O   UNL     1      49.715   8.123  15.089  0.00  0.00    +0.000 OA
BRANCH   7  10
ATOM     10  N   UNL     1      47.633   9.162  15.980  0.00  0.00    +0.000 NA
ATOM     11  H   UNL     1      46.648   9.001  15.755  0.00  0.00    +0.000 HD
ATOM     12  H   UNL     1      47.819  10.098  16.337  0.00  0.00    +0.000 HD
ENDBRANCH   7  10
ENDBRANCH   1   7
BRANCH   4  13
ATOM     13  O   UNL     1      44.891   5.377  11.551  0.00  0.00    +0.000 OA
BRANCH  13  14
ATOM     14  C   UNL     1      45.150   5.300  10.145  0.00  0.00    +0.000 C 
BRANCH  14  15
ATOM     15  C   UNL     1      44.604   3.975   9.614  0.00  0.00    +0.000 C 
BRANCH  15  16
ATOM     16  C   UNL     1      45.540   3.329   8.622  0.00  0.00    +0.000 A 
ATOM     17  C   UNL     1      46.235   4.108   7.685  0.00  0.00    +0.000 A 
ATOM     18  C   UNL     1      47.106   3.510   6.770  0.00  0.00    +0.000 A 
ATOM     19  C   UNL     1      47.286   2.127   6.778  0.00  0.00    +0.000 A 
ATOM     20  C   UNL     1      46.587   1.346   7.693  0.00  0.00    +0.000 A 
ATOM     21 CL   UNL     1      46.802  -0.361   7.700  0.00  0.00    +0.000 Cl
ATOM     22  C   UNL     1      45.713   1.937   8.608  0.00  0.00    +0.000 A 
ENDBRANCH  15  16
ENDBRANCH  14  15
ENDBRANCH  13  14
ENDBRANCH   4  13
TORSDOF 6
ENDMDL
MODEL 8
REMARK VINA RESULT:    -5.951      4.879      6.455
REMARK INTER + INTRA:          -8.622
REMARK INTER:                  -8.215
REMARK INTRA:                  -0.407
REMARK UNBOUND:                -0.757
REMARK  Name = 
REMARK  6 active torsions:
REMARK  status: ('A' for Active; 'I' for Inactive)
REMARK    1  A    between atoms: N_1  and  S_2
REMARK    2  A    between atoms: S_2  and  C_5
REMARK    3  A    between atoms: C_8  and  O_9
REMARK    4  A    between atoms: O_9  and  C_10
REMARK    5  A    between atoms: C_10  and  C_11
REMARK    6  A    between atoms: C_11  and  C_12
REMARK                            x       y       z     vdW  Elec       q    Type
REMARK                         _______ _______ _______ _____ _____    ______ ____
ROOT
ATOM      1  C   UNL     1      45.246   4.610  11.621  0.00  0.00    +0.000 A 
ATOM      2  C   UNL     1      45.832   5.860  11.814  0.00  0.00    +0.000 A 
ATOM      3  C   UNL     1      46.709   6.052  12.887  0.00  0.00    +0.000 A 
ATOM      4  C   UNL     1      46.987   5.004  13.770  0.00  0.00    +0.000 A 
ATOM      5  C   UNL     1      46.409   3.750  13.553  0.00  0.00    +0.000 A 
ATOM      6  C   UNL     1      45.527   3.552  12.488  0.00  0.00    +0.000 A 
ENDROOT
BRANCH   1   7
ATOM      7  S   UNL     1      44.074   4.374  10.318  0.00  0.00    +0.000 S 
ATOM      8  O   UNL     1      42.996   5.328  10.467  0.00  0.00    +0.000 OA
ATOM      9  O   UNL     1      43.831   2.963  10.147  0.00  0.00    +0.000 OA
BRANCH   7  10
ATOM     10  N   UNL     1      44.939   4.856   8.964  0.00  0.00    +0.000 NA
ATOM     11  H   UNL     1      45.139   5.856   9.027  0.00  0.00    +0.000 HD
ATOM     12  H   UNL     1      44.438   4.596   8.116  0.00  0.00    +0.000 HD
ENDBRANCH   7  10
ENDBRANCH   1   7
BRANCH   4  13
ATOM     13  O   UNL     1      47.831   5.088  14.846  0.00  0.00    +0.000 OA
BRANCH  13  14
ATOM     14  C   UNL     1      47.539   4.194  15.926  0.00  0.00    +0.000 C 
BRANCH  14  15
ATOM     15  C   UNL     1      48.327   4.635  17.159  0.00  0.00    +0.000 C 
BRANCH  15  16
ATOM     16  C   UNL     1      49.591   3.832  17.345  0.00  0.00    +0.000 A 
ATOM     17  C   UNL     1      49.618   2.464  17.041  0.00  0.00    +0.000 A 
ATOM     18  C   UNL     1      50.792   1.722  17.208  0.00  0.00    +0.000 A 
ATOM     19  C   UNL     1      51.947   2.339  17.687  0.00  0.00    +0.000 A 
ATOM     20  C   UNL     1      51.922   3.693  18.007  0.00  0.00    +0.000 A 
ATOM     21 CL   UNL     1      53.344   4.456  18.605  0.00  0.00    +0.000 Cl
ATOM     22  C   UNL     1      50.753   4.439  17.845  0.00  0.00    +0.000 A 
ENDBRANCH  15  16
ENDBRANCH  14  15
ENDBRANCH  13  14
ENDBRANCH   4  13
TORSDOF 6
ENDMDL
MODEL 9
REMARK VINA RESULT:    -5.933      4.202      6.071
REMARK INTER + INTRA:          -8.597
REMARK INTER:                  -8.148
REMARK INTRA:                  -0.449
REMARK UNBOUND:                -0.757
REMARK  Name = 
REMARK  6 active torsions:
REMARK  status: ('A' for Active; 'I' for Inactive)
REMARK    1  A    between atoms: N_1  and  S_2
REMARK    2  A    between atoms: S_2  and  C_5
REMARK    3  A    between atoms: C_8  and  O_9
REMARK    4  A    between atoms: O_9  and  C_10
REMARK    5  A    between atoms: C_10  and  C_11
REMARK    6  A    between atoms: C_11  and  C_12
REMARK                            x       y       z     vdW  Elec       q    Type
REMARK                         _______ _______ _______ _____ _____    ______ ____
ROOT
ATOM      1  C   UNL     1      44.950   5.047  11.725  0.00  0.00    +0.000 A 
ATOM      2  C   UNL     1      45.703   6.144  11.308  0.00  0.00    +0.000 A 
ATOM      3  C   UNL     1      46.916   6.429  11.944  0.00  0.00    +0.000 A 
ATOM      4  C   UNL     1      47.367   5.632  13.000  0.00  0.00    +0.000 A 
ATOM      5  C   UNL     1      46.614   4.522  13.395  0.00  0.00    +0.000 A 
ATOM      6  C   UNL     1      45.398   4.234  12.770  0.00  0.00    +0.000 A 
ENDROOT
BRANCH   1   7
ATOM      7  S   UNL     1      43.377   4.721  10.987  0.00  0.00    +0.000 S 
ATOM      8  O   UNL     1      42.509   5.860  11.191  0.00  0.00    +0.000 OA
ATOM      9  O   UNL     1      42.969   3.377  11.312  0.00  0.00    +0.000 OA
BRANCH   7  10
ATOM     10  N   UNL     1      43.745   4.703   9.350  0.00  0.00    +0.000 NA
ATOM     11  H   UNL     1      42.894   4.866   8.809  0.00  0.00    +0.000 HD
ATOM     12  H   UNL     1      44.220   3.834   9.107  0.00  0.00    +0.000 HD
ENDBRANCH   7  10
ENDBRANCH   1   7
BRANCH   4  13
ATOM     13  O   UNL     1      48.539   5.824  13.684  0.00  0.00    +0.000 OA
BRANCH  13  14
ATOM     14  C   UNL     1      48.827   7.180  14.039  0.00  0.00    +0.000 C 
BRANCH  14  15
ATOM     15  C   UNL     1      48.655   7.343  15.549  0.00  0.00    +0.000 C 
BRANCH  15  16
ATOM     16  C   UNL     1      49.086   6.112  16.308  0.00  0.00    +0.000 A 
ATOM     17  C   UNL     1      50.424   5.943  16.691  0.00  0.00    +0.000 A 
ATOM     18  C   UNL     1      50.822   4.805  17.400  0.00  0.00    +0.000 A 
ATOM     19  C   UNL     1      49.887   3.823  17.727  0.00  0.00    +0.000 A 
ATOM     20  C   UNL     1      48.560   3.977  17.335  0.00  0.00    +0.000 A 
ATOM     21 CL   UNL     1      47.406   2.763  17.732  0.00  0.00    +0.000 Cl
ATOM     22  C   UNL     1      48.157   5.109  16.625  0.00  0.00    +0.000 A 
ENDBRANCH  15  16
ENDBRANCH  14  15
ENDBRANCH  13  14
ENDBRANCH   4  13
TORSDOF 6
ENDMDL
