MODEL 1
REMARK VINA RESULT:    -6.670      0.000      0.000
REMARK INTER + INTRA:          -7.624
REMARK INTER:                  -7.450
REMARK INTRA:                  -0.174
REMARK UNBOUND:                -0.174
REMARK  Name = 
REMARK  4 active torsions:
REMARK  status: ('A' for Active; 'I' for Inactive)
REMARK    1  A    between atoms: C_1  and  C_2
REMARK    2  A    between atoms: N_6  and  C_7
REMARK    3  A    between atoms: C_7  and  C_8
REMARK    4  A    between atoms: C_7  and  C_9
REMARK                            x       y       z     vdW  Elec       q    Type
REMARK                         _______ _______ _______ _____ _____    ______ ____
ROOT
ATOM      1  C   UNL     1      47.270   2.535   5.081  0.00  0.00    +0.000 C 
ATOM      2  C   UNL     1      46.811   2.564   6.496  0.00  0.00    +0.000 A 
ATOM      3  C   UNL     1      46.546   3.725   7.183  0.00  0.00    +0.000 A 
ATOM      4  N   UNL     1      46.031   3.759   8.429  0.00  0.00    +0.000 NA
ATOM      5  C   UNL     1      45.797   2.581   9.026  0.00  0.00    +0.000 A 
ATOM      6  N   UNL     1      45.133   2.517  10.238  0.00  0.00    +0.000 N 
ATOM      7  N   UNL     1      46.117   1.402   8.479  0.00  0.00    +0.000 NA
ATOM      8  C   UNL     1      46.583   1.415   7.216  0.00  0.00    +0.000 A 
ATOM      9  H   UNL     1      45.797   2.204  10.935  0.00  0.00    +0.000 HD
ENDROOT
BRANCH   6  10
ATOM     10  C   UNL     1      44.343   3.672  10.637  0.00  0.00    +0.000 C 
ATOM     11  C   UNL     1      43.119   3.229  11.457  0.00  0.00    +0.000 C 
BRANCH  10  12
ATOM     12  C   UNL     1      45.215   4.578  11.506  0.00  0.00    +0.000 A 
ATOM     13  C   UNL     1      45.717   4.122  12.733  0.00  0.00    +0.000 A 
ATOM     14  C   UNL     1      46.554   4.935  13.504  0.00  0.00    +0.000 A 
ATOM     15  C   UNL     1      46.904   6.206  13.054  0.00  0.00    +0.000 A 
ATOM     16  C   UNL     1      46.408   6.677  11.843  0.00  0.00    +0.000 A 
ATOM     17  C   UNL     1      45.565   5.871  11.077  0.00  0.00    +0.000 A 
ENDBRANCH  10  12
ENDBRANCH   6  10
TORSDOF 2
ENDMDL
MODEL 2
REMARK VINA RESULT:    -6.471      1.082      2.070
REMARK INTER + INTRA:          -7.401
REMARK INTER:                  -8.395
REMARK INTRA:                   0.994
REMARK UNBOUND:                -0.174
REMARK  Name = 
REMARK  4 active torsions:
REMARK  status: ('A' for Active; 'I' for Inactive)
REMARK    1  A    between atoms: C_1  and  C_2
REMARK    2  A    between atoms: N_6  and  C_7
REMARK    3  A    between atoms: C_7  and  C_8
REMARK    4  A    between atoms: C_7  and  C_9
REMARK                            x       y       z     vdW  Elec       q    Type
REMARK                         _______ _______ _______ _____ _____    ______ ____
ROOT
ATOM      1  C   UNL     1      47.418   1.375   7.014  0.00  0.00    +0.000 C 
ATOM      2  C   UNL     1      46.399   2.220   7.693  0.00  0.00    +0.000 A 
ATOM      3  C   UNL     1      45.666   1.798   8.778  0.00  0.00    +0.000 A 
ATOM      4  N   UNL     1      44.817   2.590   9.463  0.00  0.00    +0.000 NA
ATOM      5  C   UNL     1      44.673   3.851   9.029  0.00  0.00    +0.000 A 
ATOM      6  N   UNL     1      43.943   4.775   9.756  0.00  0.00    +0.000 N 
ATOM      7  N   UNL     1      45.264   4.323   7.925  0.00  0.00    +0.000 NA
ATOM      8  C   UNL     1      46.139   3.512   7.301  0.00  0.00    +0.000 A 
ATOM      9  H   UNL     1      43.110   4.996   9.223  0.00  0.00    +0.000 HD
ENDROOT
BRANCH   6  10
ATOM     10  C   UNL     1      43.697   4.486  11.161  0.00  0.00    +0.000 C 
ATOM     11  C   UNL     1      43.310   3.009  11.348  0.00  0.00    +0.000 C 
BRANCH  10  12
ATOM     12  C   UNL     1      44.981   4.760  11.943  0.00  0.00    +0.000 A 
ATOM     13  C   UNL     1      45.607   6.013  11.873  0.00  0.00    +0.000 A 
ATOM     14  C   UNL     1      46.755   6.276  12.628  0.00  0.00    +0.000 A 
ATOM     15  C   UNL     1      47.284   5.296  13.463  0.00  0.00    +0.000 A 
ATOM     16  C   UNL     1      46.680   4.045  13.539  0.00  0.00    +0.000 A 
ATOM     17  C   UNL     1      45.541   3.776  12.780  0.00  0.00    +0.000 A 
ENDBRANCH  10  12
ENDBRANCH   6  10
TORSDOF 2
ENDMDL
MODEL 3
REMARK VINA RESULT:    -6.372      1.732      5.413
REMARK INTER + INTRA:          -7.291
REMARK INTER:                  -8.489
REMARK INTRA:                   1.199
REMARK UNBOUND:                -0.174
REMARK  Name = 
REMARK  4 active torsions:
REMARK  status: ('A' for Active; 'I' for Inactive)
REMARK    1  A    between atoms: C_1  and  C_2
REMARK    2  A    between atoms: N_6  and  C_7
REMARK    3  A    between atoms: C_7  and  C_8
REMARK    4  A    between atoms: C_7  and  C_9
REMARK                            x       y       z     vdW  Elec       q    Type
REMARK                         _______ _______ _______ _____ _____    ______ ____
ROOT
ATOM      1  C   UNL     1      48.060   6.392  14.112  0.00  0.00    +0.000 C 
ATOM      2  C   UNL     1      47.039   5.472  13.543  0.00  0.00    +0.000 A 
ATOM      3  C   UNL     1      46.000   5.892  12.747  0.00  0.00    +0.000 A 
ATOM      4  N   UNL     1      45.131   5.056  12.142  0.00  0.00    +0.000 NA
ATOM      5  C   UNL     1      45.292   3.743  12.364  0.00  0.00    +0.000 A 
ATOM      6  N   UNL     1      44.547   2.808  11.669  0.00  0.00    +0.000 N 
ATOM      7  N   UNL     1      46.209   3.245  13.203  0.00  0.00    +0.000 NA
ATOM      8  C   UNL     1      47.083   4.112  13.746  0.00  0.00    +0.000 A 
ATOM      9  H   UNL     1      43.920   2.363  12.330  0.00  0.00    +0.000 HD
ENDROOT
BRANCH   6  10
ATOM     10  C   UNL     1      43.911   3.234  10.432  0.00  0.00    +0.000 C 
ATOM     11  C   UNL     1      43.492   4.712  10.524  0.00  0.00    +0.000 C 
BRANCH  10  12
ATOM     12  C   UNL     1      44.917   3.079   9.292  0.00  0.00    +0.000 A 
ATOM     13  C   UNL     1      45.390   4.202   8.599  0.00  0.00    +0.000 A 
ATOM     14  C   UNL     1      46.348   4.061   7.589  0.00  0.00    +0.000 A 
ATOM     15  C   UNL     1      46.846   2.801   7.267  0.00  0.00    +0.000 A 
ATOM     16  C   UNL     1      46.382   1.675   7.940  0.00  0.00    +0.000 A 
ATOM     17  C   UNL     1      45.420   1.812   8.941  0.00  0.00    +0.000 A 
ENDBRANCH  10  12
ENDBRANCH   6  10
TORSDOF 2
ENDMDL
MODEL 4
REMARK VINA RESULT:    -6.199      2.455      6.011
REMARK INTER + INTRA:          -7.097
REMARK INTER:                  -6.869
REMARK INTRA:                  -0.229
REMARK UNBOUND:                -0.174
REMARK  Name = 
REMARK  4 active torsions:
REMARK  status: ('A' for Active; 'I' for Inactive)
REMARK    1  A    between atoms: C_1  and  C_2
REMARK    2  A    between atoms: N_6  and  C_7
REMARK    3  A    between atoms: C_7  and  C_8
REMARK    4  A    between atoms: C_7  and  C_9
REMARK                            x       y       z     vdW  Elec       q    Type
REMARK                         _______ _______ _______ _____ _____    ______ ____
ROOT
ATOM      1  C   UNL     1      48.056   9.217  13.786  0.00  0.00    +0.000 C 
ATOM      2  C   UNL     1      47.187   8.384  12.910  0.00  0.00    +0.000 A 
ATOM      3  C   UNL     1      47.421   7.053  12.657  0.00  0.00    +0.000 A 
ATOM      4  N   UNL     1      46.585   6.265  11.951  0.00  0.00    +0.000 NA
ATOM      5  C   UNL     1      45.479   6.839  11.454  0.00  0.00    +0.000 A 
ATOM      6  N   UNL     1      44.493   6.079  10.850  0.00  0.00    +0.000 N 
ATOM      7  N   UNL     1      45.216   8.147  11.561  0.00  0.00    +0.000 NA
ATOM      8  C   UNL     1      46.054   8.884  12.314  0.00  0.00    +0.000 A 
ATOM      9  H   UNL     1      44.488   6.312   9.864  0.00  0.00    +0.000 HD
ENDROOT
BRANCH   6  10
ATOM     10  C   UNL     1      44.474   4.651  11.129  0.00  0.00    +0.000 C 
ATOM     11  C   UNL     1      43.039   4.178  11.419  0.00  0.00    +0.000 C 
BRANCH  10  12
ATOM     12  C   UNL     1      44.997   3.910   9.899  0.00  0.00    +0.000 A 
ATOM     13  C   UNL     1      45.548   4.616   8.820  0.00  0.00    +0.000 A 
ATOM     14  C   UNL     1      46.070   3.933   7.717  0.00  0.00    +0.000 A 
ATOM     15  C   UNL     1      46.052   2.541   7.683  0.00  0.00    +0.000 A 
ATOM     16  C   UNL     1      45.501   1.825   8.741  0.00  0.00    +0.000 A 
ATOM     17  C   UNL     1      44.972   2.504   9.838  0.00  0.00    +0.000 A 
ENDBRANCH  10  12
ENDBRANCH   6  10
TORSDOF 2
ENDMDL
MODEL 5
REMARK VINA RESULT:    -6.148      3.042      6.671
REMARK INTER + INTRA:          -7.041
REMARK INTER:                  -6.719
REMARK INTRA:                  -0.322
REMARK UNBOUND:                -0.174
REMARK  Name = 
REMARK  4 active torsions:
REMARK  status: ('A' for Active; 'I' for Inactive)
REMARK    1  A    between atoms: C_1  and  C_2
REMARK    2  A    between atoms: N_6  and  C_7
REMARK    3  A    between atoms: C_7  and  C_8
REMARK    4  A    between atoms: C_7  and  C_9
REMARK                            x       y       z     vdW  Elec       q    Type
REMARK                         _______ _______ _______ _____ _____    ______ ____
ROOT
ATOM      1  C   UNL     1      48.692   4.594  17.919  0.00  0.00    +0.000 C 
ATOM      2  C   UNL     1      48.159   4.700  16.534  0.00  0.00    +0.000 A 
ATOM      3  C   UNL     1      47.332   3.759  15.966  0.00  0.00    +0.000 A 
ATOM      4  N   UNL     1      46.761   3.897  14.752  0.00  0.00    +0.000 NA
ATOM      5  C   UNL     1      47.049   5.011  14.064  0.00  0.00    +0.000 A 
ATOM      6  N   UNL     1      46.394   5.307  12.882  0.00  0.00    +0.000 N 
ATOM      7  N   UNL     1      47.921   5.934  14.489  0.00  0.00    +0.000 NA
ATOM      8  C   UNL     1      48.429   5.779  15.725  0.00  0.00    +0.000 A 
ATOM      9  H   UNL     1      47.069   5.233  12.131  0.00  0.00    +0.000 HD
ENDROOT
BRANCH   6  10
ATOM     10  C   UNL     1      45.130   4.633  12.623  0.00  0.00    +0.000 C 
ATOM     11  C   UNL     1      43.948   5.565  12.943  0.00  0.00    +0.000 C 
BRANCH  10  12
ATOM     12  C   UNL     1      45.075   4.260  11.142  0.00  0.00    +0.000 A 
ATOM     13  C   UNL     1      45.567   5.137  10.166  0.00  0.00    +0.000 A 
ATOM     14  C   UNL     1      45.560   4.773   8.815  0.00  0.00    +0.000 A 
ATOM     15  C   UNL     1      45.070   3.528   8.429  0.00  0.00    +0.000 A 
ATOM     16  C   UNL     1      44.570   2.648   9.384  0.00  0.00    +0.000 A 
ATOM     17  C   UNL     1      44.568   3.013  10.730  0.00  0.00    +0.000 A 
ENDBRANCH  10  12
ENDBRANCH   6  10
TORSDOF 2
ENDMDL
MODEL 6
REMARK VINA RESULT:    -6.032      4.624      6.958
REMARK INTER + INTRA:          -6.912
REMARK INTER:                  -6.557
REMARK INTRA:                  -0.355
REMARK UNBOUND:                -0.174
REMARK  Name = 
REMARK  4 active torsions:
REMARK  status: ('A' for Active; 'I' for Inactive)
REMARK    1  A    between atoms: C_1  and  C_2
REMARK    2  A    between atoms: N_6  and  C_7
REMARK    3  A    between atoms: C_7  and  C_8
REMARK    4  A    between atoms: C_7  and  C_9
REMARK                            x       y       z     vdW  Elec       q    Type
REMARK                         _______ _______ _______ _____ _____    ______ ____
ROOT
ATOM      1  C   UNL     1      45.967   6.501  11.134  0.00  0.00    +0.000 C 
ATOM      2  C   UNL     1      46.383   5.761  12.356  0.00  0.00    +0.000 A 
ATOM      3  C   UNL     1      47.502   6.078  13.089  0.00  0.00    +0.000 A 
ATOM      4  N   UNL     1      47.830   5.482  14.254  0.00  0.00    +0.000 NA
ATOM      5  C   UNL     1      47.018   4.508  14.691  0.00  0.00    +0.000 A 
ATOM      6  N   UNL     1      47.191   3.948  15.944  0.00  0.00    +0.000 N 
ATOM      7  N   UNL     1      45.964   4.061  13.998  0.00  0.00    +0.000 NA
ATOM      8  C   UNL     1      45.647   4.717  12.866  0.00  0.00    +0.000 A 
ATOM      9  H   UNL     1      47.492   2.990  15.813  0.00  0.00    +0.000 HD
ENDROOT
BRANCH   6  10
ATOM     10  C   UNL     1      47.973   4.696  16.917  0.00  0.00    +0.000 C 
ATOM     11  C   UNL     1      47.187   4.856  18.230  0.00  0.00    +0.000 C 
BRANCH  10  12
ATOM     12  C   UNL     1      49.257   3.919  17.205  0.00  0.00    +0.000 A 
ATOM     13  C   UNL     1      49.305   2.529  17.033  0.00  0.00    +0.000 A 
ATOM     14  C   UNL     1      50.496   1.827  17.250  0.00  0.00    +0.000 A 
ATOM     15  C   UNL     1      51.649   2.507  17.635  0.00  0.00    +0.000 A 
ATOM     16  C   UNL     1      51.616   3.885  17.819  0.00  0.00    +0.000 A 
ATOM     17  C   UNL     1      50.428   4.586  17.612  0.00  0.00    +0.000 A 
ENDBRANCH  10  12
ENDBRANCH   6  10
TORSDOF 2
ENDMDL
MODEL 7
REMARK VINA RESULT:    -5.816      3.723      7.245
REMARK INTER + INTRA:          -6.669
REMARK INTER:                  -6.387
REMARK INTRA:                  -0.282
REMARK UNBOUND:                -0.174
REMARK  Name = 
REMARK  4 active torsions:
REMARK  status: ('A' for Active; 'I' for Inactive)
REMARK    1  A    between atoms: C_1  and  C_2
REMARK    2  A    between atoms: N_6  and  C_7
REMARK    3  A    between atoms: C_7  and  C_8
REMARK    4  A    between atoms: C_7  and  C_9
REMARK                            x       y       z     vdW  Elec       q    Type
REMARK                         _______ _______ _______ _____ _____    ______ ____
ROOT
ATOM      1  C   UNL     1      49.042   3.899  19.312  0.00  0.00    +0.000 C 
ATOM      2  C   UNL     1      48.390   3.758  17.982  0.00  0.00    +0.000 A 
ATOM      3  C   UNL     1      47.295   4.493  17.592  0.00  0.00    +0.000 A 
ATOM      4  N   UNL     1      46.763   4.446  16.354  0.00  0.00    +0.000 NA
ATOM      5  C   UNL     1      47.333   3.609  15.474  0.00  0.00    +0.000 A 
ATOM      6  N   UNL     1      46.952   3.607  14.144  0.00  0.00    +0.000 N 
ATOM      7  N   UNL     1      48.336   2.780  15.790  0.00  0.00    +0.000 NA
ATOM      8  C   UNL     1      48.866   2.895  17.021  0.00  0.00    +0.000 A 
ATOM      9  H   UNL     1      46.483   2.727  13.961  0.00  0.00    +0.000 HD
ENDROOT
BRANCH   6  10
ATOM     10  C   UNL     1      46.250   4.778  13.641  0.00  0.00    +0.000 C 
ATOM     11  C   UNL     1      47.253   5.863  13.212  0.00  0.00    +0.000 C 
BRANCH  10  12
ATOM     12  C   UNL     1      45.426   4.361  12.422  0.00  0.00    +0.000 A 
ATOM     13  C   UNL     1      44.551   3.268  12.491  0.00  0.00    +0.000 A 
ATOM     14  C   UNL     1      43.763   2.919  11.390  0.00  0.00    +0.000 A 
ATOM     15  C   UNL     1      43.835   3.661  10.213  0.00  0.00    +0.000 A 
ATOM     16  C   UNL     1      44.705   4.744  10.125  0.00  0.00    +0.000 A 
ATOM     17  C   UNL     1      45.499   5.088  11.219  0.00  0.00    +0.000 A 
ENDBRANCH  10  12
ENDBRANCH   6  10
TORSDOF 2
ENDMDL
MODEL 8
REMARK VINA RESULT:    -5.631      1.657      2.784
REMARK INTER + INTRA:          -6.464
REMARK INTER:                  -7.108
REMARK INTRA:                   0.644
REMARK UNBOUND:                -0.174
REMARK  Name = 
REMARK  4 active torsions:
REMARK  status: ('A' for Active; 'I' for Inactive)
REMARK    1  A    between atoms: C_1  and  C_2
REMARK    2  A    between atoms: N_6  and  C_7
REMARK    3  A    between atoms: C_7  and  C_8
REMARK    4  A    between atoms: C_7  and  C_9
REMARK                            x       y       z     vdW  Elec       q    Type
REMARK                         _______ _______ _______ _____ _____    ______ ____
ROOT
ATOM      1  C   UNL     1      47.073   0.846   7.136  0.00  0.00    +0.000 C 
ATOM      2  C   UNL     1      46.457   2.075   7.705  0.00  0.00    +0.000 A 
ATOM      3  C   UNL     1      45.568   2.061   8.755  0.00  0.00    +0.000 A 
ATOM      4  N   UNL     1      45.086   3.174   9.344  0.00  0.00    +0.000 NA
ATOM      5  C   UNL     1      45.488   4.352   8.846  0.00  0.00    +0.000 A 
ATOM      6  N   UNL     1      45.166   5.539   9.480  0.00  0.00    +0.000 N 
ATOM      7  N   UNL     1      46.268   4.467   7.765  0.00  0.00    +0.000 NA
ATOM      8  C   UNL     1      46.764   3.332   7.239  0.00  0.00    +0.000 A 
ATOM      9  H   UNL     1      44.520   6.041   8.881  0.00  0.00    +0.000 HD
ENDROOT
BRANCH   6  10
ATOM     10  C   UNL     1      44.761   5.472  10.876  0.00  0.00    +0.000 C 
ATOM     11  C   UNL     1      45.563   4.386  11.616  0.00  0.00    +0.000 C 
BRANCH  10  12
ATOM     12  C   UNL     1      45.048   6.824  11.529  0.00  0.00    +0.000 A 
ATOM     13  C   UNL     1      44.441   7.992  11.046  0.00  0.00    +0.000 A 
ATOM     14  C   UNL     1      44.666   9.221  11.676  0.00  0.00    +0.000 A 
ATOM     15  C   UNL     1      45.492   9.294  12.794  0.00  0.00    +0.000 A 
ATOM     16  C   UNL     1      46.109   8.145  13.281  0.00  0.00    +0.000 A 
ATOM     17  C   UNL     1      45.893   6.920  12.649  0.00  0.00    +0.000 A 
ENDBRANCH  10  12
ENDBRANCH   6  10
TORSDOF 2
ENDMDL
MODEL 9
REMARK VINA RESULT:    -5.590      2.615      6.022
REMARK INTER + INTRA:          -6.418
REMARK INTER:                  -6.077
REMARK INTRA:                  -0.340
REMARK UNBOUND:                -0.174
REMARK  Name = 
REMARK  4 active torsions:
REMARK  status: ('A' for Active; 'I' for Inactive)
REMARK    1  A    between atoms: C_1  and  C_2
REMARK    2  A    between atoms: N_6  and  C_7
REMARK    3  A    between atoms: C_7  and  C_8
REMARK    4  A    between atoms: C_7  and  C_9
REMARK                            x       y       z     vdW  Elec       q    Type
REMARK                         _______ _______ _______ _____ _____    ______ ____
ROOT
ATOM      1  C   UNL     1      49.599   7.313  15.104  0.00  0.00    +0.000 C 
ATOM      2  C   UNL     1      48.646   7.053  13.990  0.00  0.00    +0.000 A 
ATOM      3  C   UNL     1      48.030   5.840  13.789  0.00  0.00    +0.000 A 
ATOM      4  N   UNL     1      47.088   5.625  12.848  0.00  0.00    +0.000 NA
ATOM      5  C   UNL     1      46.768   6.659  12.056  0.00  0.00    +0.000 A 
ATOM      6  N   UNL     1      45.711   6.574  11.167  0.00  0.00    +0.000 N 
ATOM      7  N   UNL     1      47.385   7.846  12.108  0.00  0.00    +0.000 NA
ATOM      8  C   UNL     1      48.283   8.030  13.094  0.00  0.00    +0.000 A 
ATOM      9  H   UNL     1      46.097   6.585  10.230  0.00  0.00    +0.000 HD
ENDROOT
BRANCH   6  10
ATOM     10  C   UNL     1      44.718   5.536  11.396  0.00  0.00    +0.000 C 
ATOM     11  C   UNL     1      43.297   6.113  11.268  0.00  0.00    +0.000 C 
BRANCH  10  12
ATOM     12  C   UNL     1      44.903   4.447  10.339  0.00  0.00    +0.000 A 
ATOM     13  C   UNL     1      44.470   3.136  10.581  0.00  0.00    +0.000 A 
ATOM     14  C   UNL     1      44.597   2.153   9.593  0.00  0.00    +0.000 A 
ATOM     15  C   UNL     1      45.150   2.472   8.355  0.00  0.00    +0.000 A 
ATOM     16  C   UNL     1      45.593   3.766   8.102  0.00  0.00    +0.000 A 
ATOM     17  C   UNL     1      45.476   4.746   9.089  0.00  0.00    +0.000 A 
ENDBRANCH  10  12
ENDBRANCH   6  10
TORSDOF 2
ENDMDL
