MODEL 1
REMARK VINA RESULT:    -8.464      0.000      0.000
REMARK INTER + INTRA:         -11.214
REMARK INTER:                 -10.443
REMARK INTRA:                  -0.771
REMARK UNBOUND:                -0.771
REMARK  Name = 
REMARK  6 active torsions:
REMARK  status: ('A' for Active; 'I' for Inactive)
REMARK    1  A    between atoms: C_1  and  C_2
REMARK    2  A    between atoms: C_7  and  C_8
REMARK    3  A    between atoms: C_8  and  N_9
REMARK    4  A    between atoms: N_9  and  C_10
REMARK    5  A    between atoms: C_13  and  C_14
REMARK    6  A    between atoms: C_25  and  C_26
REMARK                            x       y       z     vdW  Elec       q    Type
REMARK                         _______ _______ _______ _____ _____    ______ ____
ROOT
ATOM      1  C   UNL     1      43.919   4.988  11.407  0.00  0.00    +0.000 C 
ATOM      2  C   UNL     1      43.104   6.205  10.995  0.00  0.00    +0.000 C 
ATOM      3  C   UNL     1      42.495   5.222  11.926  0.00  0.00    +0.000 C 
ENDROOT
BRANCH   1  10
ATOM      4  C   UNL     1      50.022   7.093  14.956  0.00  0.00    +0.000 C 
ATOM      5  C   UNL     1      49.445   8.470  14.636  0.00  0.00    +0.000 C 
ATOM      6  C   UNL     1      47.906   8.513  14.583  0.00  0.00    +0.000 C 
ATOM      7  N   UNL     1      47.335   8.053  13.309  0.00  0.00    +0.000 N 
ATOM      8  C   UNL     1      46.758   6.791  13.275  0.00  0.00    +0.000 A 
ATOM      9  C   UNL     1      45.708   6.553  12.381  0.00  0.00    +0.000 A 
ATOM     10  C   UNL     1      45.118   5.280  12.294  0.00  0.00    +0.000 A 
ATOM     11  C   UNL     1      45.676   4.279  13.080  0.00  0.00    +0.000 A 
ATOM     12  C   UNL     1      46.666   4.601  13.985  0.00  0.00    +0.000 A 
ATOM     13  N   UNL     1      47.197   5.832  14.109  0.00  0.00    +0.000 NA
ATOM     14  C   UNL     1      48.068   8.442  12.095  0.00  0.00    +0.000 C 
ATOM     15  C   UNL     1      49.600   8.364  12.259  0.00  0.00    +0.000 C 
ATOM     16  C   UNL     1      50.279   9.049  11.077  0.00  0.00    +0.000 C 
ATOM     17  O   UNL     1      50.042   9.029  13.452  0.00  0.00    +0.000 OA
ENDBRANCH   1  10
BRANCH   1  18
ATOM     18  N   UNL     1      44.018   3.685  10.739  0.00  0.00    +0.000 N 
ATOM     19  H   UNL     1      43.313   2.997  10.972  0.00  0.00    +0.000 HD
BRANCH  18  20
ATOM     20  C   UNL     1      44.821   3.383   9.642  0.00  0.00    +0.000 A 
ATOM     21  C   UNL     1      45.304   4.411   8.818  0.00  0.00    +0.000 A 
ATOM     22  C   UNL     1      46.168   4.109   7.761  0.00  0.00    +0.000 A 
ATOM     23  C   UNL     1      46.502   2.782   7.553  0.00  0.00    +0.000 A 
ATOM     24  N   UNL     1      46.034   1.748   8.304  0.00  0.00    +0.000 NA
ATOM     25  C   UNL     1      45.214   2.085   9.324  0.00  0.00    +0.000 A 
BRANCH  23  26
ATOM     26  C   UNL     1      47.442   2.380   6.462  0.00  0.00    +0.000 C 
ATOM     27  N   UNL     1      47.366   3.163   5.344  0.00  0.00    +0.000 N 
ATOM     28  O   UNL     1      48.212   1.436   6.561  0.00  0.00    +0.000 OA
ATOM     29  H   UNL     1      46.698   3.932   5.326  0.00  0.00    +0.000 HD
ATOM     30  H   UNL     1      47.952   2.972   4.546  0.00  0.00    +0.000 HD
ENDBRANCH  23  26
ENDBRANCH  18  20
ENDBRANCH   1  18
TORSDOF 4
ENDMDL
MODEL 2
REMARK VINA RESULT:    -8.263      1.411      2.541
REMARK INTER + INTRA:         -10.967
REMARK INTER:                 -10.942
REMARK INTRA:                  -0.024
REMARK UNBOUND:                -0.771
REMARK  Name = 
REMARK  6 active torsions:
REMARK  status: ('A' for Active; 'I' for Inactive)
REMARK    1  A    between atoms: C_1  and  C_2
REMARK    2  A    between atoms: C_7  and  C_8
REMARK    3  A    between atoms: C_8  and  N_9
REMARK    4  A    between atoms: N_9  and  C_10
REMARK    5  A    between atoms: C_13  and  C_14
REMARK    6  A    between atoms: C_25  and  C_26
REMARK                            x       y       z     vdW  Elec       q    Type
REMARK                         _______ _______ _______ _____ _____    ______ ____
ROOT
ATOM      1  C   UNL     1      43.727   5.126  11.326  0.00  0.00    +0.000 C 
ATOM      2  C   UNL     1      42.609   4.972  12.347  0.00  0.00    +0.000 C 
ATOM      3  C   UNL     1      43.573   3.856  12.173  0.00  0.00    +0.000 C 
ENDROOT
BRANCH   1  10
ATOM      4  C   UNL     1      49.160   9.454  13.778  0.00  0.00    +0.000 C 
ATOM      5  C   UNL     1      49.935   8.145  13.657  0.00  0.00    +0.000 C 
ATOM      6  C   UNL     1      49.434   7.216  12.534  0.00  0.00    +0.000 C 
ATOM      7  N   UNL     1      48.261   6.409  12.899  0.00  0.00    +0.000 N 
ATOM      8  C   UNL     1      47.028   6.791  12.388  0.00  0.00    +0.000 A 
ATOM      9  C   UNL     1      46.058   5.808  12.160  0.00  0.00    +0.000 A 
ATOM     10  C   UNL     1      44.786   6.157  11.674  0.00  0.00    +0.000 A 
ATOM     11  C   UNL     1      44.534   7.514  11.507  0.00  0.00    +0.000 A 
ATOM     12  C   UNL     1      45.558   8.421  11.689  0.00  0.00    +0.000 A 
ATOM     13  N   UNL     1      46.793   8.083  12.103  0.00  0.00    +0.000 NA
ATOM     14  C   UNL     1      48.239   5.886  14.272  0.00  0.00    +0.000 C 
ATOM     15  C   UNL     1      48.761   6.896  15.315  0.00  0.00    +0.000 C 
ATOM     16  C   UNL     1      48.977   6.190  16.650  0.00  0.00    +0.000 C 
ATOM     17  O   UNL     1      50.020   7.464  14.922  0.00  0.00    +0.000 OA
ENDBRANCH   1  10
BRANCH   1  18
ATOM     18  N   UNL     1      43.710   4.798   9.896  0.00  0.00    +0.000 N 
ATOM     19  H   UNL     1      43.055   5.308   9.317  0.00  0.00    +0.000 HD
BRANCH  18  20
ATOM     20  C   UNL     1      44.665   4.048   9.213  0.00  0.00    +0.000 A 
ATOM     21  C   UNL     1      44.690   2.651   9.346  0.00  0.00    +0.000 A 
ATOM     22  C   UNL     1      45.602   1.896   8.602  0.00  0.00    +0.000 A 
ATOM     23  C   UNL     1      46.474   2.571   7.765  0.00  0.00    +0.000 A 
ATOM     24  N   UNL     1      46.509   3.924   7.627  0.00  0.00    +0.000 NA
ATOM     25  C   UNL     1      45.601   4.614   8.352  0.00  0.00    +0.000 A 
BRANCH  23  26
ATOM     26  C   UNL     1      47.461   1.835   6.916  0.00  0.00    +0.000 C 
ATOM     27  N   UNL     1      48.506   2.603   6.483  0.00  0.00    +0.000 N 
ATOM     28  O   UNL     1      47.346   0.651   6.636  0.00  0.00    +0.000 OA
ATOM     29  H   UNL     1      48.538   3.585   6.750  0.00  0.00    +0.000 HD
ATOM     30  H   UNL     1      49.224   2.205   5.898  0.00  0.00    +0.000 HD
ENDBRANCH  23  26
ENDBRANCH  18  20
ENDBRANCH   1  18
TORSDOF 4
ENDMDL
MODEL 3
REMARK VINA RESULT:    -6.852      3.019      8.199
REMARK INTER + INTRA:          -9.225
REMARK INTER:                  -8.394
REMARK INTRA:                  -0.831
REMARK UNBOUND:                -0.771
REMARK  Name = 
REMARK  6 active torsions:
REMARK  status: ('A' for Active; 'I' for Inactive)
REMARK    1  A    between atoms: C_1  and  C_2
REMARK    2  A    between atoms: C_7  and  C_8
REMARK    3  A    between atoms: C_8  and  N_9
REMARK    4  A    between atoms: N_9  and  C_10
REMARK    5  A    between atoms: C_13  and  C_14
REMARK    6  A    between atoms: C_25  and  C_26
REMARK                            x       y       z     vdW  Elec       q    Type
REMARK                         _______ _______ _______ _____ _____    ______ ____
ROOT
ATOM      1  C   UNL     1      49.255   7.926  12.672  0.00  0.00    +0.000 C 
ATOM      2  C   UNL     1      49.691   9.133  11.854  0.00  0.00    +0.000 C 
ATOM      3  C   UNL     1      50.116   7.781  11.411  0.00  0.00    +0.000 C 
ENDROOT
BRANCH   1  10
ATOM      4  C   UNL     1      42.308   5.652  11.760  0.00  0.00    +0.000 C 
ATOM      5  C   UNL     1      42.970   4.300  12.012  0.00  0.00    +0.000 C 
ATOM      6  C   UNL     1      44.194   4.361  12.946  0.00  0.00    +0.000 C 
ATOM      7  N   UNL     1      45.439   4.770  12.280  0.00  0.00    +0.000 N 
ATOM      8  C   UNL     1      45.894   6.064  12.496  0.00  0.00    +0.000 A 
ATOM      9  C   UNL     1      47.270   6.312  12.447  0.00  0.00    +0.000 A 
ATOM     10  C   UNL     1      47.769   7.614  12.628  0.00  0.00    +0.000 A 
ATOM     11  C   UNL     1      46.829   8.626  12.782  0.00  0.00    +0.000 A 
ATOM     12  C   UNL     1      45.493   8.298  12.886  0.00  0.00    +0.000 A 
ATOM     13  N   UNL     1      45.017   7.045  12.767  0.00  0.00    +0.000 NA
ATOM     14  C   UNL     1      45.647   4.247  10.922  0.00  0.00    +0.000 C 
ATOM     15  C   UNL     1      44.358   4.230  10.075  0.00  0.00    +0.000 C 
ATOM     16  C   UNL     1      44.590   3.419   8.803  0.00  0.00    +0.000 C 
ATOM     17  O   UNL     1      43.266   3.620  10.779  0.00  0.00    +0.000 OA
ENDBRANCH   1  10
BRANCH   1  18
ATOM     18  N   UNL     1      49.924   7.315  13.827  0.00  0.00    +0.000 N 
ATOM     19  H   UNL     1      50.915   7.128  13.736  0.00  0.00    +0.000 HD
BRANCH  18  20
ATOM     20  C   UNL     1      49.401   7.198  15.113  0.00  0.00    +0.000 A 
ATOM     21  C   UNL     1      49.242   8.339  15.914  0.00  0.00    +0.000 A 
ATOM     22  C   UNL     1      48.650   8.228  17.176  0.00  0.00    +0.000 A 
ATOM     23  C   UNL     1      48.256   6.971  17.600  0.00  0.00    +0.000 A 
ATOM     24  N   UNL     1      48.418   5.832  16.872  0.00  0.00    +0.000 NA
ATOM     25  C   UNL     1      48.981   5.986  15.654  0.00  0.00    +0.000 A 
BRANCH  23  26
ATOM     26  C   UNL     1      47.591   6.771  18.924  0.00  0.00    +0.000 C 
ATOM     27  N   UNL     1      46.727   5.712  18.960  0.00  0.00    +0.000 N 
ATOM     28  O   UNL     1      47.802   7.489  19.890  0.00  0.00    +0.000 OA
ATOM     29  H   UNL     1      46.593   5.157  18.117  0.00  0.00    +0.000 HD
ATOM     30  H   UNL     1      46.220   5.495  19.805  0.00  0.00    +0.000 HD
ENDBRANCH  23  26
ENDBRANCH  18  20
ENDBRANCH   1  18
TORSDOF 4
ENDMDL
MODEL 4
REMARK VINA RESULT:    -6.844      3.447      5.733
REMARK INTER + INTRA:          -9.215
REMARK INTER:                  -8.873
REMARK INTRA:                  -0.342
REMARK UNBOUND:                -0.771
REMARK  Name = 
REMARK  6 active torsions:
REMARK  status: ('A' for Active; 'I' for Inactive)
REMARK    1  A    between atoms: C_1  and  C_2
REMARK    2  A    between atoms: C_7  and  C_8
REMARK    3  A    between atoms: C_8  and  N_9
REMARK    4  A    between atoms: N_9  and  C_10
REMARK    5  A    between atoms: C_13  and  C_14
REMARK    6  A    between atoms: C_25  and  C_26
REMARK                            x       y       z     vdW  Elec       q    Type
REMARK                         _______ _______ _______ _____ _____    ______ ____
ROOT
ATOM      1  C   UNL     1      47.891   7.570  13.100  0.00  0.00    +0.000 C 
ATOM      2  C   UNL     1      48.570   7.769  11.753  0.00  0.00    +0.000 C 
ATOM      3  C   UNL     1      47.966   8.946  12.426  0.00  0.00    +0.000 C 
ENDROOT
BRANCH   1  10
ATOM      4  C   UNL     1      51.516   5.821  19.269  0.00  0.00    +0.000 C 
ATOM      5  C   UNL     1      50.473   4.708  19.283  0.00  0.00    +0.000 C 
ATOM      6  C   UNL     1      50.017   4.253  17.883  0.00  0.00    +0.000 C 
ATOM      7  N   UNL     1      48.992   5.114  17.275  0.00  0.00    +0.000 N 
ATOM      8  C   UNL     1      49.389   5.981  16.266  0.00  0.00    +0.000 A 
ATOM      9  C   UNL     1      48.467   6.328  15.272  0.00  0.00    +0.000 A 
ATOM     10  C   UNL     1      48.820   7.227  14.251  0.00  0.00    +0.000 A 
ATOM     11  C   UNL     1      50.087   7.793  14.330  0.00  0.00    +0.000 A 
ATOM     12  C   UNL     1      50.966   7.355  15.300  0.00  0.00    +0.000 A 
ATOM     13  N   UNL     1      50.648   6.452  16.247  0.00  0.00    +0.000 NA
ATOM     14  C   UNL     1      47.964   5.638  18.186  0.00  0.00    +0.000 C 
ATOM     15  C   UNL     1      48.529   6.062  19.558  0.00  0.00    +0.000 C 
ATOM     16  C   UNL     1      47.381   6.316  20.530  0.00  0.00    +0.000 C 
ATOM     17  O   UNL     1      49.359   5.040  20.131  0.00  0.00    +0.000 OA
ENDBRANCH   1  10
BRANCH   1  18
ATOM     18  N   UNL     1      46.496   7.206  13.375  0.00  0.00    +0.000 N 
ATOM     19  H   UNL     1      45.934   7.887  13.872  0.00  0.00    +0.000 HD
BRANCH  18  20
ATOM     20  C   UNL     1      45.798   6.141  12.812  0.00  0.00    +0.000 A 
ATOM     21  C   UNL     1      45.348   6.218  11.484  0.00  0.00    +0.000 A 
ATOM     22  C   UNL     1      44.712   5.118  10.900  0.00  0.00    +0.000 A 
ATOM     23  C   UNL     1      44.530   3.986  11.673  0.00  0.00    +0.000 A 
ATOM     24  N   UNL     1      44.918   3.876  12.973  0.00  0.00    +0.000 NA
ATOM     25  C   UNL     1      45.542   4.955  13.494  0.00  0.00    +0.000 A 
BRANCH  23  26
ATOM     26  C   UNL     1      43.882   2.759  11.114  0.00  0.00    +0.000 C 
ATOM     27  N   UNL     1      44.459   2.300   9.962  0.00  0.00    +0.000 N 
ATOM     28  O   UNL     1      42.924   2.213  11.641  0.00  0.00    +0.000 OA
ATOM     29  H   UNL     1      45.253   2.806   9.574  0.00  0.00    +0.000 HD
ATOM     30  H   UNL     1      44.093   1.482   9.499  0.00  0.00    +0.000 HD
ENDBRANCH  23  26
ENDBRANCH  18  20
ENDBRANCH   1  18
TORSDOF 4
ENDMDL
MODEL 5
REMARK VINA RESULT:    -6.630      2.416      3.649
REMARK INTER + INTRA:          -8.951
REMARK INTER:                  -9.433
REMARK INTRA:                   0.482
REMARK UNBOUND:                -0.771
REMARK  Name = 
REMARK  6 active torsions:
REMARK  status: ('A' for Active; 'I' for Inactive)
REMARK    1  A    between atoms: C_1  and  C_2
REMARK    2  A    between atoms: C_7  and  C_8
REMARK    3  A    between atoms: C_8  and  N_9
REMARK    4  A    between atoms: N_9  and  C_10
REMARK    5  A    between atoms: C_13  and  C_14
REMARK    6  A    between atoms: C_25  and  C_26
REMARK                            x       y       z     vdW  Elec       q    Type
REMARK                         _______ _______ _______ _____ _____    ______ ____
ROOT
ATOM      1  C   UNL     1      44.328   4.768  12.297  0.00  0.00    +0.000 C 
ATOM      2  C   UNL     1      43.118   4.629  13.209  0.00  0.00    +0.000 C 
ATOM      3  C   UNL     1      43.633   3.419  12.520  0.00  0.00    +0.000 C 
ENDROOT
BRANCH   1  10
ATOM      4  C   UNL     1      50.143   6.141  16.605  0.00  0.00    +0.000 C 
ATOM      5  C   UNL     1      49.680   4.832  17.240  0.00  0.00    +0.000 C 
ATOM      6  C   UNL     1      49.008   3.856  16.255  0.00  0.00    +0.000 C 
ATOM      7  N   UNL     1      47.592   4.150  15.990  0.00  0.00    +0.000 N 
ATOM      8  C   UNL     1      47.269   4.740  14.776  0.00  0.00    +0.000 A 
ATOM      9  C   UNL     1      46.016   4.479  14.211  0.00  0.00    +0.000 A 
ATOM     10  C   UNL     1      45.638   5.083  12.999  0.00  0.00    +0.000 A 
ATOM     11  C   UNL     1      46.536   5.989  12.447  0.00  0.00    +0.000 A 
ATOM     12  C   UNL     1      47.779   6.147  13.025  0.00  0.00    +0.000 A 
ATOM     13  N   UNL     1      48.164   5.528  14.156  0.00  0.00    +0.000 NA
ATOM     14  C   UNL     1      46.800   4.605  17.142  0.00  0.00    +0.000 C 
ATOM     15  C   UNL     1      47.569   5.576  18.061  0.00  0.00    +0.000 C 
ATOM     16  C   UNL     1      46.798   5.770  19.363  0.00  0.00    +0.000 C 
ATOM     17  O   UNL     1      48.868   5.069  18.404  0.00  0.00    +0.000 OA
ENDBRANCH   1  10
BRANCH   1  18
ATOM     18  N   UNL     1      44.362   5.101  10.868  0.00  0.00    +0.000 N 
ATOM     19  H   UNL     1      44.029   6.020  10.604  0.00  0.00    +0.000 HD
BRANCH  18  20
ATOM     20  C   UNL     1      45.031   4.391   9.874  0.00  0.00    +0.000 A 
ATOM     21  C   UNL     1      44.921   2.993   9.811  0.00  0.00    +0.000 A 
ATOM     22  C   UNL     1      45.534   2.292   8.769  0.00  0.00    +0.000 A 
ATOM     23  C   UNL     1      46.256   3.015   7.835  0.00  0.00    +0.000 A 
ATOM     24  N   UNL     1      46.418   4.366   7.872  0.00  0.00    +0.000 NA
ATOM     25  C   UNL     1      45.797   5.006   8.887  0.00  0.00    +0.000 A 
BRANCH  23  26
ATOM     26  C   UNL     1      46.919   2.342   6.676  0.00  0.00    +0.000 C 
ATOM     27  N   UNL     1      47.013   3.123   5.557  0.00  0.00    +0.000 N 
ATOM     28  O   UNL     1      47.341   1.196   6.724  0.00  0.00    +0.000 OA
ATOM     29  H   UNL     1      46.636   4.068   5.584  0.00  0.00    +0.000 HD
ATOM     30  H   UNL     1      47.437   2.761   4.717  0.00  0.00    +0.000 HD
ENDBRANCH  23  26
ENDBRANCH  18  20
ENDBRANCH   1  18
TORSDOF 4
ENDMDL
MODEL 6
REMARK VINA RESULT:    -6.548      3.531      5.934
REMARK INTER + INTRA:          -8.850
REMARK INTER:                  -8.043
REMARK INTRA:                  -0.808
REMARK UNBOUND:                -0.771
REMARK  Name = 
REMARK  6 active torsions:
REMARK  status: ('A' for Active; 'I' for Inactive)
REMARK    1  A    between atoms: C_1  and  C_2
REMARK    2  A    between atoms: C_7  and  C_8
REMARK    3  A    between atoms: C_8  and  N_9
REMARK    4  A    between atoms: N_9  and  C_10
REMARK    5  A    between atoms: C_13  and  C_14
REMARK    6  A    between atoms: C_25  and  C_26
REMARK                            x       y       z     vdW  Elec       q    Type
REMARK                         _______ _______ _______ _____ _____    ______ ____
ROOT
ATOM      1  C   UNL     1      48.429   8.218  12.496  0.00  0.00    +0.000 C 
ATOM      2  C   UNL     1      49.704   7.819  11.768  0.00  0.00    +0.000 C 
ATOM      3  C   UNL     1      49.302   9.248  11.768  0.00  0.00    +0.000 C 
ENDROOT
BRANCH   1  10
ATOM      4  C   UNL     1      48.490   6.610  19.685  0.00  0.00    +0.000 C 
ATOM      5  C   UNL     1      49.432   5.516  19.188  0.00  0.00    +0.000 C 
ATOM      6  C   UNL     1      50.258   5.910  17.948  0.00  0.00    +0.000 C 
ATOM      7  N   UNL     1      49.536   5.772  16.676  0.00  0.00    +0.000 N 
ATOM      8  C   UNL     1      49.077   6.929  16.062  0.00  0.00    +0.000 A 
ATOM      9  C   UNL     1      48.972   6.958  14.667  0.00  0.00    +0.000 A 
ATOM     10  C   UNL     1      48.482   8.099  14.010  0.00  0.00    +0.000 A 
ATOM     11  C   UNL     1      48.050   9.146  14.816  0.00  0.00    +0.000 A 
ATOM     12  C   UNL     1      48.244   9.074  16.180  0.00  0.00    +0.000 A 
ATOM     13  N   UNL     1      48.764   8.003  16.808  0.00  0.00    +0.000 NA
ATOM     14  C   UNL     1      48.651   4.604  16.558  0.00  0.00    +0.000 C 
ATOM     15  C   UNL     1      47.874   4.299  17.856  0.00  0.00    +0.000 C 
ATOM     16  C   UNL     1      47.212   2.929  17.748  0.00  0.00    +0.000 C 
ATOM     17  O   UNL     1      48.739   4.270  19.001  0.00  0.00    +0.000 OA
ENDBRANCH   1  10
BRANCH   1  18
ATOM     18  N   UNL     1      47.055   8.250  11.982  0.00  0.00    +0.000 N 
ATOM     19  H   UNL     1      46.782   9.070  11.454  0.00  0.00    +0.000 HD
BRANCH  18  20
ATOM     20  C   UNL     1      46.172   7.173  11.927  0.00  0.00    +0.000 A 
ATOM     21  C   UNL     1      46.238   6.263  10.860  0.00  0.00    +0.000 A 
ATOM     22  C   UNL     1      45.400   5.144  10.846  0.00  0.00    +0.000 A 
ATOM     23  C   UNL     1      44.508   4.987  11.893  0.00  0.00    +0.000 A 
ATOM     24  N   UNL     1      44.386   5.859  12.932  0.00  0.00    +0.000 NA
ATOM     25  C   UNL     1      45.224   6.918  12.914  0.00  0.00    +0.000 A 
BRANCH  23  26
ATOM     26  C   UNL     1      43.597   3.804  11.966  0.00  0.00    +0.000 C 
ATOM     27  N   UNL     1      43.604   3.168  13.176  0.00  0.00    +0.000 N 
ATOM     28  O   UNL     1      42.905   3.438  11.027  0.00  0.00    +0.000 OA
ATOM     29  H   UNL     1      44.208   3.522  13.915  0.00  0.00    +0.000 HD
ATOM     30  H   UNL     1      43.030   2.353  13.328  0.00  0.00    +0.000 HD
ENDBRANCH  23  26
ENDBRANCH  18  20
ENDBRANCH   1  18
TORSDOF 4
ENDMDL
MODEL 7
REMARK VINA RESULT:    -5.601      3.074      5.347
REMARK INTER + INTRA:          -7.682
REMARK INTER:                  -7.473
REMARK INTRA:                  -0.209
REMARK UNBOUND:                -0.771
REMARK  Name = 
REMARK  6 active torsions:
REMARK  status: ('A' for Active; 'I' for Inactive)
REMARK    1  A    between atoms: C_1  and  C_2
REMARK    2  A    between atoms: C_7  and  C_8
REMARK    3  A    between atoms: C_8  and  N_9
REMARK    4  A    between atoms: N_9  and  C_10
REMARK    5  A    between atoms: C_13  and  C_14
REMARK    6  A    between atoms: C_25  and  C_26
REMARK                            x       y       z     vdW  Elec       q    Type
REMARK                         _______ _______ _______ _____ _____    ______ ____
ROOT
ATOM      1  C   UNL     1      47.717   7.983  13.092  0.00  0.00    +0.000 C 
ATOM      2  C   UNL     1      47.042   8.958  12.139  0.00  0.00    +0.000 C 
ATOM      3  C   UNL     1      46.871   9.157  13.601  0.00  0.00    +0.000 C 
ENDROOT
BRANCH   1  10
ATOM      4  C   UNL     1      55.041   7.892  12.309  0.00  0.00    +0.000 C 
ATOM      5  C   UNL     1      54.666   8.513  10.967  0.00  0.00    +0.000 C 
ATOM      6  C   UNL     1      53.385   9.368  11.003  0.00  0.00    +0.000 C 
ATOM      7  N   UNL     1      52.141   8.590  10.914  0.00  0.00    +0.000 N 
ATOM      8  C   UNL     1      51.402   8.413  12.076  0.00  0.00    +0.000 A 
ATOM      9  C   UNL     1      50.014   8.270  11.979  0.00  0.00    +0.000 A 
ATOM     10  C   UNL     1      49.234   8.057  13.129  0.00  0.00    +0.000 A 
ATOM     11  C   UNL     1      49.919   7.928  14.331  0.00  0.00    +0.000 A 
ATOM     12  C   UNL     1      51.282   8.146  14.361  0.00  0.00    +0.000 A 
ATOM     13  N   UNL     1      52.024   8.403  13.268  0.00  0.00    +0.000 NA
ATOM     14  C   UNL     1      52.162   7.438  10.001  0.00  0.00    +0.000 C 
ATOM     15  C   UNL     1      53.491   6.655  10.044  0.00  0.00    +0.000 C 
ATOM     16  C   UNL     1      53.544   5.670   8.881  0.00  0.00    +0.000 C 
ATOM     17  O   UNL     1      54.627   7.525   9.922  0.00  0.00    +0.000 OA
ENDBRANCH   1  10
BRANCH   1  18
ATOM     18  N   UNL     1      47.204   6.711  13.615  0.00  0.00    +0.000 N 
ATOM     19  H   UNL     1      47.297   6.555  14.611  0.00  0.00    +0.000 HD
BRANCH  18  20
ATOM     20  C   UNL     1      46.382   5.815  12.935  0.00  0.00    +0.000 A 
ATOM     21  C   UNL     1      46.156   5.971  11.559  0.00  0.00    +0.000 A 
ATOM     22  C   UNL     1      45.391   5.028  10.867  0.00  0.00    +0.000 A 
ATOM     23  C   UNL     1      44.861   3.969  11.583  0.00  0.00    +0.000 A 
ATOM     24  N   UNL     1      45.025   3.793  12.923  0.00  0.00    +0.000 NA
ATOM     25  C   UNL     1      45.783   4.718  13.550  0.00  0.00    +0.000 A 
BRANCH  23  26
ATOM     26  C   UNL     1      44.054   2.904  10.912  0.00  0.00    +0.000 C 
ATOM     27  N   UNL     1      43.356   2.106  11.775  0.00  0.00    +0.000 N 
ATOM     28  O   UNL     1      44.020   2.760   9.699  0.00  0.00    +0.000 OA
ATOM     29  H   UNL     1      43.433   2.278  12.775  0.00  0.00    +0.000 HD
ATOM     30  H   UNL     1      42.786   1.351  11.425  0.00  0.00    +0.000 HD
ENDBRANCH  23  26
ENDBRANCH  18  20
ENDBRANCH   1  18
TORSDOF 4
ENDMDL
