MODEL 1
REMARK VINA RESULT:    -8.962      0.000      0.000
REMARK INTER + INTRA:         -11.076
REMARK INTER:                 -10.533
REMARK INTRA:                  -0.543
REMARK UNBOUND:                -0.543
REMARK  Name = 
REMARK  3 active torsions:
REMARK  status: ('A' for Active; 'I' for Inactive)
REMARK    1  A    between atoms: C_2  and  C_4
REMARK    2  A    between atoms: N_8  and  C_9
REMARK    3  A    between atoms: C_9  and  C_10
REMARK                            x       y       z     vdW  Elec       q    Type
REMARK                         _______ _______ _______ _____ _____    ______ ____
ROOT
ATOM      1  C   UNL     1      46.536   2.680   7.494  0.00  0.00    +0.000 A 
ATOM      2  C   UNL     1      46.178   4.019   7.615  0.00  0.00    +0.000 A 
ATOM      3  C   UNL     1      45.319   4.408   8.646  0.00  0.00    +0.000 A 
ATOM      4  C   UNL     1      44.824   3.454   9.527  0.00  0.00    +0.000 A 
ATOM      5  N   UNL     1      43.900   3.748  10.534  0.00  0.00    +0.000 N 
ATOM      6  N   UNL     1      45.145   2.148   9.404  0.00  0.00    +0.000 NA
ATOM      7  C   UNL     1      45.986   1.785   8.397  0.00  0.00    +0.000 A 
ATOM      8  H   UNL     1      43.741   2.871  11.028  0.00  0.00    +0.000 HD
ENDROOT
BRANCH   1  10
ATOM      9  N   UNL     1      47.714   3.028   5.399  0.00  0.00    +0.000 N 
ATOM     10  C   UNL     1      47.442   2.180   6.440  0.00  0.00    +0.000 C 
ATOM     11  O   UNL     1      47.955   1.073   6.504  0.00  0.00    +0.000 OA
ATOM     12  H   UNL     1      48.408   2.717   4.731  0.00  0.00    +0.000 HD
ATOM     13  H   UNL     1      47.509   4.016   5.430  0.00  0.00    +0.000 HD
ENDBRANCH   1  10
BRANCH   5  14
ATOM     14  C   UNL     1      43.913   4.969  11.356  0.00  0.00    +0.000 C 
ATOM     15  C   UNL     1      42.633   5.200  12.156  0.00  0.00    +0.000 C 
ATOM     16  C   UNL     1      43.018   6.168  11.089  0.00  0.00    +0.000 C 
BRANCH  14  17
ATOM     17  C   UNL     1      45.245   5.257  12.048  0.00  0.00    +0.000 A 
ATOM     18  C   UNL     1      46.101   6.271  11.582  0.00  0.00    +0.000 A 
ATOM     19  C   UNL     1      47.274   6.599  12.263  0.00  0.00    +0.000 A 
ATOM     20 CL   UNL     1      48.264   7.884  11.681  0.00  0.00    +0.000 Cl
ATOM     21  C   UNL     1      47.639   5.921  13.420  0.00  0.00    +0.000 A 
ATOM     22  C   UNL     1      46.821   4.893  13.879  0.00  0.00    +0.000 A 
ATOM     23 CL   UNL     1      47.242   4.053  15.322  0.00  0.00    +0.000 Cl
ATOM     24  C   UNL     1      45.648   4.558  13.203  0.00  0.00    +0.000 A 
ENDBRANCH  14  17
ENDBRANCH   5  14
TORSDOF 3
ENDMDL
MODEL 2
REMARK VINA RESULT:    -8.835      0.161      1.967
REMARK INTER + INTRA:         -10.928
REMARK INTER:                 -10.298
REMARK INTRA:                  -0.630
REMARK UNBOUND:                -0.543
REMARK  Name = 
REMARK  3 active torsions:
REMARK  status: ('A' for Active; 'I' for Inactive)
REMARK    1  A    between atoms: C_2  and  C_4
REMARK    2  A    between atoms: N_8  and  C_9
REMARK    3  A    between atoms: C_9  and  C_10
REMARK                            x       y       z     vdW  Elec       q    Type
REMARK                         _______ _______ _______ _____ _____    ______ ____
ROOT
ATOM      1  C   UNL     1      46.511   2.671   7.520  0.00  0.00    +0.000 A 
ATOM      2  C   UNL     1      46.142   4.008   7.625  0.00  0.00    +0.000 A 
ATOM      3  C   UNL     1      45.269   4.399   8.645  0.00  0.00    +0.000 A 
ATOM      4  C   UNL     1      44.774   3.449   9.530  0.00  0.00    +0.000 A 
ATOM      5  N   UNL     1      43.838   3.744  10.525  0.00  0.00    +0.000 N 
ATOM      6  N   UNL     1      45.108   2.144   9.422  0.00  0.00    +0.000 NA
ATOM      7  C   UNL     1      45.960   1.780   8.426  0.00  0.00    +0.000 A 
ATOM      8  H   UNL     1      43.682   2.871  11.026  0.00  0.00    +0.000 HD
ENDROOT
BRANCH   1  10
ATOM      9  N   UNL     1      47.743   3.027   5.458  0.00  0.00    +0.000 N 
ATOM     10  C   UNL     1      47.432   2.169   6.479  0.00  0.00    +0.000 C 
ATOM     11  O   UNL     1      47.921   1.052   6.538  0.00  0.00    +0.000 OA
ATOM     12  H   UNL     1      48.446   2.712   4.800  0.00  0.00    +0.000 HD
ATOM     13  H   UNL     1      47.556   4.018   5.498  0.00  0.00    +0.000 HD
ENDBRANCH   1  10
BRANCH   5  14
ATOM     14  C   UNL     1      43.833   4.973  11.337  0.00  0.00    +0.000 C 
ATOM     15  C   UNL     1      42.528   5.222  12.088  0.00  0.00    +0.000 C 
ATOM     16  C   UNL     1      42.960   6.177  11.027  0.00  0.00    +0.000 C 
BRANCH  14  17
ATOM     17  C   UNL     1      45.142   5.255  12.073  0.00  0.00    +0.000 A 
ATOM     18  C   UNL     1      45.550   4.461  13.160  0.00  0.00    +0.000 A 
ATOM     19  C   UNL     1      46.785   4.657  13.778  0.00  0.00    +0.000 A 
ATOM     20 CL   UNL     1      47.262   3.625  15.073  0.00  0.00    +0.000 Cl
ATOM     21  C   UNL     1      47.648   5.657  13.344  0.00  0.00    +0.000 A 
ATOM     22  C   UNL     1      47.249   6.473  12.290  0.00  0.00    +0.000 A 
ATOM     23 CL   UNL     1      48.310   7.704  11.722  0.00  0.00    +0.000 Cl
ATOM     24  C   UNL     1      46.014   6.285  11.670  0.00  0.00    +0.000 A 
ENDBRANCH  14  17
ENDBRANCH   5  14
TORSDOF 3
ENDMDL
MODEL 3
REMARK VINA RESULT:    -6.193      1.688      2.210
REMARK INTER + INTRA:          -7.822
REMARK INTER:                  -8.269
REMARK INTRA:                   0.447
REMARK UNBOUND:                -0.543
REMARK  Name = 
REMARK  3 active torsions:
REMARK  status: ('A' for Active; 'I' for Inactive)
REMARK    1  A    between atoms: C_2  and  C_4
REMARK    2  A    between atoms: N_8  and  C_9
REMARK    3  A    between atoms: C_9  and  C_10
REMARK                            x       y       z     vdW  Elec       q    Type
REMARK                         _______ _______ _______ _____ _____    ______ ____
ROOT
ATOM      1  C   UNL     1      46.360   3.517   7.187  0.00  0.00    +0.000 A 
ATOM      2  C   UNL     1      46.774   4.513   8.065  0.00  0.00    +0.000 A 
ATOM      3  C   UNL     1      45.911   4.930   9.082  0.00  0.00    +0.000 A 
ATOM      4  C   UNL     1      44.651   4.357   9.196  0.00  0.00    +0.000 A 
ATOM      5  N   UNL     1      43.701   4.773  10.133  0.00  0.00    +0.000 N 
ATOM      6  N   UNL     1      44.230   3.406   8.333  0.00  0.00    +0.000 NA
ATOM      7  C   UNL     1      45.082   3.008   7.350  0.00  0.00    +0.000 A 
ATOM      8  H   UNL     1      42.894   4.165   9.999  0.00  0.00    +0.000 HD
ENDROOT
BRANCH   1  10
ATOM      9  N   UNL     1      48.476   2.611   6.412  0.00  0.00    +0.000 N 
ATOM     10  C   UNL     1      47.207   3.009   6.087  0.00  0.00    +0.000 C 
ATOM     11  O   UNL     1      46.789   2.917   4.944  0.00  0.00    +0.000 OA
ATOM     12  H   UNL     1      49.018   2.178   5.675  0.00  0.00    +0.000 HD
ATOM     13  H   UNL     1      48.773   2.448   7.364  0.00  0.00    +0.000 HD
ENDBRANCH   1  10
BRANCH   5  14
ATOM     14  C   UNL     1      44.004   5.160  11.521  0.00  0.00    +0.000 C 
ATOM     15  C   UNL     1      44.175   3.982  12.477  0.00  0.00    +0.000 C 
ATOM     16  C   UNL     1      43.047   4.936  12.680  0.00  0.00    +0.000 C 
BRANCH  14  17
ATOM     17  C   UNL     1      44.973   6.333  11.658  0.00  0.00    +0.000 A 
ATOM     18  C   UNL     1      44.528   7.662  11.537  0.00  0.00    +0.000 A 
ATOM     19  C   UNL     1      45.390   8.738  11.751  0.00  0.00    +0.000 A 
ATOM     20 CL   UNL     1      44.784  10.348  11.642  0.00  0.00    +0.000 Cl
ATOM     21  C   UNL     1      46.724   8.528  12.079  0.00  0.00    +0.000 A 
ATOM     22  C   UNL     1      47.191   7.220  12.173  0.00  0.00    +0.000 A 
ATOM     23 CL   UNL     1      48.835   6.935  12.598  0.00  0.00    +0.000 Cl
ATOM     24  C   UNL     1      46.336   6.140  11.958  0.00  0.00    +0.000 A 
ENDBRANCH  14  17
ENDBRANCH   5  14
TORSDOF 3
ENDMDL
