MODEL 1
REMARK VINA RESULT:    -7.965      0.000      0.000
REMARK INTER + INTRA:         -11.929
REMARK INTER:                 -10.759
REMARK INTRA:                  -1.170
REMARK UNBOUND:                -1.170
REMARK  Name = 
REMARK  6 active torsions:
REMARK  status: ('A' for Active; 'I' for Inactive)
REMARK    1  A    between atoms: C_2  and  C_18
REMARK    2  A    between atoms: N_3  and  C_4
REMARK    3  A    between atoms: C_4  and  C_5
REMARK    4  A    between atoms: C_8  and  C_9
REMARK    5  A    between atoms: C_9  and  N_10
REMARK    6  A    between atoms: N_10  and  C_11
REMARK                            x       y       z     vdW  Elec       q    Type
REMARK                         _______ _______ _______ _____ _____    ______ ____
ROOT
ATOM      1  C   UNL     1      46.839   7.760  13.268  0.00  0.00    +0.000 C 
ENDROOT
BRANCH   1   2
ATOM      2  C   UNL     1      46.130   6.768  12.386  0.00  0.00    +0.000 A 
ATOM      3  C   UNL     1      45.199   5.873  12.929  0.00  0.00    +0.000 A 
ATOM      4  C   UNL     1      44.540   4.949  12.113  0.00  0.00    +0.000 A 
ATOM      5  C   UNL     1      44.809   4.891  10.738  0.00  0.00    +0.000 A 
ATOM      6  C   UNL     1      45.760   5.771  10.201  0.00  0.00    +0.000 A 
ATOM      7  C   UNL     1      46.418   6.694  11.017  0.00  0.00    +0.000 A 
BRANCH   5   8
ATOM      8  C   UNL     1      44.132   3.867   9.855  0.00  0.00    +0.000 C 
BRANCH   8   9
ATOM      9  N   UNL     1      44.250   4.193   8.436  0.00  0.00    +0.000 NA
ATOM     10  H   UNL     1      44.703   5.098   8.328  0.00  0.00    +0.000 HD
BRANCH   9  11
ATOM     11  C   UNL     1      45.026   3.223   7.713  0.00  0.00    +0.000 C 
ATOM     12  C   UNL     1      45.629   2.082   8.524  0.00  0.00    +0.000 C 
ATOM     13  C   UNL     1      46.782   1.638   7.643  0.00  0.00    +0.000 C 
ATOM     14  C   UNL     1      47.217   2.915   6.935  0.00  0.00    +0.000 C 
ATOM     15  N   UNL     1      46.210   3.925   7.263  0.00  0.00    +0.000 NA
ATOM     16  H   UNL     1      45.977   4.500   6.457  0.00  0.00    +0.000 HD
ENDBRANCH   9  11
ENDBRANCH   8   9
ENDBRANCH   5   8
ENDBRANCH   1   2
BRANCH   1  19
ATOM     17  O   UNL     1      49.387   6.620  13.632  0.00  0.00    +0.000 OA
ATOM     18  C   UNL     1      48.610   6.655  14.581  0.00  0.00    +0.000 C 
ATOM     19  N   UNL     1      47.328   7.128  14.467  0.00  0.00    +0.000 N 
ATOM     20  H   UNL     1      46.793   7.308  15.308  0.00  0.00    +0.000 HD
BRANCH  18  21
ATOM     21  C   UNL     1      48.990   6.135  15.900  0.00  0.00    +0.000 A 
ATOM     22  C   UNL     1      49.993   6.765  16.626  0.00  0.00    +0.000 A 
ATOM     23  S   UNL     1      50.320   6.023  18.127  0.00  0.00    +0.000 S 
ATOM     24  C   UNL     1      49.104   4.860  17.880  0.00  0.00    +0.000 A 
ATOM     25  N   UNL     1      48.837   3.916  18.823  0.00  0.00    +0.000 NA
ATOM     26  C   UNL     1      47.860   3.124  18.526  0.00  0.00    +0.000 A 
ATOM     27  N   UNL     1      47.135   3.183  17.364  0.00  0.00    +0.000 N 
ATOM     28  C   UNL     1      47.418   4.069  16.353  0.00  0.00    +0.000 A 
ATOM     29  O   UNL     1      46.834   4.003  15.276  0.00  0.00    +0.000 OA
ATOM     30  C   UNL     1      48.474   5.017  16.658  0.00  0.00    +0.000 A 
ATOM     31  H   UNL     1      46.404   2.513  17.177  0.00  0.00    +0.000 HD
ENDBRANCH  18  21
ENDBRANCH   1  19
TORSDOF 6
ENDMDL
MODEL 2
REMARK VINA RESULT:    -7.590      1.521      1.908
REMARK INTER + INTRA:         -11.422
REMARK INTER:                 -10.577
REMARK INTRA:                  -0.845
REMARK UNBOUND:                -1.170
REMARK  Name = 
REMARK  6 active torsions:
REMARK  status: ('A' for Active; 'I' for Inactive)
REMARK    1  A    between atoms: C_2  and  C_18
REMARK    2  A    between atoms: N_3  and  C_4
REMARK    3  A    between atoms: C_4  and  C_5
REMARK    4  A    between atoms: C_8  and  C_9
REMARK    5  A    between atoms: C_9  and  N_10
REMARK    6  A    between atoms: N_10  and  C_11
REMARK                            x       y       z     vdW  Elec       q    Type
REMARK                         _______ _______ _______ _____ _____    ______ ____
ROOT
ATOM      1  C   UNL     1      48.161   7.119  13.462  0.00  0.00    +0.000 C 
ENDROOT
BRANCH   1   2
ATOM      2  C   UNL     1      47.120   6.313  12.731  0.00  0.00    +0.000 A 
ATOM      3  C   UNL     1      46.647   6.731  11.481  0.00  0.00    +0.000 A 
ATOM      4  C   UNL     1      45.679   5.986  10.801  0.00  0.00    +0.000 A 
ATOM      5  C   UNL     1      45.153   4.816  11.365  0.00  0.00    +0.000 A 
ATOM      6  C   UNL     1      45.609   4.413  12.628  0.00  0.00    +0.000 A 
ATOM      7  C   UNL     1      46.577   5.158  13.307  0.00  0.00    +0.000 A 
BRANCH   5   8
ATOM      8  C   UNL     1      44.076   4.026  10.655  0.00  0.00    +0.000 C 
BRANCH   8   9
ATOM      9  N   UNL     1      43.962   4.383   9.245  0.00  0.00    +0.000 NA
ATOM     10  H   UNL     1      44.404   5.285   9.082  0.00  0.00    +0.000 HD
BRANCH   9  11
ATOM     11  C   UNL     1      44.597   3.422   8.383  0.00  0.00    +0.000 C 
ATOM     12  C   UNL     1      45.272   2.235   9.058  0.00  0.00    +0.000 C 
ATOM     13  C   UNL     1      46.274   1.796   8.005  0.00  0.00    +0.000 C 
ATOM     14  C   UNL     1      46.644   3.088   7.288  0.00  0.00    +0.000 C 
ATOM     15  N   UNL     1      45.726   4.110   7.793  0.00  0.00    +0.000 NA
ATOM     16  H   UNL     1      45.399   4.723   7.050  0.00  0.00    +0.000 HD
ENDBRANCH   9  11
ENDBRANCH   8   9
ENDBRANCH   5   8
ENDBRANCH   1   2
BRANCH   1  19
ATOM     17  O   UNL     1      50.205   6.625  15.332  0.00  0.00    +0.000 OA
ATOM     18  C   UNL     1      49.064   6.821  15.736  0.00  0.00    +0.000 C 
ATOM     19  N   UNL     1      48.001   6.998  14.888  0.00  0.00    +0.000 N 
ATOM     20  H   UNL     1      47.123   7.337  15.263  0.00  0.00    +0.000 HD
BRANCH  18  21
ATOM     21  C   UNL     1      48.750   6.821  17.171  0.00  0.00    +0.000 A 
ATOM     22  C   UNL     1      48.297   7.987  17.776  0.00  0.00    +0.000 A 
ATOM     23  S   UNL     1      47.996   7.818  19.446  0.00  0.00    +0.000 S 
ATOM     24  C   UNL     1      48.416   6.171  19.413  0.00  0.00    +0.000 A 
ATOM     25  N   UNL     1      48.348   5.409  20.537  0.00  0.00    +0.000 NA
ATOM     26  C   UNL     1      48.653   4.165  20.360  0.00  0.00    +0.000 A 
ATOM     27  N   UNL     1      49.032   3.619  19.162  0.00  0.00    +0.000 N 
ATOM     28  C   UNL     1      49.188   4.365  18.018  0.00  0.00    +0.000 A 
ATOM     29  O   UNL     1      49.657   3.867  17.001  0.00  0.00    +0.000 OA
ATOM     30  C   UNL     1      48.808   5.759  18.150  0.00  0.00    +0.000 A 
ATOM     31  H   UNL     1      49.290   2.646  19.096  0.00  0.00    +0.000 HD
ENDBRANCH  18  21
ENDBRANCH   1  19
TORSDOF 6
ENDMDL
MODEL 3
REMARK VINA RESULT:    -7.582      2.070      2.465
REMARK INTER + INTRA:         -11.412
REMARK INTER:                 -10.549
REMARK INTRA:                  -0.863
REMARK UNBOUND:                -1.170
REMARK  Name = 
REMARK  6 active torsions:
REMARK  status: ('A' for Active; 'I' for Inactive)
REMARK    1  A    between atoms: C_2  and  C_18
REMARK    2  A    between atoms: N_3  and  C_4
REMARK    3  A    between atoms: C_4  and  C_5
REMARK    4  A    between atoms: C_8  and  C_9
REMARK    5  A    between atoms: C_9  and  N_10
REMARK    6  A    between atoms: N_10  and  C_11
REMARK                            x       y       z     vdW  Elec       q    Type
REMARK                         _______ _______ _______ _____ _____    ______ ____
ROOT
ATOM      1  C   UNL     1      47.964   6.719  13.673  0.00  0.00    +0.000 C 
ENDROOT
BRANCH   1   2
ATOM      2  C   UNL     1      46.936   6.034  12.812  0.00  0.00    +0.000 A 
ATOM      3  C   UNL     1      46.381   4.812  13.207  0.00  0.00    +0.000 A 
ATOM      4  C   UNL     1      45.428   4.171  12.409  0.00  0.00    +0.000 A 
ATOM      5  C   UNL     1      45.022   4.734  11.192  0.00  0.00    +0.000 A 
ATOM      6  C   UNL     1      45.598   5.947  10.786  0.00  0.00    +0.000 A 
ATOM      7  C   UNL     1      46.550   6.586  11.584  0.00  0.00    +0.000 A 
BRANCH   5   8
ATOM      8  C   UNL     1      44.023   4.029  10.302  0.00  0.00    +0.000 C 
BRANCH   8   9
ATOM      9  N   UNL     1      44.125   4.450   8.908  0.00  0.00    +0.000 NA
ATOM     10  H   UNL     1      44.646   5.322   8.850  0.00  0.00    +0.000 HD
BRANCH   9  11
ATOM     11  C   UNL     1      44.802   3.479   8.091  0.00  0.00    +0.000 C 
ATOM     12  C   UNL     1      45.350   2.247   8.799  0.00  0.00    +0.000 C 
ATOM     13  C   UNL     1      46.434   1.784   7.844  0.00  0.00    +0.000 C 
ATOM     14  C   UNL     1      46.935   3.073   7.203  0.00  0.00    +0.000 C 
ATOM     15  N   UNL     1      46.017   4.126   7.639  0.00  0.00    +0.000 NA
ATOM     16  H   UNL     1      45.796   4.770   6.883  0.00  0.00    +0.000 HD
ENDBRANCH   9  11
ENDBRANCH   8   9
ENDBRANCH   5   8
ENDBRANCH   1   2
BRANCH   1  19
ATOM     17  O   UNL     1      50.102   6.625  15.501  0.00  0.00    +0.000 OA
ATOM     18  C   UNL     1      48.984   6.288  15.876  0.00  0.00    +0.000 C 
ATOM     19  N   UNL     1      47.906   6.238  15.028  0.00  0.00    +0.000 N 
ATOM     20  H   UNL     1      46.977   6.135  15.420  0.00  0.00    +0.000 HD
BRANCH  18  21
ATOM     21  C   UNL     1      48.737   5.857  17.257  0.00  0.00    +0.000 A 
ATOM     22  C   UNL     1      48.949   4.531  17.613  0.00  0.00    +0.000 A 
ATOM     23  S   UNL     1      48.600   4.197  19.248  0.00  0.00    +0.000 S 
ATOM     24  C   UNL     1      48.194   5.821  19.552  0.00  0.00    +0.000 A 
ATOM     25  N   UNL     1      47.824   6.228  20.795  0.00  0.00    +0.000 NA
ATOM     26  C   UNL     1      47.586   7.495  20.894  0.00  0.00    +0.000 A 
ATOM     27  N   UNL     1      47.675   8.388  19.858  0.00  0.00    +0.000 N 
ATOM     28  C   UNL     1      47.972   8.009  18.571  0.00  0.00    +0.000 A 
ATOM     29  O   UNL     1      47.910   8.814  17.648  0.00  0.00    +0.000 OA
ATOM     30  C   UNL     1      48.298   6.604  18.415  0.00  0.00    +0.000 A 
ATOM     31  H   UNL     1      47.444   9.361  19.994  0.00  0.00    +0.000 HD
ENDBRANCH  18  21
ENDBRANCH   1  19
TORSDOF 6
ENDMDL
MODEL 4
REMARK VINA RESULT:    -7.471      2.080      3.686
REMARK INTER + INTRA:         -11.262
REMARK INTER:                 -10.254
REMARK INTRA:                  -1.007
REMARK UNBOUND:                -1.170
REMARK  Name = 
REMARK  6 active torsions:
REMARK  status: ('A' for Active; 'I' for Inactive)
REMARK    1  A    between atoms: C_2  and  C_18
REMARK    2  A    between atoms: N_3  and  C_4
REMARK    3  A    between atoms: C_4  and  C_5
REMARK    4  A    between atoms: C_8  and  C_9
REMARK    5  A    between atoms: C_9  and  N_10
REMARK    6  A    between atoms: N_10  and  C_11
REMARK                            x       y       z     vdW  Elec       q    Type
REMARK                         _______ _______ _______ _____ _____    ______ ____
ROOT
ATOM      1  C   UNL     1      46.437   4.558  14.468  0.00  0.00    +0.000 C 
ENDROOT
BRANCH   1   2
ATOM      2  C   UNL     1      45.945   4.491  13.047  0.00  0.00    +0.000 A 
ATOM      3  C   UNL     1      45.385   3.311  12.545  0.00  0.00    +0.000 A 
ATOM      4  C   UNL     1      44.929   3.244  11.225  0.00  0.00    +0.000 A 
ATOM      5  C   UNL     1      45.038   4.353  10.375  0.00  0.00    +0.000 A 
ATOM      6  C   UNL     1      45.622   5.526  10.873  0.00  0.00    +0.000 A 
ATOM      7  C   UNL     1      46.078   5.592  12.192  0.00  0.00    +0.000 A 
BRANCH   5   8
ATOM      8  C   UNL     1      44.586   4.278   8.934  0.00  0.00    +0.000 C 
BRANCH   8   9
ATOM      9  N   UNL     1      45.682   4.496   7.996  0.00  0.00    +0.000 NA
ATOM     10  H   UNL     1      46.503   4.828   8.497  0.00  0.00    +0.000 HD
BRANCH   9  11
ATOM     11  C   UNL     1      46.051   3.295   7.295  0.00  0.00    +0.000 C 
ATOM     12  C   UNL     1      46.147   2.019   8.121  0.00  0.00    +0.000 C 
ATOM     13  C   UNL     1      47.069   1.159   7.277  0.00  0.00    +0.000 C 
ATOM     14  C   UNL     1      47.982   2.166   6.587  0.00  0.00    +0.000 C 
ATOM     15  N   UNL     1      47.427   3.487   6.885  0.00  0.00    +0.000 NA
ATOM     16  H   UNL     1      47.456   4.100   6.074  0.00  0.00    +0.000 HD
ENDBRANCH   9  11
ENDBRANCH   8   9
ENDBRANCH   5   8
ENDBRANCH   1   2
BRANCH   1  19
ATOM     17  O   UNL     1      48.596   4.864  16.249  0.00  0.00    +0.000 OA
ATOM     18  C   UNL     1      48.272   5.810  15.539  0.00  0.00    +0.000 C 
ATOM     19  N   UNL     1      47.189   5.765  14.698  0.00  0.00    +0.000 N 
ATOM     20  H   UNL     1      47.074   6.494  14.004  0.00  0.00    +0.000 HD
BRANCH  18  21
ATOM     21  C   UNL     1      48.997   7.086  15.586  0.00  0.00    +0.000 A 
ATOM     22  C   UNL     1      49.136   7.754  16.796  0.00  0.00    +0.000 A 
ATOM     23  S   UNL     1      49.990   9.225  16.671  0.00  0.00    +0.000 S 
ATOM     24  C   UNL     1      50.243   9.001  15.004  0.00  0.00    +0.000 A 
ATOM     25  N   UNL     1      50.949   9.908  14.276  0.00  0.00    +0.000 NA
ATOM     26  C   UNL     1      51.103   9.591  13.032  0.00  0.00    +0.000 A 
ATOM     27  N   UNL     1      50.604   8.455  12.450  0.00  0.00    +0.000 N 
ATOM     28  C   UNL     1      49.823   7.551  13.127  0.00  0.00    +0.000 A 
ATOM     29  O   UNL     1      49.285   6.619  12.540  0.00  0.00    +0.000 OA
ATOM     30  C   UNL     1      49.662   7.833  14.542  0.00  0.00    +0.000 A 
ATOM     31  H   UNL     1      50.732   8.282  11.464  0.00  0.00    +0.000 HD
ENDBRANCH  18  21
ENDBRANCH   1  19
TORSDOF 6
ENDMDL
MODEL 5
REMARK VINA RESULT:    -7.114      2.484      4.191
REMARK INTER + INTRA:         -10.779
REMARK INTER:                  -9.714
REMARK INTRA:                  -1.065
REMARK UNBOUND:                -1.170
REMARK  Name = 
REMARK  6 active torsions:
REMARK  status: ('A' for Active; 'I' for Inactive)
REMARK    1  A    between atoms: C_2  and  C_18
REMARK    2  A    between atoms: N_3  and  C_4
REMARK    3  A    between atoms: C_4  and  C_5
REMARK    4  A    between atoms: C_8  and  C_9
REMARK    5  A    between atoms: C_9  and  N_10
REMARK    6  A    between atoms: N_10  and  C_11
REMARK                            x       y       z     vdW  Elec       q    Type
REMARK                         _______ _______ _______ _____ _____    ______ ____
ROOT
ATOM      1  C   UNL     1      47.094   5.158  14.604  0.00  0.00    +0.000 C 
ENDROOT
BRANCH   1   2
ATOM      2  C   UNL     1      46.385   4.886  13.304  0.00  0.00    +0.000 A 
ATOM      3  C   UNL     1      46.127   5.928  12.405  0.00  0.00    +0.000 A 
ATOM      4  C   UNL     1      45.466   5.680  11.198  0.00  0.00    +0.000 A 
ATOM      5  C   UNL     1      45.037   4.386  10.872  0.00  0.00    +0.000 A 
ATOM      6  C   UNL     1      45.275   3.349  11.785  0.00  0.00    +0.000 A 
ATOM      7  C   UNL     1      45.935   3.597  12.991  0.00  0.00    +0.000 A 
BRANCH   5   8
ATOM      8  C   UNL     1      44.286   4.115   9.588  0.00  0.00    +0.000 C 
BRANCH   8   9
ATOM      9  N   UNL     1      44.988   4.625   8.415  0.00  0.00    +0.000 NA
ATOM     10  H   UNL     1      45.748   5.236   8.708  0.00  0.00    +0.000 HD
BRANCH   9  11
ATOM     11  C   UNL     1      45.554   3.573   7.614  0.00  0.00    +0.000 C 
ATOM     12  C   UNL     1      45.897   2.273   8.330  0.00  0.00    +0.000 C 
ATOM     13  C   UNL     1      46.942   1.668   7.410  0.00  0.00    +0.000 C 
ATOM     14  C   UNL     1      47.641   2.877   6.801  0.00  0.00    +0.000 C 
ATOM     15  N   UNL     1      46.863   4.046   7.213  0.00  0.00    +0.000 NA
ATOM     16  H   UNL     1      46.763   4.718   6.456  0.00  0.00    +0.000 HD
ENDBRANCH   9  11
ENDBRANCH   8   9
ENDBRANCH   5   8
ENDBRANCH   1   2
BRANCH   1  19
ATOM     17  O   UNL     1      49.350   5.836  16.145  0.00  0.00    +0.000 OA
ATOM     18  C   UNL     1      48.958   6.620  15.286  0.00  0.00    +0.000 C 
ATOM     19  N   UNL     1      47.827   6.395  14.544  0.00  0.00    +0.000 N 
ATOM     20  H   UNL     1      47.650   6.972  13.730  0.00  0.00    +0.000 HD
BRANCH  18  21
ATOM     21  C   UNL     1      49.652   7.889  15.035  0.00  0.00    +0.000 A 
ATOM     22  C   UNL     1      49.978   8.718  16.102  0.00  0.00    +0.000 A 
ATOM     23  S   UNL     1      50.764  10.157  15.635  0.00  0.00    +0.000 S 
ATOM     24  C   UNL     1      50.737   9.706  13.995  0.00  0.00    +0.000 A 
ATOM     25  N   UNL     1      51.288  10.504  13.041  0.00  0.00    +0.000 NA
ATOM     26  C   UNL     1      51.237  10.020  11.844  0.00  0.00    +0.000 A 
ATOM     27  N   UNL     1      50.672   8.815  11.514  0.00  0.00    +0.000 N 
ATOM     28  C   UNL     1      50.038   8.013  12.432  0.00  0.00    +0.000 A 
ATOM     29  O   UNL     1      49.429   7.009  12.076  0.00  0.00    +0.000 OA
ATOM     30  C   UNL     1      50.112   8.486  13.801  0.00  0.00    +0.000 A 
ATOM     31  H   UNL     1      50.635   8.507  10.554  0.00  0.00    +0.000 HD
ENDBRANCH  18  21
ENDBRANCH   1  19
TORSDOF 6
ENDMDL
MODEL 6
REMARK VINA RESULT:    -6.724      1.548      2.048
REMARK INTER + INTRA:         -10.253
REMARK INTER:                  -9.323
REMARK INTRA:                  -0.930
REMARK UNBOUND:                -1.170
REMARK  Name = 
REMARK  6 active torsions:
REMARK  status: ('A' for Active; 'I' for Inactive)
REMARK    1  A    between atoms: C_2  and  C_18
REMARK    2  A    between atoms: N_3  and  C_4
REMARK    3  A    between atoms: C_4  and  C_5
REMARK    4  A    between atoms: C_8  and  C_9
REMARK    5  A    between atoms: C_9  and  N_10
REMARK    6  A    between atoms: N_10  and  C_11
REMARK                            x       y       z     vdW  Elec       q    Type
REMARK                         _______ _______ _______ _____ _____    ______ ____
ROOT
ATOM      1  C   UNL     1      47.148   7.986  13.513  0.00  0.00    +0.000 C 
ENDROOT
BRANCH   1   2
ATOM      2  C   UNL     1      46.479   6.902  12.710  0.00  0.00    +0.000 A 
ATOM      3  C   UNL     1      46.176   7.104  11.358  0.00  0.00    +0.000 A 
ATOM      4  C   UNL     1      45.553   6.100  10.611  0.00  0.00    +0.000 A 
ATOM      5  C   UNL     1      45.207   4.878  11.204  0.00  0.00    +0.000 A 
ATOM      6  C   UNL     1      45.489   4.688  12.565  0.00  0.00    +0.000 A 
ATOM      7  C   UNL     1      46.112   5.691  13.311  0.00  0.00    +0.000 A 
BRANCH   5   8
ATOM      8  C   UNL     1      44.496   3.802  10.415  0.00  0.00    +0.000 C 
BRANCH   8   9
ATOM      9  N   UNL     1      44.246   4.201   9.033  0.00  0.00    +0.000 NA
ATOM     10  H   UNL     1      44.549   5.162   8.892  0.00  0.00    +0.000 HD
BRANCH   9  11
ATOM     11  C   UNL     1      44.948   3.375   8.089  0.00  0.00    +0.000 C 
ATOM     12  C   UNL     1      45.669   2.154   8.646  0.00  0.00    +0.000 C 
ATOM     13  C   UNL     1      46.715   1.885   7.579  0.00  0.00    +0.000 C 
ATOM     14  C   UNL     1      47.034   3.267   7.020  0.00  0.00    +0.000 C 
ATOM     15  N   UNL     1      46.054   4.179   7.610  0.00  0.00    +0.000 NA
ATOM     16  H   UNL     1      45.711   4.854   6.931  0.00  0.00    +0.000 HD
ENDBRANCH   9  11
ENDBRANCH   8   9
ENDBRANCH   5   8
ENDBRANCH   1   2
BRANCH   1  19
ATOM     17  O   UNL     1      48.162   8.644  16.055  0.00  0.00    +0.000 OA
ATOM     18  C   UNL     1      48.772   7.837  15.361  0.00  0.00    +0.000 C 
ATOM     19  N   UNL     1      48.383   7.518  14.085  0.00  0.00    +0.000 N 
ATOM     20  H   UNL     1      48.805   6.718  13.627  0.00  0.00    +0.000 HD
BRANCH  18  21
ATOM     21  C   UNL     1      50.005   7.196  15.838  0.00  0.00    +0.000 A 
ATOM     22  C   UNL     1      51.239   7.706  15.452  0.00  0.00    +0.000 A 
ATOM     23  S   UNL     1      52.564   6.836  16.079  0.00  0.00    +0.000 S 
ATOM     24  C   UNL     1      51.539   5.774  16.924  0.00  0.00    +0.000 A 
ATOM     25  N   UNL     1      52.049   4.782  17.703  0.00  0.00    +0.000 NA
ATOM     26  C   UNL     1      51.159   4.077  18.322  0.00  0.00    +0.000 A 
ATOM     27  N   UNL     1      49.806   4.269  18.222  0.00  0.00    +0.000 N 
ATOM     28  C   UNL     1      49.245   5.207  17.390  0.00  0.00    +0.000 A 
ATOM     29  O   UNL     1      48.031   5.258  17.226  0.00  0.00    +0.000 OA
ATOM     30  C   UNL     1      50.202   6.061  16.710  0.00  0.00    +0.000 A 
ATOM     31  H   UNL     1      49.161   3.662  18.707  0.00  0.00    +0.000 HD
ENDBRANCH  18  21
ENDBRANCH   1  19
TORSDOF 6
ENDMDL
MODEL 7
REMARK VINA RESULT:    -6.693      1.979      2.807
REMARK INTER + INTRA:         -10.210
REMARK INTER:                  -8.830
REMARK INTRA:                  -1.381
REMARK UNBOUND:                -1.170
REMARK  Name = 
REMARK  6 active torsions:
REMARK  status: ('A' for Active; 'I' for Inactive)
REMARK    1  A    between atoms: C_2  and  C_18
REMARK    2  A    between atoms: N_3  and  C_4
REMARK    3  A    between atoms: C_4  and  C_5
REMARK    4  A    between atoms: C_8  and  C_9
REMARK    5  A    between atoms: C_9  and  N_10
REMARK    6  A    between atoms: N_10  and  C_11
REMARK                            x       y       z     vdW  Elec       q    Type
REMARK                         _______ _______ _______ _____ _____    ______ ____
ROOT
ATOM      1  C   UNL     1      49.155   8.140  13.669  0.00  0.00    +0.000 C 
ENDROOT
BRANCH   1   2
ATOM      2  C   UNL     1      47.817   7.924  13.013  0.00  0.00    +0.000 A 
ATOM      3  C   UNL     1      47.645   6.903  12.071  0.00  0.00    +0.000 A 
ATOM      4  C   UNL     1      46.405   6.701  11.458  0.00  0.00    +0.000 A 
ATOM      5  C   UNL     1      45.315   7.527  11.764  0.00  0.00    +0.000 A 
ATOM      6  C   UNL     1      45.496   8.565  12.689  0.00  0.00    +0.000 A 
ATOM      7  C   UNL     1      46.736   8.766  13.301  0.00  0.00    +0.000 A 
BRANCH   5   8
ATOM      8  C   UNL     1      43.981   7.343  11.076  0.00  0.00    +0.000 C 
BRANCH   8   9
ATOM      9  N   UNL     1      43.074   6.492  11.840  0.00  0.00    +0.000 NA
ATOM     10  H   UNL     1      42.135   6.883  11.818  0.00  0.00    +0.000 HD
BRANCH   9  11
ATOM     11  C   UNL     1      43.005   5.155  11.316  0.00  0.00    +0.000 C 
ATOM     12  C   UNL     1      43.862   4.101  12.006  0.00  0.00    +0.000 C 
ATOM     13  C   UNL     1      44.011   3.050  10.921  0.00  0.00    +0.000 C 
ATOM     14  C   UNL     1      43.975   3.850   9.625  0.00  0.00    +0.000 C 
ATOM     15  N   UNL     1      43.610   5.216  10.002  0.00  0.00    +0.000 NA
ATOM     16  H   UNL     1      42.950   5.626   9.345  0.00  0.00    +0.000 HD
ENDBRANCH   9  11
ENDBRANCH   8   9
ENDBRANCH   5   8
ENDBRANCH   1   2
BRANCH   1  19
ATOM     17  O   UNL     1      48.627   8.660  16.385  0.00  0.00    +0.000 OA
ATOM     18  C   UNL     1      49.001   7.539  16.055  0.00  0.00    +0.000 C 
ATOM     19  N   UNL     1      49.346   7.226  14.765  0.00  0.00    +0.000 N 
ATOM     20  H   UNL     1      49.468   6.253  14.510  0.00  0.00    +0.000 HD
BRANCH  18  21
ATOM     21  C   UNL     1      49.159   6.464  17.042  0.00  0.00    +0.000 A 
ATOM     22  C   UNL     1      49.993   6.652  18.138  0.00  0.00    +0.000 A 
ATOM     23  S   UNL     1      50.075   5.301  19.175  0.00  0.00    +0.000 S 
ATOM     24  C   UNL     1      48.966   4.431  18.223  0.00  0.00    +0.000 A 
ATOM     25  N   UNL     1      48.572   3.179  18.577  0.00  0.00    +0.000 NA
ATOM     26  C   UNL     1      47.694   2.652  17.789  0.00  0.00    +0.000 A 
ATOM     27  N   UNL     1      47.184   3.261  16.671  0.00  0.00    +0.000 N 
ATOM     28  C   UNL     1      47.609   4.492  16.234  0.00  0.00    +0.000 A 
ATOM     29  O   UNL     1      47.229   4.944  15.159  0.00  0.00    +0.000 OA
ATOM     30  C   UNL     1      48.558   5.150  17.112  0.00  0.00    +0.000 A 
ATOM     31  H   UNL     1      46.524   2.781  16.078  0.00  0.00    +0.000 HD
ENDBRANCH  18  21
ENDBRANCH   1  19
TORSDOF 6
ENDMDL
MODEL 8
REMARK VINA RESULT:    -6.643      4.487      7.368
REMARK INTER + INTRA:         -10.143
REMARK INTER:                  -9.158
REMARK INTRA:                  -0.986
REMARK UNBOUND:                -1.170
REMARK  Name = 
REMARK  6 active torsions:
REMARK  status: ('A' for Active; 'I' for Inactive)
REMARK    1  A    between atoms: C_2  and  C_18
REMARK    2  A    between atoms: N_3  and  C_4
REMARK    3  A    between atoms: C_4  and  C_5
REMARK    4  A    between atoms: C_8  and  C_9
REMARK    5  A    between atoms: C_9  and  N_10
REMARK    6  A    between atoms: N_10  and  C_11
REMARK                            x       y       z     vdW  Elec       q    Type
REMARK                         _______ _______ _______ _____ _____    ______ ____
ROOT
ATOM      1  C   UNL     1      46.212   8.204  13.028  0.00  0.00    +0.000 C 
ENDROOT
BRANCH   1   2
ATOM      2  C   UNL     1      47.608   8.384  12.493  0.00  0.00    +0.000 A 
ATOM      3  C   UNL     1      48.469   7.286  12.374  0.00  0.00    +0.000 A 
ATOM      4  C   UNL     1      49.766   7.450  11.880  0.00  0.00    +0.000 A 
ATOM      5  C   UNL     1      50.234   8.718  11.508  0.00  0.00    +0.000 A 
ATOM      6  C   UNL     1      49.378   9.819  11.652  0.00  0.00    +0.000 A 
ATOM      7  C   UNL     1      48.081   9.655  12.146  0.00  0.00    +0.000 A 
BRANCH   5   8
ATOM      8  C   UNL     1      51.649   8.912  11.011  0.00  0.00    +0.000 C 
BRANCH   8   9
ATOM      9  N   UNL     1      52.507   7.772  11.320  0.00  0.00    +0.000 NA
ATOM     10  H   UNL     1      51.939   6.990  11.636  0.00  0.00    +0.000 HD
BRANCH   9  11
ATOM     11  C   UNL     1      53.264   7.332  10.179  0.00  0.00    +0.000 C 
ATOM     12  C   UNL     1      52.535   7.297   8.842  0.00  0.00    +0.000 C 
ATOM     13  C   UNL     1      53.360   6.296   8.054  0.00  0.00    +0.000 C 
ATOM     14  C   UNL     1      53.886   5.336   9.115  0.00  0.00    +0.000 C 
ATOM     15  N   UNL     1      53.535   5.927  10.406  0.00  0.00    +0.000 NA
ATOM     16  H   UNL     1      54.289   5.833  11.082  0.00  0.00    +0.000 HD
ENDBRANCH   9  11
ENDBRANCH   8   9
ENDBRANCH   5   8
ENDBRANCH   1   2
BRANCH   1  19
ATOM     17  O   UNL     1      44.346   7.555  11.024  0.00  0.00    +0.000 OA
ATOM     18  C   UNL     1      44.846   6.651  11.685  0.00  0.00    +0.000 C 
ATOM     19  N   UNL     1      45.708   6.889  12.725  0.00  0.00    +0.000 N 
ATOM     20  H   UNL     1      46.233   6.116  13.116  0.00  0.00    +0.000 HD
BRANCH  18  21
ATOM     21  C   UNL     1      44.507   5.244  11.439  0.00  0.00    +0.000 A 
ATOM     22  C   UNL     1      43.746   4.547  12.370  0.00  0.00    +0.000 A 
ATOM     23  S   UNL     1      43.457   2.923  11.939  0.00  0.00    +0.000 S 
ATOM     24  C   UNL     1      44.300   3.104  10.472  0.00  0.00    +0.000 A 
ATOM     25  N   UNL     1      44.407   2.070   9.595  0.00  0.00    +0.000 NA
ATOM     26  C   UNL     1      45.035   2.358   8.503  0.00  0.00    +0.000 A 
ATOM     27  N   UNL     1      45.576   3.584   8.215  0.00  0.00    +0.000 N 
ATOM     28  C   UNL     1      45.558   4.633   9.102  0.00  0.00    +0.000 A 
ATOM     29  O   UNL     1      46.168   5.670   8.863  0.00  0.00    +0.000 OA
ATOM     30  C   UNL     1      44.819   4.378  10.325  0.00  0.00    +0.000 A 
ATOM     31  H   UNL     1      46.083   3.736   7.356  0.00  0.00    +0.000 HD
ENDBRANCH  18  21
ENDBRANCH   1  19
TORSDOF 6
ENDMDL
MODEL 9
REMARK VINA RESULT:    -6.604      3.231      5.181
REMARK INTER + INTRA:         -10.091
REMARK INTER:                  -9.071
REMARK INTRA:                  -1.020
REMARK UNBOUND:                -1.170
REMARK  Name = 
REMARK  6 active torsions:
REMARK  status: ('A' for Active; 'I' for Inactive)
REMARK    1  A    between atoms: C_2  and  C_18
REMARK    2  A    between atoms: N_3  and  C_4
REMARK    3  A    between atoms: C_4  and  C_5
REMARK    4  A    between atoms: C_8  and  C_9
REMARK    5  A    between atoms: C_9  and  N_10
REMARK    6  A    between atoms: N_10  and  C_11
REMARK                            x       y       z     vdW  Elec       q    Type
REMARK                         _______ _______ _______ _____ _____    ______ ____
ROOT
ATOM      1  C   UNL     1      47.713   5.933  14.116  0.00  0.00    +0.000 C 
ENDROOT
BRANCH   1   2
ATOM      2  C   UNL     1      46.734   5.260  13.191  0.00  0.00    +0.000 A 
ATOM      3  C   UNL     1      46.429   3.902  13.346  0.00  0.00    +0.000 A 
ATOM      4  C   UNL     1      45.522   3.274  12.487  0.00  0.00    +0.000 A 
ATOM      5  C   UNL     1      44.913   3.987  11.446  0.00  0.00    +0.000 A 
ATOM      6  C   UNL     1      45.239   5.340  11.277  0.00  0.00    +0.000 A 
ATOM      7  C   UNL     1      46.145   5.968  12.135  0.00  0.00    +0.000 A 
BRANCH   5   8
ATOM      8  C   UNL     1      43.963   3.306  10.487  0.00  0.00    +0.000 C 
BRANCH   8   9
ATOM      9  N   UNL     1      44.559   2.135   9.851  0.00  0.00    +0.000 NA
ATOM     10  H   UNL     1      43.863   1.664   9.278  0.00  0.00    +0.000 HD
BRANCH   9  11
ATOM     11  C   UNL     1      45.668   2.477   9.003  0.00  0.00    +0.000 C 
ATOM     12  C   UNL     1      45.360   3.329   7.778  0.00  0.00    +0.000 C 
ATOM     13  C   UNL     1      46.530   3.011   6.865  0.00  0.00    +0.000 C 
ATOM     14  C   UNL     1      46.892   1.574   7.218  0.00  0.00    +0.000 C 
ATOM     15  N   UNL     1      46.099   1.233   8.399  0.00  0.00    +0.000 NA
ATOM     16  H   UNL     1      46.639   0.698   9.075  0.00  0.00    +0.000 HD
ENDBRANCH   9  11
ENDBRANCH   8   9
ENDBRANCH   5   8
ENDBRANCH   1   2
BRANCH   1  19
ATOM     17  O   UNL     1      49.445   7.818  15.286  0.00  0.00    +0.000 OA
ATOM     18  C   UNL     1      49.343   7.781  14.064  0.00  0.00    +0.000 C 
ATOM     19  N   UNL     1      48.470   6.942  13.421  0.00  0.00    +0.000 N 
ATOM     20  H   UNL     1      48.554   6.817  12.419  0.00  0.00    +0.000 HD
BRANCH  18  21
ATOM     21  C   UNL     1      50.119   8.685  13.205  0.00  0.00    +0.000 A 
ATOM     22  C   UNL     1      51.507   8.670  13.266  0.00  0.00    +0.000 A 
ATOM     23  S   UNL     1      52.250   9.790  12.217  0.00  0.00    +0.000 S 
ATOM     24  C   UNL     1      50.746  10.305  11.610  0.00  0.00    +0.000 A 
ATOM     25  N   UNL     1      50.671  11.252  10.637  0.00  0.00    +0.000 NA
ATOM     26  C   UNL     1      49.470  11.516  10.239  0.00  0.00    +0.000 A 
ATOM     27  N   UNL     1      48.337  10.925  10.735  0.00  0.00    +0.000 N 
ATOM     28  C   UNL     1      48.360  10.021  11.769  0.00  0.00    +0.000 A 
ATOM     29  O   UNL     1      47.318   9.617  12.274  0.00  0.00    +0.000 OA
ATOM     30  C   UNL     1      49.688   9.651  12.219  0.00  0.00    +0.000 A 
ATOM     31  H   UNL     1      47.425  11.200  10.403  0.00  0.00    +0.000 HD
ENDBRANCH  18  21
ENDBRANCH   1  19
TORSDOF 6
ENDMDL
