MODEL 1
REMARK VINA RESULT:    -8.156      0.000      0.000
REMARK INTER + INTRA:         -12.402
REMARK INTER:                 -11.733
REMARK INTRA:                  -0.669
REMARK UNBOUND:                -0.669
REMARK  Name = 
REMARK  8 active torsions:
REMARK  status: ('A' for Active; 'I' for Inactive)
REMARK    1  A    between atoms: N_1  and  C_2
REMARK    2  A    between atoms: C_2  and  C_3
REMARK    3  A    between atoms: C_3  and  C_4
REMARK    4  A    between atoms: C_4  and  N_5
REMARK    5  A    between atoms: C_4  and  C_18
REMARK    6  A    between atoms: C_6  and  C_8
REMARK    7  A    between atoms: C_21  and  O_22
REMARK    8  A    between atoms: O_22  and  C_23
REMARK                            x       y       z     vdW  Elec       q    Type
REMARK                         _______ _______ _______ _____ _____    ______ ____
ROOT
ATOM      1  C   UNL     1      45.981   7.647  12.790  0.00  0.00    +0.000 C 
ENDROOT
BRANCH   1   2
ATOM      2  C   UNL     1      45.761   6.425  11.901  0.00  0.00    +0.000 A 
ATOM      3  C   UNL     1      46.300   6.466  10.602  0.00  0.00    +0.000 A 
ATOM      4  C   UNL     1      45.955   5.518   9.634  0.00  0.00    +0.000 A 
ATOM      5  C   UNL     1      45.095   4.469   9.953  0.00  0.00    +0.000 A 
ATOM      6  C   UNL     1      44.595   4.380  11.257  0.00  0.00    +0.000 A 
ATOM      7  C   UNL     1      44.921   5.349  12.225  0.00  0.00    +0.000 A 
BRANCH   5   8
ATOM      8  O   UNL     1      44.594   3.567   9.034  0.00  0.00    +0.000 OA
BRANCH   8   9
ATOM      9  C   UNL     1      45.466   2.950   8.144  0.00  0.00    +0.000 A 
ATOM     10  C   UNL     1      45.915   1.676   8.473  0.00  0.00    +0.000 A 
ATOM     11  C   UNL     1      46.822   1.053   7.613  0.00  0.00    +0.000 A 
ATOM     12  C   UNL     1      47.247   1.716   6.473  0.00  0.00    +0.000 A 
ATOM     13  C   UNL     1      46.756   2.991   6.239  0.00  0.00    +0.000 A 
ATOM     14  N   UNL     1      45.891   3.627   7.054  0.00  0.00    +0.000 NA
ENDBRANCH   8   9
ENDBRANCH   5   8
ENDBRANCH   1   2
BRANCH   1  15
ATOM     15  N   UNL     1      46.691   7.180  13.990  0.00  0.00    +0.000 N 
ATOM     16  C   UNL     1      48.012   6.813  13.976  0.00  0.00    +0.000 C 
ATOM     17  O   UNL     1      48.692   6.908  12.955  0.00  0.00    +0.000 OA
ATOM     18  H   UNL     1      46.135   7.062  14.831  0.00  0.00    +0.000 HD
BRANCH  16  19
ATOM     19  C   UNL     1      48.601   6.290  15.223  0.00  0.00    +0.000 A 
ATOM     20  C   UNL     1      49.707   6.935  15.765  0.00  0.00    +0.000 A 
ATOM     21  S   UNL     1      50.294   6.229  17.199  0.00  0.00    +0.000 S 
ATOM     22  C   UNL     1      49.104   5.017  17.150  0.00  0.00    +0.000 A 
ATOM     23  N   UNL     1      49.061   4.054  18.108  0.00  0.00    +0.000 NA
ATOM     24  C   UNL     1      48.112   3.191  17.955  0.00  0.00    +0.000 A 
ATOM     25  N   UNL     1      47.200   3.211  16.933  0.00  0.00    +0.000 N 
ATOM     26  C   UNL     1      47.210   4.159  15.938  0.00  0.00    +0.000 A 
ATOM     27  O   UNL     1      46.392   4.133  15.023  0.00  0.00    +0.000 OA
ATOM     28  C   UNL     1      48.258   5.158  16.059  0.00  0.00    +0.000 A 
ATOM     29  H   UNL     1      46.482   2.506  16.870  0.00  0.00    +0.000 HD
ENDBRANCH  16  19
ENDBRANCH   1  15
BRANCH   1  30
ATOM     30  C   UNL     1      46.731   8.861  12.206  0.00  0.00    +0.000 C 
BRANCH  30  31
ATOM     31  C   UNL     1      45.905  10.134  12.007  0.00  0.00    +0.000 C 
BRANCH  31  32
ATOM     32  N   UNL     1      44.532  10.008  12.479  0.00  0.00    +0.000 NA
ATOM     33  H   UNL     1      44.124  10.935  12.591  0.00  0.00    +0.000 HD
ATOM     34  H   UNL     1      44.516   9.577  13.404  0.00  0.00    +0.000 HD
ENDBRANCH  31  32
ENDBRANCH  30  31
ENDBRANCH   1  30
TORSDOF 8
ENDMDL
MODEL 2
REMARK VINA RESULT:    -8.033      4.032      8.414
REMARK INTER + INTRA:         -12.223
REMARK INTER:                 -11.062
REMARK INTRA:                  -1.162
REMARK UNBOUND:                -0.669
REMARK  Name = 
REMARK  8 active torsions:
REMARK  status: ('A' for Active; 'I' for Inactive)
REMARK    1  A    between atoms: N_1  and  C_2
REMARK    2  A    between atoms: C_2  and  C_3
REMARK    3  A    between atoms: C_3  and  C_4
REMARK    4  A    between atoms: C_4  and  N_5
REMARK    5  A    between atoms: C_4  and  C_18
REMARK    6  A    between atoms: C_6  and  C_8
REMARK    7  A    between atoms: C_21  and  O_22
REMARK    8  A    between atoms: O_22  and  C_23
REMARK                            x       y       z     vdW  Elec       q    Type
REMARK                         _______ _______ _______ _____ _____    ______ ____
ROOT
ATOM      1  C   UNL     1      49.119   6.023  17.177  0.00  0.00    +0.000 C 
ENDROOT
BRANCH   1   2
ATOM      2  C   UNL     1      49.719   4.636  17.396  0.00  0.00    +0.000 A 
ATOM      3  C   UNL     1      51.099   4.563  17.663  0.00  0.00    +0.000 A 
ATOM      4  C   UNL     1      51.787   3.346  17.639  0.00  0.00    +0.000 A 
ATOM      5  C   UNL     1      51.104   2.157  17.393  0.00  0.00    +0.000 A 
ATOM      6  C   UNL     1      49.721   2.204  17.185  0.00  0.00    +0.000 A 
ATOM      7  C   UNL     1      49.032   3.432  17.182  0.00  0.00    +0.000 A 
BRANCH   5   8
ATOM      8  O   UNL     1      51.717   0.930  17.219  0.00  0.00    +0.000 OA
BRANCH   8   9
ATOM      9  C   UNL     1      53.053   0.783  17.569  0.00  0.00    +0.000 A 
ATOM     10  C   UNL     1      53.901   0.220  16.622  0.00  0.00    +0.000 A 
ATOM     11  C   UNL     1      55.240   0.025  16.967  0.00  0.00    +0.000 A 
ATOM     12  C   UNL     1      55.679   0.392  18.229  0.00  0.00    +0.000 A 
ATOM     13  C   UNL     1      54.755   0.930  19.111  0.00  0.00    +0.000 A 
ATOM     14  N   UNL     1      53.453   1.118  18.815  0.00  0.00    +0.000 NA
ENDBRANCH   8   9
ENDBRANCH   5   8
ENDBRANCH   1   2
BRANCH   1  15
ATOM     15  N   UNL     1      48.139   5.898  16.089  0.00  0.00    +0.000 N 
ATOM     16  C   UNL     1      48.403   6.288  14.801  0.00  0.00    +0.000 C 
ATOM     17  O   UNL     1      49.509   6.719  14.478  0.00  0.00    +0.000 OA
ATOM     18  H   UNL     1      47.210   5.578  16.347  0.00  0.00    +0.000 HD
BRANCH  16  19
ATOM     19  C   UNL     1      47.319   6.185  13.807  0.00  0.00    +0.000 A 
ATOM     20  C   UNL     1      46.841   7.347  13.212  0.00  0.00    +0.000 A 
ATOM     21  S   UNL     1      45.586   7.092  12.090  0.00  0.00    +0.000 S 
ATOM     22  C   UNL     1      45.614   5.415  12.363  0.00  0.00    +0.000 A 
ATOM     23  N   UNL     1      44.749   4.596  11.708  0.00  0.00    +0.000 NA
ATOM     24  C   UNL     1      44.870   3.344  12.006  0.00  0.00    +0.000 A 
ATOM     25  N   UNL     1      45.783   2.842  12.894  0.00  0.00    +0.000 N 
ATOM     26  C   UNL     1      46.671   3.632  13.585  0.00  0.00    +0.000 A 
ATOM     27  O   UNL     1      47.461   3.150  14.392  0.00  0.00    +0.000 OA
ATOM     28  C   UNL     1      46.581   5.051  13.289  0.00  0.00    +0.000 A 
ATOM     29  H   UNL     1      45.826   1.852  13.084  0.00  0.00    +0.000 HD
ENDBRANCH  16  19
ENDBRANCH   1  15
BRANCH   1  30
ATOM     30  C   UNL     1      48.452   6.738  18.370  0.00  0.00    +0.000 C 
BRANCH  30  31
ATOM     31  C   UNL     1      47.596   5.863  19.289  0.00  0.00    +0.000 C 
BRANCH  31  32
ATOM     32  N   UNL     1      46.412   5.324  18.632  0.00  0.00    +0.000 NA
ATOM     33  H   UNL     1      46.680   4.544  18.034  0.00  0.00    +0.000 HD
ATOM     34  H   UNL     1      46.003   6.027  18.015  0.00  0.00    +0.000 HD
ENDBRANCH  31  32
ENDBRANCH  30  31
ENDBRANCH   1  30
TORSDOF 8
ENDMDL
MODEL 3
REMARK VINA RESULT:    -7.972      2.048      2.643
REMARK INTER + INTRA:         -12.137
REMARK INTER:                 -11.985
REMARK INTRA:                  -0.152
REMARK UNBOUND:                -0.669
REMARK  Name = 
REMARK  8 active torsions:
REMARK  status: ('A' for Active; 'I' for Inactive)
REMARK    1  A    between atoms: N_1  and  C_2
REMARK    2  A    between atoms: C_2  and  C_3
REMARK    3  A    between atoms: C_3  and  C_4
REMARK    4  A    between atoms: C_4  and  N_5
REMARK    5  A    between atoms: C_4  and  C_18
REMARK    6  A    between atoms: C_6  and  C_8
REMARK    7  A    between atoms: C_21  and  O_22
REMARK    8  A    between atoms: O_22  and  C_23
REMARK                            x       y       z     vdW  Elec       q    Type
REMARK                         _______ _______ _______ _____ _____    ______ ____
ROOT
ATOM      1  C   UNL     1      44.335   4.593  13.053  0.00  0.00    +0.000 C 
ENDROOT
BRANCH   1   2
ATOM      2  C   UNL     1      44.879   4.406  11.639  0.00  0.00    +0.000 A 
ATOM      3  C   UNL     1      45.530   5.504  11.046  0.00  0.00    +0.000 A 
ATOM      4  C   UNL     1      45.847   5.521   9.685  0.00  0.00    +0.000 A 
ATOM      5  C   UNL     1      45.563   4.418   8.883  0.00  0.00    +0.000 A 
ATOM      6  C   UNL     1      44.969   3.294   9.468  0.00  0.00    +0.000 A 
ATOM      7  C   UNL     1      44.625   3.286  10.833  0.00  0.00    +0.000 A 
BRANCH   5   8
ATOM      8  O   UNL     1      45.716   4.394   7.509  0.00  0.00    +0.000 OA
BRANCH   8   9
ATOM      9  C   UNL     1      46.511   3.413   6.931  0.00  0.00    +0.000 A 
ATOM     10  C   UNL     1      46.839   3.568   5.589  0.00  0.00    +0.000 A 
ATOM     11  C   UNL     1      47.605   2.573   4.977  0.00  0.00    +0.000 A 
ATOM     12  C   UNL     1      48.008   1.472   5.715  0.00  0.00    +0.000 A 
ATOM     13  C   UNL     1      47.618   1.398   7.043  0.00  0.00    +0.000 A 
ATOM     14  N   UNL     1      46.867   2.333   7.661  0.00  0.00    +0.000 NA
ENDBRANCH   8   9
ENDBRANCH   5   8
ENDBRANCH   1   2
BRANCH   1  15
ATOM     15  N   UNL     1      45.415   5.195  13.850  0.00  0.00    +0.000 N 
ATOM     16  C   UNL     1      46.499   4.482  14.291  0.00  0.00    +0.000 C 
ATOM     17  O   UNL     1      46.652   3.298  13.992  0.00  0.00    +0.000 OA
ATOM     18  H   UNL     1      45.286   6.161  14.135  0.00  0.00    +0.000 HD
BRANCH  16  19
ATOM     19  C   UNL     1      47.483   5.171  15.146  0.00  0.00    +0.000 A 
ATOM     20  C   UNL     1      48.225   6.217  14.607  0.00  0.00    +0.000 A 
ATOM     21  S   UNL     1      49.329   6.923  15.694  0.00  0.00    +0.000 S 
ATOM     22  C   UNL     1      48.876   5.849  16.931  0.00  0.00    +0.000 A 
ATOM     23  N   UNL     1      49.475   5.910  18.150  0.00  0.00    +0.000 NA
ATOM     24  C   UNL     1      49.044   5.039  19.001  0.00  0.00    +0.000 A 
ATOM     25  N   UNL     1      48.064   4.118  18.741  0.00  0.00    +0.000 N 
ATOM     26  C   UNL     1      47.437   4.013  17.522  0.00  0.00    +0.000 A 
ATOM     27  O   UNL     1      46.579   3.159  17.315  0.00  0.00    +0.000 OA
ATOM     28  C   UNL     1      47.883   4.971  16.524  0.00  0.00    +0.000 A 
ATOM     29  H   UNL     1      47.772   3.463  19.450  0.00  0.00    +0.000 HD
ENDBRANCH  16  19
ENDBRANCH   1  15
BRANCH   1  30
ATOM     30  C   UNL     1      43.049   5.423  13.248  0.00  0.00    +0.000 C 
BRANCH  30  31
ATOM     31  C   UNL     1      42.203   5.660  11.996  0.00  0.00    +0.000 C 
BRANCH  31  32
ATOM     32  N   UNL     1      42.437   6.960  11.380  0.00  0.00    +0.000 NA
ATOM     33  H   UNL     1      42.650   6.834  10.391  0.00  0.00    +0.000 HD
ATOM     34  H   UNL     1      43.260   7.401  11.793  0.00  0.00    +0.000 HD
ENDBRANCH  31  32
ENDBRANCH  30  31
ENDBRANCH   1  30
TORSDOF 8
ENDMDL
MODEL 4
REMARK VINA RESULT:    -7.955      1.778      2.202
REMARK INTER + INTRA:         -12.112
REMARK INTER:                 -10.333
REMARK INTRA:                  -1.779
REMARK UNBOUND:                -0.669
REMARK  Name = 
REMARK  8 active torsions:
REMARK  status: ('A' for Active; 'I' for Inactive)
REMARK    1  A    between atoms: N_1  and  C_2
REMARK    2  A    between atoms: C_2  and  C_3
REMARK    3  A    between atoms: C_3  and  C_4
REMARK    4  A    between atoms: C_4  and  N_5
REMARK    5  A    between atoms: C_4  and  C_18
REMARK    6  A    between atoms: C_6  and  C_8
REMARK    7  A    between atoms: C_21  and  O_22
REMARK    8  A    between atoms: O_22  and  C_23
REMARK                            x       y       z     vdW  Elec       q    Type
REMARK                         _______ _______ _______ _____ _____    ______ ____
ROOT
ATOM      1  C   UNL     1      47.315   8.015  13.641  0.00  0.00    +0.000 C 
ENDROOT
BRANCH   1   2
ATOM      2  C   UNL     1      46.292   7.158  12.900  0.00  0.00    +0.000 A 
ATOM      3  C   UNL     1      46.496   5.765  12.898  0.00  0.00    +0.000 A 
ATOM      4  C   UNL     1      45.766   4.919  12.059  0.00  0.00    +0.000 A 
ATOM      5  C   UNL     1      44.774   5.436  11.228  0.00  0.00    +0.000 A 
ATOM      6  C   UNL     1      44.518   6.812  11.260  0.00  0.00    +0.000 A 
ATOM      7  C   UNL     1      45.270   7.668  12.086  0.00  0.00    +0.000 A 
BRANCH   5   8
ATOM      8  O   UNL     1      44.097   4.701  10.273  0.00  0.00    +0.000 OA
BRANCH   8   9
ATOM      9  C   UNL     1      44.822   3.949   9.356  0.00  0.00    +0.000 A 
ATOM     10  C   UNL     1      44.810   2.568   9.516  0.00  0.00    +0.000 A 
ATOM     11  C   UNL     1      45.563   1.794   8.630  0.00  0.00    +0.000 A 
ATOM     12  C   UNL     1      46.293   2.417   7.632  0.00  0.00    +0.000 A 
ATOM     13  C   UNL     1      46.255   3.801   7.563  0.00  0.00    +0.000 A 
ATOM     14  N   UNL     1      45.551   4.579   8.410  0.00  0.00    +0.000 NA
ENDBRANCH   8   9
ENDBRANCH   5   8
ENDBRANCH   1   2
BRANCH   1  15
ATOM     15  N   UNL     1      48.135   7.100  14.448  0.00  0.00    +0.000 N 
ATOM     16  C   UNL     1      48.666   7.453  15.662  0.00  0.00    +0.000 C 
ATOM     17  O   UNL     1      48.434   8.550  16.168  0.00  0.00    +0.000 OA
ATOM     18  H   UNL     1      48.365   6.204  14.029  0.00  0.00    +0.000 HD
BRANCH  16  19
ATOM     19  C   UNL     1      49.535   6.479  16.350  0.00  0.00    +0.000 A 
ATOM     20  C   UNL     1      50.823   6.863  16.704  0.00  0.00    +0.000 A 
ATOM     21  S   UNL     1      51.724   5.646  17.484  0.00  0.00    +0.000 S 
ATOM     22  C   UNL     1      50.435   4.546  17.367  0.00  0.00    +0.000 A 
ATOM     23  N   UNL     1      50.565   3.279  17.843  0.00  0.00    +0.000 NA
ATOM     24  C   UNL     1      49.516   2.541  17.691  0.00  0.00    +0.000 A 
ATOM     25  N   UNL     1      48.348   2.961  17.111  0.00  0.00    +0.000 N 
ATOM     26  C   UNL     1      48.173   4.228  16.609  0.00  0.00    +0.000 A 
ATOM     27  O   UNL     1      47.120   4.564  16.074  0.00  0.00    +0.000 OA
ATOM     28  C   UNL     1      49.323   5.104  16.753  0.00  0.00    +0.000 A 
ATOM     29  H   UNL     1      47.563   2.334  17.022  0.00  0.00    +0.000 HD
ENDBRANCH  16  19
ENDBRANCH   1  15
BRANCH   1  30
ATOM     30  C   UNL     1      48.248   8.929  12.819  0.00  0.00    +0.000 C 
BRANCH  30  31
ATOM     31  C   UNL     1      49.094   8.240  11.746  0.00  0.00    +0.000 C 
BRANCH  31  32
ATOM     32  N   UNL     1      50.125   7.369  12.296  0.00  0.00    +0.000 NA
ATOM     33  H   UNL     1      49.721   6.785  13.028  0.00  0.00    +0.000 HD
ATOM     34  H   UNL     1      50.852   7.926  12.746  0.00  0.00    +0.000 HD
ENDBRANCH  31  32
ENDBRANCH  30  31
ENDBRANCH   1  30
TORSDOF 8
ENDMDL
MODEL 5
REMARK VINA RESULT:    -7.572      2.301      3.285
REMARK INTER + INTRA:         -11.561
REMARK INTER:                  -9.771
REMARK INTRA:                  -1.789
REMARK UNBOUND:                -0.669
REMARK  Name = 
REMARK  8 active torsions:
REMARK  status: ('A' for Active; 'I' for Inactive)
REMARK    1  A    between atoms: N_1  and  C_2
REMARK    2  A    between atoms: C_2  and  C_3
REMARK    3  A    between atoms: C_3  and  C_4
REMARK    4  A    between atoms: C_4  and  N_5
REMARK    5  A    between atoms: C_4  and  C_18
REMARK    6  A    between atoms: C_6  and  C_8
REMARK    7  A    between atoms: C_21  and  O_22
REMARK    8  A    between atoms: O_22  and  C_23
REMARK                            x       y       z     vdW  Elec       q    Type
REMARK                         _______ _______ _______ _____ _____    ______ ____
ROOT
ATOM      1  C   UNL     1      47.406   7.976  13.602  0.00  0.00    +0.000 C 
ENDROOT
BRANCH   1   2
ATOM      2  C   UNL     1      46.375   7.126  12.863  0.00  0.00    +0.000 A 
ATOM      3  C   UNL     1      46.504   5.728  12.957  0.00  0.00    +0.000 A 
ATOM      4  C   UNL     1      45.772   4.867  12.135  0.00  0.00    +0.000 A 
ATOM      5  C   UNL     1      44.851   5.379  11.223  0.00  0.00    +0.000 A 
ATOM      6  C   UNL     1      44.667   6.765  11.158  0.00  0.00    +0.000 A 
ATOM      7  C   UNL     1      45.424   7.634  11.967  0.00  0.00    +0.000 A 
BRANCH   5   8
ATOM      8  O   UNL     1      44.183   4.619  10.282  0.00  0.00    +0.000 OA
BRANCH   8   9
ATOM      9  C   UNL     1      44.916   3.907   9.341  0.00  0.00    +0.000 A 
ATOM     10  C   UNL     1      44.936   2.522   9.465  0.00  0.00    +0.000 A 
ATOM     11  C   UNL     1      45.699   1.788   8.554  0.00  0.00    +0.000 A 
ATOM     12  C   UNL     1      46.407   2.452   7.566  0.00  0.00    +0.000 A 
ATOM     13  C   UNL     1      46.338   3.836   7.532  0.00  0.00    +0.000 A 
ATOM     14  N   UNL     1      45.624   4.576   8.404  0.00  0.00    +0.000 NA
ENDBRANCH   8   9
ENDBRANCH   5   8
ENDBRANCH   1   2
BRANCH   1  15
ATOM     15  N   UNL     1      48.173   7.066  14.464  0.00  0.00    +0.000 N 
ATOM     16  C   UNL     1      48.648   7.432  15.697  0.00  0.00    +0.000 C 
ATOM     17  O   UNL     1      48.405   8.540  16.172  0.00  0.00    +0.000 OA
ATOM     18  H   UNL     1      48.413   6.160  14.071  0.00  0.00    +0.000 HD
BRANCH  16  19
ATOM     19  C   UNL     1      49.469   6.460  16.442  0.00  0.00    +0.000 A 
ATOM     20  C   UNL     1      48.833   5.525  17.251  0.00  0.00    +0.000 A 
ATOM     21  S   UNL     1      49.893   4.467  18.062  0.00  0.00    +0.000 S 
ATOM     22  C   UNL     1      51.252   5.224  17.379  0.00  0.00    +0.000 A 
ATOM     23  N   UNL     1      52.506   4.798  17.688  0.00  0.00    +0.000 NA
ATOM     24  C   UNL     1      53.452   5.457  17.105  0.00  0.00    +0.000 A 
ATOM     25  N   UNL     1      53.254   6.499  16.239  0.00  0.00    +0.000 N 
ATOM     26  C   UNL     1      52.006   6.969  15.904  0.00  0.00    +0.000 A 
ATOM     27  O   UNL     1      51.866   7.921  15.141  0.00  0.00    +0.000 OA
ATOM     28  C   UNL     1      50.902   6.263  16.530  0.00  0.00    +0.000 A 
ATOM     29  H   UNL     1      54.037   6.974  15.817  0.00  0.00    +0.000 HD
ENDBRANCH  16  19
ENDBRANCH   1  15
BRANCH   1  30
ATOM     30  C   UNL     1      48.391   8.829  12.775  0.00  0.00    +0.000 C 
BRANCH  30  31
ATOM     31  C   UNL     1      49.282   8.069  11.792  0.00  0.00    +0.000 C 
BRANCH  31  32
ATOM     32  N   UNL     1      50.407   7.400  12.433  0.00  0.00    +0.000 NA
ATOM     33  H   UNL     1      50.560   6.494  11.993  0.00  0.00    +0.000 HD
ATOM     34  H   UNL     1      50.189   7.207  13.412  0.00  0.00    +0.000 HD
ENDBRANCH  31  32
ENDBRANCH  30  31
ENDBRANCH   1  30
TORSDOF 8
ENDMDL
MODEL 6
REMARK VINA RESULT:    -7.522      2.111      3.396
REMARK INTER + INTRA:         -11.490
REMARK INTER:                 -10.625
REMARK INTRA:                  -0.864
REMARK UNBOUND:                -0.669
REMARK  Name = 
REMARK  8 active torsions:
REMARK  status: ('A' for Active; 'I' for Inactive)
REMARK    1  A    between atoms: N_1  and  C_2
REMARK    2  A    between atoms: C_2  and  C_3
REMARK    3  A    between atoms: C_3  and  C_4
REMARK    4  A    between atoms: C_4  and  N_5
REMARK    5  A    between atoms: C_4  and  C_18
REMARK    6  A    between atoms: C_6  and  C_8
REMARK    7  A    between atoms: C_21  and  O_22
REMARK    8  A    between atoms: O_22  and  C_23
REMARK                            x       y       z     vdW  Elec       q    Type
REMARK                         _______ _______ _______ _____ _____    ______ ____
ROOT
ATOM      1  C   UNL     1      44.292   4.542  13.023  0.00  0.00    +0.000 C 
ENDROOT
BRANCH   1   2
ATOM      2  C   UNL     1      44.644   4.137  11.594  0.00  0.00    +0.000 A 
ATOM      3  C   UNL     1      45.315   5.085  10.799  0.00  0.00    +0.000 A 
ATOM      4  C   UNL     1      45.468   4.912   9.421  0.00  0.00    +0.000 A 
ATOM      5  C   UNL     1      44.993   3.758   8.801  0.00  0.00    +0.000 A 
ATOM      6  C   UNL     1      44.376   2.777   9.585  0.00  0.00    +0.000 A 
ATOM      7  C   UNL     1      44.198   2.963  10.969  0.00  0.00    +0.000 A 
BRANCH   5   8
ATOM      8  O   UNL     1      44.979   3.559   7.433  0.00  0.00    +0.000 OA
BRANCH   8   9
ATOM      9  C   UNL     1      46.074   2.961   6.823  0.00  0.00    +0.000 A 
ATOM     10  C   UNL     1      46.731   1.962   7.532  0.00  0.00    +0.000 A 
ATOM     11  C   UNL     1      47.859   1.374   6.954  0.00  0.00    +0.000 A 
ATOM     12  C   UNL     1      48.287   1.800   5.708  0.00  0.00    +0.000 A 
ATOM     13  C   UNL     1      47.576   2.815   5.085  0.00  0.00    +0.000 A 
ATOM     14  N   UNL     1      46.493   3.413   5.620  0.00  0.00    +0.000 NA
ENDBRANCH   8   9
ENDBRANCH   5   8
ENDBRANCH   1   2
BRANCH   1  15
ATOM     15  N   UNL     1      45.455   5.262  13.562  0.00  0.00    +0.000 N 
ATOM     16  C   UNL     1      46.535   4.623  14.113  0.00  0.00    +0.000 C 
ATOM     17  O   UNL     1      46.610   3.395  14.133  0.00  0.00    +0.000 OA
ATOM     18  H   UNL     1      45.393   6.275  13.585  0.00  0.00    +0.000 HD
BRANCH  16  19
ATOM     19  C   UNL     1      47.612   5.449  14.690  0.00  0.00    +0.000 A 
ATOM     20  C   UNL     1      47.990   5.232  16.010  0.00  0.00    +0.000 A 
ATOM     21  S   UNL     1      49.236   6.255  16.557  0.00  0.00    +0.000 S 
ATOM     22  C   UNL     1      49.314   7.047  15.056  0.00  0.00    +0.000 A 
ATOM     23  N   UNL     1      50.189   8.069  14.860  0.00  0.00    +0.000 NA
ATOM     24  C   UNL     1      50.148   8.588  13.678  0.00  0.00    +0.000 A 
ATOM     25  N   UNL     1      49.313   8.172  12.675  0.00  0.00    +0.000 N 
ATOM     26  C   UNL     1      48.407   7.150  12.829  0.00  0.00    +0.000 A 
ATOM     27  O   UNL     1      47.656   6.818  11.916  0.00  0.00    +0.000 OA
ATOM     28  C   UNL     1      48.409   6.527  14.141  0.00  0.00    +0.000 A 
ATOM     29  H   UNL     1      49.329   8.621  11.772  0.00  0.00    +0.000 HD
ENDBRANCH  16  19
ENDBRANCH   1  15
BRANCH   1  30
ATOM     30  C   UNL     1      43.025   5.390  13.260  0.00  0.00    +0.000 C 
BRANCH  30  31
ATOM     31  C   UNL     1      42.184   5.709  12.023  0.00  0.00    +0.000 C 
BRANCH  31  32
ATOM     32  N   UNL     1      42.552   6.966  11.385  0.00  0.00    +0.000 NA
ATOM     33  H   UNL     1      42.727   6.806  10.393  0.00  0.00    +0.000 HD
ATOM     34  H   UNL     1      43.428   7.315  11.775  0.00  0.00    +0.000 HD
ENDBRANCH  31  32
ENDBRANCH  30  31
ENDBRANCH   1  30
TORSDOF 8
ENDMDL
MODEL 7
REMARK VINA RESULT:    -7.451      2.512      3.379
REMARK INTER + INTRA:         -11.387
REMARK INTER:                  -9.856
REMARK INTRA:                  -1.531
REMARK UNBOUND:                -0.669
REMARK  Name = 
REMARK  8 active torsions:
REMARK  status: ('A' for Active; 'I' for Inactive)
REMARK    1  A    between atoms: N_1  and  C_2
REMARK    2  A    between atoms: C_2  and  C_3
REMARK    3  A    between atoms: C_3  and  C_4
REMARK    4  A    between atoms: C_4  and  N_5
REMARK    5  A    between atoms: C_4  and  C_18
REMARK    6  A    between atoms: C_6  and  C_8
REMARK    7  A    between atoms: C_21  and  O_22
REMARK    8  A    between atoms: O_22  and  C_23
REMARK                            x       y       z     vdW  Elec       q    Type
REMARK                         _______ _______ _______ _____ _____    ______ ____
ROOT
ATOM      1  C   UNL     1      48.361   7.159  15.117  0.00  0.00    +0.000 C 
ENDROOT
BRANCH   1   2
ATOM      2  C   UNL     1      47.589   6.390  14.047  0.00  0.00    +0.000 A 
ATOM      3  C   UNL     1      47.238   7.087  12.876  0.00  0.00    +0.000 A 
ATOM      4  C   UNL     1      46.334   6.559  11.950  0.00  0.00    +0.000 A 
ATOM      5  C   UNL     1      45.787   5.292  12.147  0.00  0.00    +0.000 A 
ATOM      6  C   UNL     1      46.169   4.560  13.276  0.00  0.00    +0.000 A 
ATOM      7  C   UNL     1      47.059   5.103  14.222  0.00  0.00    +0.000 A 
BRANCH   5   8
ATOM      8  O   UNL     1      44.789   4.746  11.361  0.00  0.00    +0.000 OA
BRANCH   8   9
ATOM      9  C   UNL     1      45.137   4.026  10.225  0.00  0.00    +0.000 A 
ATOM     10  C   UNL     1      45.561   4.752   9.117  0.00  0.00    +0.000 A 
ATOM     11  C   UNL     1      45.879   4.052   7.951  0.00  0.00    +0.000 A 
ATOM     12  C   UNL     1      45.761   2.672   7.931  0.00  0.00    +0.000 A 
ATOM     13  C   UNL     1      45.313   2.038   9.080  0.00  0.00    +0.000 A 
ATOM     14  N   UNL     1      44.985   2.684  10.217  0.00  0.00    +0.000 NA
ENDBRANCH   8   9
ENDBRANCH   5   8
ENDBRANCH   1   2
BRANCH   1  15
ATOM     15  N   UNL     1      49.363   6.235  15.668  0.00  0.00    +0.000 N 
ATOM     16  C   UNL     1      49.653   6.165  17.006  0.00  0.00    +0.000 C 
ATOM     17  O   UNL     1      49.042   6.845  17.830  0.00  0.00    +0.000 OA
ATOM     18  H   UNL     1      49.901   5.693  14.998  0.00  0.00    +0.000 HD
BRANCH  16  19
ATOM     19  C   UNL     1      50.729   5.254  17.437  0.00  0.00    +0.000 A 
ATOM     20  C   UNL     1      51.888   5.795  17.983  0.00  0.00    +0.000 A 
ATOM     21  S   UNL     1      53.054   4.638  18.432  0.00  0.00    +0.000 S 
ATOM     22  C   UNL     1      52.067   3.361  17.901  0.00  0.00    +0.000 A 
ATOM     23  N   UNL     1      52.497   2.075  17.989  0.00  0.00    +0.000 NA
ATOM     24  C   UNL     1      51.655   1.199  17.549  0.00  0.00    +0.000 A 
ATOM     25  N   UNL     1      50.421   1.497  17.035  0.00  0.00    +0.000 N 
ATOM     26  C   UNL     1      49.948   2.783  16.918  0.00  0.00    +0.000 A 
ATOM     27  O   UNL     1      48.845   3.016  16.430  0.00  0.00    +0.000 OA
ATOM     28  C   UNL     1      50.854   3.811  17.399  0.00  0.00    +0.000 A 
ATOM     29  H   UNL     1      49.809   0.766  16.707  0.00  0.00    +0.000 HD
ENDBRANCH  16  19
ENDBRANCH   1  15
BRANCH   1  30
ATOM     30  C   UNL     1      49.060   8.476  14.721  0.00  0.00    +0.000 C 
BRANCH  30  31
ATOM     31  C   UNL     1      48.828   9.668  15.651  0.00  0.00    +0.000 C 
BRANCH  31  32
ATOM     32  N   UNL     1      47.686   9.493  16.539  0.00  0.00    +0.000 NA
ATOM     33  H   UNL     1      47.359   8.530  16.486  0.00  0.00    +0.000 HD
ATOM     34  H   UNL     1      46.907  10.075  16.228  0.00  0.00    +0.000 HD
ENDBRANCH  31  32
ENDBRANCH  30  31
ENDBRANCH   1  30
TORSDOF 8
ENDMDL
MODEL 8
REMARK VINA RESULT:    -7.192      2.767      3.988
REMARK INTER + INTRA:         -11.014
REMARK INTER:                  -9.104
REMARK INTRA:                  -1.910
REMARK UNBOUND:                -0.669
REMARK  Name = 
REMARK  8 active torsions:
REMARK  status: ('A' for Active; 'I' for Inactive)
REMARK    1  A    between atoms: N_1  and  C_2
REMARK    2  A    between atoms: C_2  and  C_3
REMARK    3  A    between atoms: C_3  and  C_4
REMARK    4  A    between atoms: C_4  and  N_5
REMARK    5  A    between atoms: C_4  and  C_18
REMARK    6  A    between atoms: C_6  and  C_8
REMARK    7  A    between atoms: C_21  and  O_22
REMARK    8  A    between atoms: O_22  and  C_23
REMARK                            x       y       z     vdW  Elec       q    Type
REMARK                         _______ _______ _______ _____ _____    ______ ____
ROOT
ATOM      1  C   UNL     1      49.174   8.380  13.750  0.00  0.00    +0.000 C 
ENDROOT
BRANCH   1   2
ATOM      2  C   UNL     1      47.934   8.113  12.901  0.00  0.00    +0.000 A 
ATOM      3  C   UNL     1      46.760   8.816  13.233  0.00  0.00    +0.000 A 
ATOM      4  C   UNL     1      45.521   8.475  12.685  0.00  0.00    +0.000 A 
ATOM      5  C   UNL     1      45.425   7.446  11.750  0.00  0.00    +0.000 A 
ATOM      6  C   UNL     1      46.591   6.775  11.364  0.00  0.00    +0.000 A 
ATOM      7  C   UNL     1      47.836   7.101  11.935  0.00  0.00    +0.000 A 
BRANCH   5   8
ATOM      8  O   UNL     1      44.232   6.951  11.257  0.00  0.00    +0.000 OA
BRANCH   8   9
ATOM      9  C   UNL     1      43.916   5.614  11.461  0.00  0.00    +0.000 A 
ATOM     10  C   UNL     1      43.600   5.226  12.759  0.00  0.00    +0.000 A 
ATOM     11  C   UNL     1      43.317   3.878  12.994  0.00  0.00    +0.000 A 
ATOM     12  C   UNL     1      43.362   2.978  11.943  0.00  0.00    +0.000 A 
ATOM     13  C   UNL     1      43.703   3.457  10.687  0.00  0.00    +0.000 A 
ATOM     14  N   UNL     1      43.995   4.748  10.428  0.00  0.00    +0.000 NA
ENDBRANCH   8   9
ENDBRANCH   5   8
ENDBRANCH   1   2
BRANCH   1  15
ATOM     15  N   UNL     1      49.185   7.373  14.820  0.00  0.00    +0.000 N 
ATOM     16  C   UNL     1      48.864   7.666  16.121  0.00  0.00    +0.000 C 
ATOM     17  O   UNL     1      48.495   8.792  16.450  0.00  0.00    +0.000 OA
ATOM     18  H   UNL     1      49.522   6.447  14.572  0.00  0.00    +0.000 HD
BRANCH  16  19
ATOM     19  C   UNL     1      48.981   6.592  17.124  0.00  0.00    +0.000 A 
ATOM     20  C   UNL     1      49.737   6.822  18.269  0.00  0.00    +0.000 A 
ATOM     21  S   UNL     1      49.798   5.501  19.342  0.00  0.00    +0.000 S 
ATOM     22  C   UNL     1      48.829   4.556  18.316  0.00  0.00    +0.000 A 
ATOM     23  N   UNL     1      48.513   3.277  18.651  0.00  0.00    +0.000 NA
ATOM     24  C   UNL     1      47.773   2.666  17.786  0.00  0.00    +0.000 A 
ATOM     25  N   UNL     1      47.319   3.222  16.620  0.00  0.00    +0.000 N 
ATOM     26  C   UNL     1      47.620   4.507  16.235  0.00  0.00    +0.000 A 
ATOM     27  O   UNL     1      47.216   4.968  15.171  0.00  0.00    +0.000 OA
ATOM     28  C   UNL     1      48.450   5.245  17.172  0.00  0.00    +0.000 A 
ATOM     29  H   UNL     1      46.745   2.690  15.985  0.00  0.00    +0.000 HD
ENDBRANCH  16  19
ENDBRANCH   1  15
BRANCH   1  30
ATOM     30  C   UNL     1      50.554   8.390  13.060  0.00  0.00    +0.000 C 
BRANCH  30  31
ATOM     31  C   UNL     1      51.750   8.743  13.947  0.00  0.00    +0.000 C 
BRANCH  31  32
ATOM     32  N   UNL     1      52.362   7.580  14.577  0.00  0.00    +0.000 NA
ATOM     33  H   UNL     1      52.221   6.760  13.988  0.00  0.00    +0.000 HD
ATOM     34  H   UNL     1      51.900   7.376  15.464  0.00  0.00    +0.000 HD
ENDBRANCH  31  32
ENDBRANCH  30  31
ENDBRANCH   1  30
TORSDOF 8
ENDMDL
MODEL 9
REMARK VINA RESULT:    -7.157      2.391      2.991
REMARK INTER + INTRA:         -10.964
REMARK INTER:                  -9.565
REMARK INTRA:                  -1.399
REMARK UNBOUND:                -0.669
REMARK  Name = 
REMARK  8 active torsions:
REMARK  status: ('A' for Active; 'I' for Inactive)
REMARK    1  A    between atoms: N_1  and  C_2
REMARK    2  A    between atoms: C_2  and  C_3
REMARK    3  A    between atoms: C_3  and  C_4
REMARK    4  A    between atoms: C_4  and  N_5
REMARK    5  A    between atoms: C_4  and  C_18
REMARK    6  A    between atoms: C_6  and  C_8
REMARK    7  A    between atoms: C_21  and  O_22
REMARK    8  A    between atoms: O_22  and  C_23
REMARK                            x       y       z     vdW  Elec       q    Type
REMARK                         _______ _______ _______ _____ _____    ______ ____
ROOT
ATOM      1  C   UNL     1      47.505   8.214  13.648  0.00  0.00    +0.000 C 
ENDROOT
BRANCH   1   2
ATOM      2  C   UNL     1      46.450   7.353  12.958  0.00  0.00    +0.000 A 
ATOM      3  C   UNL     1      46.643   5.960  12.970  0.00  0.00    +0.000 A 
ATOM      4  C   UNL     1      45.879   5.105  12.171  0.00  0.00    +0.000 A 
ATOM      5  C   UNL     1      44.862   5.618  11.367  0.00  0.00    +0.000 A 
ATOM      6  C   UNL     1      44.617   6.995  11.386  0.00  0.00    +0.000 A 
ATOM      7  C   UNL     1      45.404   7.859  12.171  0.00  0.00    +0.000 A 
BRANCH   5   8
ATOM      8  O   UNL     1      44.147   4.873  10.448  0.00  0.00    +0.000 OA
BRANCH   8   9
ATOM      9  C   UNL     1      44.834   4.103   9.517  0.00  0.00    +0.000 A 
ATOM     10  C   UNL     1      44.753   2.721   9.650  0.00  0.00    +0.000 A 
ATOM     11  C   UNL     1      45.468   1.928   8.749  0.00  0.00    +0.000 A 
ATOM     12  C   UNL     1      46.228   2.533   7.762  0.00  0.00    +0.000 A 
ATOM     13  C   UNL     1      46.259   3.918   7.719  0.00  0.00    +0.000 A 
ATOM     14  N   UNL     1      45.594   4.714   8.581  0.00  0.00    +0.000 NA
ENDBRANCH   8   9
ENDBRANCH   5   8
ENDBRANCH   1   2
BRANCH   1  15
ATOM     15  N   UNL     1      48.094   7.394  14.716  0.00  0.00    +0.000 N 
ATOM     16  C   UNL     1      48.572   7.927  15.886  0.00  0.00    +0.000 C 
ATOM     17  O   UNL     1      48.481   9.130  16.125  0.00  0.00    +0.000 OA
ATOM     18  H   UNL     1      48.209   6.404  14.520  0.00  0.00    +0.000 HD
BRANCH  16  19
ATOM     19  C   UNL     1      49.209   7.016  16.855  0.00  0.00    +0.000 A 
ATOM     20  C   UNL     1      50.276   6.230  16.436  0.00  0.00    +0.000 A 
ATOM     21  S   UNL     1      50.917   5.218  17.646  0.00  0.00    +0.000 S 
ATOM     22  C   UNL     1      49.784   5.776  18.783  0.00  0.00    +0.000 A 
ATOM     23  N   UNL     1      49.777   5.282  20.050  0.00  0.00    +0.000 NA
ATOM     24  C   UNL     1      48.866   5.786  20.814  0.00  0.00    +0.000 A 
ATOM     25  N   UNL     1      47.966   6.742  20.426  0.00  0.00    +0.000 N 
ATOM     26  C   UNL     1      47.930   7.265  19.155  0.00  0.00    +0.000 A 
ATOM     27  O   UNL     1      47.094   8.105  18.833  0.00  0.00    +0.000 OA
ATOM     28  C   UNL     1      48.934   6.735  18.250  0.00  0.00    +0.000 A 
ATOM     29  H   UNL     1      47.277   7.094  21.072  0.00  0.00    +0.000 HD
ENDBRANCH  16  19
ENDBRANCH   1  15
BRANCH   1  30
ATOM     30  C   UNL     1      48.642   8.817  12.797  0.00  0.00    +0.000 C 
BRANCH  30  31
ATOM     31  C   UNL     1      49.674   7.828  12.252  0.00  0.00    +0.000 C 
BRANCH  31  32
ATOM     32  N   UNL     1      50.842   7.683  13.111  0.00  0.00    +0.000 NA
ATOM     33  H   UNL     1      51.557   8.353  12.828  0.00  0.00    +0.000 HD
ATOM     34  H   UNL     1      51.255   6.758  12.989  0.00  0.00    +0.000 HD
ENDBRANCH  31  32
ENDBRANCH  30  31
ENDBRANCH   1  30
TORSDOF 8
ENDMDL
