MODEL 1
REMARK VINA RESULT:    -8.933      0.000      0.000
REMARK INTER + INTRA:         -12.254
REMARK INTER:                 -11.544
REMARK INTRA:                  -0.710
REMARK UNBOUND:                -0.710
REMARK  Name = 
REMARK  5 active torsions:
REMARK  status: ('A' for Active; 'I' for Inactive)
REMARK    1  A    between atoms: C_2  and  C_4
REMARK    2  A    between atoms: C_7  and  O_8
REMARK    3  A    between atoms: O_8  and  C_9
REMARK    4  A    between atoms: C_9  and  C_10
REMARK    5  A    between atoms: C_12  and  C_13
REMARK                            x       y       z     vdW  Elec       q    Type
REMARK                         _______ _______ _______ _____ _____    ______ ____
ROOT
ATOM      1  C   UNL     1      43.855   3.169  11.690  0.00  0.00    +0.000 C 
ENDROOT
BRANCH   1   2
ATOM      2  C   UNL     1      45.018   3.914  12.301  0.00  0.00    +0.000 A 
ATOM      3  C   UNL     1      45.212   5.266  12.010  0.00  0.00    +0.000 A 
ATOM      4  C   UNL     1      46.225   5.989  12.657  0.00  0.00    +0.000 A 
ATOM      5  C   UNL     1      47.044   5.273  13.541  0.00  0.00    +0.000 A 
ATOM      6  C   UNL     1      46.811   3.922  13.747  0.00  0.00    +0.000 A 
ATOM      7  N   UNL     1      45.813   3.235  13.161  0.00  0.00    +0.000 NA
BRANCH   4   8
ATOM      8  C   UNL     1      46.396   7.449  12.451  0.00  0.00    +0.000 A 
ATOM      9  C   UNL     1      47.677   8.017  12.283  0.00  0.00    +0.000 A 
ATOM     10  C   UNL     1      47.845   9.387  12.052  0.00  0.00    +0.000 A 
ATOM     11  C   UNL     1      46.731  10.209  11.975  0.00  0.00    +0.000 A 
ATOM     12  F   UNL     1      46.888  11.516  11.736  0.00  0.00    +0.000 F 
ATOM     13  C   UNL     1      45.455   9.689  12.138  0.00  0.00    +0.000 A 
ATOM     14  C   UNL     1      45.291   8.321  12.381  0.00  0.00    +0.000 A 
ENDBRANCH   4   8
ENDBRANCH   1   2
BRANCH   1  15
ATOM     15  O   UNL     1      43.632   3.608  10.350  0.00  0.00    +0.000 OA
BRANCH  15  19
ATOM     16  C   UNL     1      46.417   2.579   7.416  0.00  0.00    +0.000 A 
ATOM     17  C   UNL     1      45.921   1.571   8.248  0.00  0.00    +0.000 A 
ATOM     18  C   UNL     1      44.988   1.876   9.245  0.00  0.00    +0.000 A 
ATOM     19  C   UNL     1      44.545   3.190   9.419  0.00  0.00    +0.000 A 
ATOM     20  C   UNL     1      45.049   4.196   8.591  0.00  0.00    +0.000 A 
ATOM     21  C   UNL     1      45.986   3.896   7.597  0.00  0.00    +0.000 A 
BRANCH  16  23
ATOM     22  N   UNL     1      47.465   3.140   5.287  0.00  0.00    +0.000 N 
ATOM     23  C   UNL     1      47.422   2.293   6.359  0.00  0.00    +0.000 C 
ATOM     24  O   UNL     1      48.206   1.357   6.452  0.00  0.00    +0.000 OA
ATOM     25  H   UNL     1      48.218   2.984   4.626  0.00  0.00    +0.000 HD
ATOM     26  H   UNL     1      47.032   4.052   5.296  0.00  0.00    +0.000 HD
ENDBRANCH  16  23
ENDBRANCH  15  19
ENDBRANCH   1  15
TORSDOF 5
ENDMDL
MODEL 2
REMARK VINA RESULT:    -8.478      1.853      2.688
REMARK INTER + INTRA:         -11.666
REMARK INTER:                 -10.890
REMARK INTRA:                  -0.776
REMARK UNBOUND:                -0.710
REMARK  Name = 
REMARK  5 active torsions:
REMARK  status: ('A' for Active; 'I' for Inactive)
REMARK    1  A    between atoms: C_2  and  C_4
REMARK    2  A    between atoms: C_7  and  O_8
REMARK    3  A    between atoms: O_8  and  C_9
REMARK    4  A    between atoms: C_9  and  C_10
REMARK    5  A    between atoms: C_12  and  C_13
REMARK                            x       y       z     vdW  Elec       q    Type
REMARK                         _______ _______ _______ _____ _____    ______ ____
ROOT
ATOM      1  C   UNL     1      44.109   3.377  11.564  0.00  0.00    +0.000 C 
ENDROOT
BRANCH   1   2
ATOM      2  C   UNL     1      44.475   4.834  11.729  0.00  0.00    +0.000 A 
ATOM      3  C   UNL     1      45.757   5.189  12.151  0.00  0.00    +0.000 A 
ATOM      4  C   UNL     1      46.136   6.538  12.202  0.00  0.00    +0.000 A 
ATOM      5  C   UNL     1      45.154   7.481  11.871  0.00  0.00    +0.000 A 
ATOM      6  C   UNL     1      43.889   7.050  11.498  0.00  0.00    +0.000 A 
ATOM      7  N   UNL     1      43.537   5.754  11.406  0.00  0.00    +0.000 NA
BRANCH   4   8
ATOM      8  C   UNL     1      47.520   6.949  12.548  0.00  0.00    +0.000 A 
ATOM      9  C   UNL     1      48.373   7.525  11.582  0.00  0.00    +0.000 A 
ATOM     10  C   UNL     1      49.667   7.948  11.908  0.00  0.00    +0.000 A 
ATOM     11  C   UNL     1      50.123   7.810  13.209  0.00  0.00    +0.000 A 
ATOM     12  F   UNL     1      51.353   8.231  13.527  0.00  0.00    +0.000 F 
ATOM     13  C   UNL     1      49.316   7.247  14.187  0.00  0.00    +0.000 A 
ATOM     14  C   UNL     1      48.028   6.813  13.855  0.00  0.00    +0.000 A 
ENDBRANCH   4   8
ENDBRANCH   1   2
BRANCH   1  15
ATOM     15  O   UNL     1      43.632   3.131  10.242  0.00  0.00    +0.000 OA
BRANCH  15  19
ATOM     16  C   UNL     1      46.581   2.570   7.340  0.00  0.00    +0.000 A 
ATOM     17  C   UNL     1      46.029   3.845   7.493  0.00  0.00    +0.000 A 
ATOM     18  C   UNL     1      45.037   4.073   8.452  0.00  0.00    +0.000 A 
ATOM     19  C   UNL     1      44.588   3.029   9.266  0.00  0.00    +0.000 A 
ATOM     20  C   UNL     1      45.135   1.754   9.104  0.00  0.00    +0.000 A 
ATOM     21  C   UNL     1      46.122   1.520   8.142  0.00  0.00    +0.000 A 
BRANCH  16  23
ATOM     22  N   UNL     1      47.700   3.134   5.248  0.00  0.00    +0.000 N 
ATOM     23  C   UNL     1      47.623   2.288   6.319  0.00  0.00    +0.000 C 
ATOM     24  O   UNL     1      48.407   1.355   6.440  0.00  0.00    +0.000 OA
ATOM     25  H   UNL     1      48.476   2.980   4.614  0.00  0.00    +0.000 HD
ATOM     26  H   UNL     1      47.263   4.044   5.241  0.00  0.00    +0.000 HD
ENDBRANCH  16  23
ENDBRANCH  15  19
ENDBRANCH   1  15
TORSDOF 5
ENDMDL
MODEL 3
REMARK VINA RESULT:    -8.456      2.849      4.098
REMARK INTER + INTRA:         -11.638
REMARK INTER:                 -11.041
REMARK INTRA:                  -0.597
REMARK UNBOUND:                -0.710
REMARK  Name = 
REMARK  5 active torsions:
REMARK  status: ('A' for Active; 'I' for Inactive)
REMARK    1  A    between atoms: C_2  and  C_4
REMARK    2  A    between atoms: C_7  and  O_8
REMARK    3  A    between atoms: O_8  and  C_9
REMARK    4  A    between atoms: C_9  and  C_10
REMARK    5  A    between atoms: C_12  and  C_13
REMARK                            x       y       z     vdW  Elec       q    Type
REMARK                         _______ _______ _______ _____ _____    ______ ____
ROOT
ATOM      1  C   UNL     1      43.846   4.582  11.448  0.00  0.00    +0.000 C 
ENDROOT
BRANCH   1   2
ATOM      2  C   UNL     1      45.050   5.292  12.022  0.00  0.00    +0.000 A 
ATOM      3  C   UNL     1      45.602   4.867  13.231  0.00  0.00    +0.000 A 
ATOM      4  C   UNL     1      46.782   5.452  13.714  0.00  0.00    +0.000 A 
ATOM      5  C   UNL     1      47.320   6.502  12.957  0.00  0.00    +0.000 A 
ATOM      6  C   UNL     1      46.689   6.893  11.785  0.00  0.00    +0.000 A 
ATOM      7  N   UNL     1      45.582   6.304  11.297  0.00  0.00    +0.000 NA
BRANCH   4   8
ATOM      8  C   UNL     1      47.454   4.958  14.941  0.00  0.00    +0.000 A 
ATOM      9  C   UNL     1      48.246   5.814  15.736  0.00  0.00    +0.000 A 
ATOM     10  C   UNL     1      48.853   5.365  16.914  0.00  0.00    +0.000 A 
ATOM     11  C   UNL     1      48.669   4.053  17.321  0.00  0.00    +0.000 A 
ATOM     12  F   UNL     1      49.234   3.627  18.456  0.00  0.00    +0.000 F 
ATOM     13  C   UNL     1      47.900   3.179  16.566  0.00  0.00    +0.000 A 
ATOM     14  C   UNL     1      47.304   3.627  15.382  0.00  0.00    +0.000 A 
ENDBRANCH   4   8
ENDBRANCH   1   2
BRANCH   1  15
ATOM     15  O   UNL     1      43.826   4.708  10.027  0.00  0.00    +0.000 OA
BRANCH  15  19
ATOM     16  C   UNL     1      46.343   2.256   7.772  0.00  0.00    +0.000 A 
ATOM     17  C   UNL     1      45.487   1.658   8.703  0.00  0.00    +0.000 A 
ATOM     18  C   UNL     1      44.631   2.446   9.479  0.00  0.00    +0.000 A 
ATOM     19  C   UNL     1      44.623   3.836   9.332  0.00  0.00    +0.000 A 
ATOM     20  C   UNL     1      45.485   4.430   8.408  0.00  0.00    +0.000 A 
ATOM     21  C   UNL     1      46.347   3.647   7.634  0.00  0.00    +0.000 A 
BRANCH  16  23
ATOM     22  N   UNL     1      48.375   2.089   6.435  0.00  0.00    +0.000 N 
ATOM     23  C   UNL     1      47.278   1.452   6.944  0.00  0.00    +0.000 C 
ATOM     24  O   UNL     1      47.098   0.256   6.746  0.00  0.00    +0.000 OA
ATOM     25  H   UNL     1      49.047   1.503   5.954  0.00  0.00    +0.000 HD
ATOM     26  H   UNL     1      48.696   2.981   6.782  0.00  0.00    +0.000 HD
ENDBRANCH  16  23
ENDBRANCH  15  19
ENDBRANCH   1  15
TORSDOF 5
ENDMDL
MODEL 4
REMARK VINA RESULT:    -8.249      3.636      6.886
REMARK INTER + INTRA:         -11.371
REMARK INTER:                 -10.461
REMARK INTRA:                  -0.910
REMARK UNBOUND:                -0.710
REMARK  Name = 
REMARK  5 active torsions:
REMARK  status: ('A' for Active; 'I' for Inactive)
REMARK    1  A    between atoms: C_2  and  C_4
REMARK    2  A    between atoms: C_7  and  O_8
REMARK    3  A    between atoms: O_8  and  C_9
REMARK    4  A    between atoms: C_9  and  C_10
REMARK    5  A    between atoms: C_12  and  C_13
REMARK                            x       y       z     vdW  Elec       q    Type
REMARK                         _______ _______ _______ _____ _____    ______ ____
ROOT
ATOM      1  C   UNL     1      43.283   5.975  11.418  0.00  0.00    +0.000 C 
ENDROOT
BRANCH   1   2
ATOM      2  C   UNL     1      43.543   4.562  10.951  0.00  0.00    +0.000 A 
ATOM      3  C   UNL     1      44.330   4.333   9.821  0.00  0.00    +0.000 A 
ATOM      4  C   UNL     1      44.663   3.023   9.445  0.00  0.00    +0.000 A 
ATOM      5  C   UNL     1      44.121   1.989  10.219  0.00  0.00    +0.000 A 
ATOM      6  C   UNL     1      43.315   2.297  11.305  0.00  0.00    +0.000 A 
ATOM      7  N   UNL     1      43.029   3.554  11.693  0.00  0.00    +0.000 NA
BRANCH   4   8
ATOM      8  C   UNL     1      45.580   2.745   8.312  0.00  0.00    +0.000 A 
ATOM      9  C   UNL     1      45.860   3.730   7.340  0.00  0.00    +0.000 A 
ATOM     10  C   UNL     1      46.751   3.487   6.289  0.00  0.00    +0.000 A 
ATOM     11  C   UNL     1      47.384   2.257   6.199  0.00  0.00    +0.000 A 
ATOM     12  F   UNL     1      48.250   2.030   5.205  0.00  0.00    +0.000 F 
ATOM     13  C   UNL     1      47.133   1.262   7.133  0.00  0.00    +0.000 A 
ATOM     14  C   UNL     1      46.232   1.503   8.176  0.00  0.00    +0.000 A 
ENDBRANCH   4   8
ENDBRANCH   1   2
BRANCH   1  15
ATOM     15  O   UNL     1      43.923   6.209  12.671  0.00  0.00    +0.000 OA
BRANCH  15  19
ATOM     16  C   UNL     1      47.995   7.134  12.644  0.00  0.00    +0.000 A 
ATOM     17  C   UNL     1      47.103   8.030  12.046  0.00  0.00    +0.000 A 
ATOM     18  C   UNL     1      45.731   7.755  12.033  0.00  0.00    +0.000 A 
ATOM     19  C   UNL     1      45.240   6.583  12.615  0.00  0.00    +0.000 A 
ATOM     20  C   UNL     1      46.135   5.686  13.203  0.00  0.00    +0.000 A 
ATOM     21  C   UNL     1      47.507   5.954  13.213  0.00  0.00    +0.000 A 
BRANCH  16  23
ATOM     22  N   UNL     1      50.081   7.397  13.877  0.00  0.00    +0.000 N 
ATOM     23  C   UNL     1      49.459   7.386  12.660  0.00  0.00    +0.000 C 
ATOM     24  O   UNL     1      50.096   7.546  11.627  0.00  0.00    +0.000 OA
ATOM     25  H   UNL     1      51.092   7.476  13.859  0.00  0.00    +0.000 HD
ATOM     26  H   UNL     1      49.657   7.016  14.710  0.00  0.00    +0.000 HD
ENDBRANCH  16  23
ENDBRANCH  15  19
ENDBRANCH   1  15
TORSDOF 5
ENDMDL
MODEL 5
REMARK VINA RESULT:    -7.596      2.182      3.110
REMARK INTER + INTRA:         -10.527
REMARK INTER:                  -9.747
REMARK INTRA:                  -0.780
REMARK UNBOUND:                -0.710
REMARK  Name = 
REMARK  5 active torsions:
REMARK  status: ('A' for Active; 'I' for Inactive)
REMARK    1  A    between atoms: C_2  and  C_4
REMARK    2  A    between atoms: C_7  and  O_8
REMARK    3  A    between atoms: O_8  and  C_9
REMARK    4  A    between atoms: C_9  and  C_10
REMARK    5  A    between atoms: C_12  and  C_13
REMARK                            x       y       z     vdW  Elec       q    Type
REMARK                         _______ _______ _______ _____ _____    ______ ____
ROOT
ATOM      1  C   UNL     1      45.196   4.918  11.802  0.00  0.00    +0.000 C 
ENDROOT
BRANCH   1   2
ATOM      2  C   UNL     1      45.679   6.327  12.056  0.00  0.00    +0.000 A 
ATOM      3  C   UNL     1      47.014   6.662  11.819  0.00  0.00    +0.000 A 
ATOM      4  C   UNL     1      47.443   7.991  11.949  0.00  0.00    +0.000 A 
ATOM      5  C   UNL     1      46.487   8.922  12.378  0.00  0.00    +0.000 A 
ATOM      6  C   UNL     1      45.189   8.504  12.630  0.00  0.00    +0.000 A 
ATOM      7  N   UNL     1      44.764   7.237  12.464  0.00  0.00    +0.000 NA
BRANCH   4   8
ATOM      8  C   UNL     1      48.827   8.402  11.608  0.00  0.00    +0.000 A 
ATOM      9  C   UNL     1      49.177   9.765  11.491  0.00  0.00    +0.000 A 
ATOM     10  C   UNL     1      50.488  10.162  11.206  0.00  0.00    +0.000 A 
ATOM     11  C   UNL     1      51.473   9.200  11.042  0.00  0.00    +0.000 A 
ATOM     12  F   UNL     1      52.731   9.578  10.787  0.00  0.00    +0.000 F 
ATOM     13  C   UNL     1      51.169   7.850  11.146  0.00  0.00    +0.000 A 
ATOM     14  C   UNL     1      49.854   7.456  11.419  0.00  0.00    +0.000 A 
ENDBRANCH   4   8
ENDBRANCH   1   2
BRANCH   1  15
ATOM     15  O   UNL     1      44.546   4.836  10.534  0.00  0.00    +0.000 OA
BRANCH  15  19
ATOM     16  C   UNL     1      46.487   2.659   7.547  0.00  0.00    +0.000 A 
ATOM     17  C   UNL     1      45.753   1.961   8.511  0.00  0.00    +0.000 A 
ATOM     18  C   UNL     1      45.091   2.655   9.530  0.00  0.00    +0.000 A 
ATOM     19  C   UNL     1      45.157   4.050   9.593  0.00  0.00    +0.000 A 
ATOM     20  C   UNL     1      45.899   4.742   8.633  0.00  0.00    +0.000 A 
ATOM     21  C   UNL     1      46.567   4.053   7.617  0.00  0.00    +0.000 A 
BRANCH  16  23
ATOM     22  N   UNL     1      47.890   2.722   5.554  0.00  0.00    +0.000 N 
ATOM     23  C   UNL     1      47.217   1.953   6.462  0.00  0.00    +0.000 C 
ATOM     24  O   UNL     1      47.247   0.731   6.395  0.00  0.00    +0.000 OA
ATOM     25  H   UNL     1      48.458   2.221   4.880  0.00  0.00    +0.000 HD
ATOM     26  H   UNL     1      48.109   3.694   5.719  0.00  0.00    +0.000 HD
ENDBRANCH  16  23
ENDBRANCH  15  19
ENDBRANCH   1  15
TORSDOF 5
ENDMDL
MODEL 6
REMARK VINA RESULT:    -7.220      4.021      7.131
REMARK INTER + INTRA:         -10.040
REMARK INTER:                  -9.273
REMARK INTRA:                  -0.767
REMARK UNBOUND:                -0.710
REMARK  Name = 
REMARK  5 active torsions:
REMARK  status: ('A' for Active; 'I' for Inactive)
REMARK    1  A    between atoms: C_2  and  C_4
REMARK    2  A    between atoms: C_7  and  O_8
REMARK    3  A    between atoms: O_8  and  C_9
REMARK    4  A    between atoms: C_9  and  C_10
REMARK    5  A    between atoms: C_12  and  C_13
REMARK                            x       y       z     vdW  Elec       q    Type
REMARK                         _______ _______ _______ _____ _____    ______ ____
ROOT
ATOM      1  C   UNL     1      45.281   7.270  12.621  0.00  0.00    +0.000 C 
ENDROOT
BRANCH   1   2
ATOM      2  C   UNL     1      44.657   6.053  11.981  0.00  0.00    +0.000 A 
ATOM      3  C   UNL     1      45.250   5.472  10.858  0.00  0.00    +0.000 A 
ATOM      4  C   UNL     1      44.737   4.280  10.325  0.00  0.00    +0.000 A 
ATOM      5  C   UNL     1      43.587   3.760  10.936  0.00  0.00    +0.000 A 
ATOM      6  C   UNL     1      43.033   4.418  12.024  0.00  0.00    +0.000 A 
ATOM      7  N   UNL     1      43.549   5.538  12.565  0.00  0.00    +0.000 NA
BRANCH   4   8
ATOM      8  C   UNL     1      45.400   3.579   9.197  0.00  0.00    +0.000 A 
ATOM      9  C   UNL     1      46.006   4.299   8.145  0.00  0.00    +0.000 A 
ATOM     10  C   UNL     1      46.665   3.647   7.097  0.00  0.00    +0.000 A 
ATOM     11  C   UNL     1      46.737   2.262   7.091  0.00  0.00    +0.000 A 
ATOM     12  F   UNL     1      47.382   1.637   6.100  0.00  0.00    +0.000 F 
ATOM     13  C   UNL     1      46.151   1.519   8.106  0.00  0.00    +0.000 A 
ATOM     14  C   UNL     1      45.482   2.173   9.146  0.00  0.00    +0.000 A 
ENDBRANCH   4   8
ENDBRANCH   1   2
BRANCH   1  15
ATOM     15  O   UNL     1      46.541   6.934  13.202  0.00  0.00    +0.000 OA
BRANCH  15  19
ATOM     16  C   UNL     1      49.706   9.151  11.620  0.00  0.00    +0.000 A 
ATOM     17  C   UNL     1      49.946   7.829  12.008  0.00  0.00    +0.000 A 
ATOM     18  C   UNL     1      48.912   7.055  12.544  0.00  0.00    +0.000 A 
ATOM     19  C   UNL     1      47.632   7.594  12.699  0.00  0.00    +0.000 A 
ATOM     20  C   UNL     1      47.399   8.918  12.318  0.00  0.00    +0.000 A 
ATOM     21  C   UNL     1      48.430   9.698  11.788  0.00  0.00    +0.000 A 
BRANCH  16  23
ATOM     22  N   UNL     1      52.073   9.691  11.393  0.00  0.00    +0.000 N 
ATOM     23  C   UNL     1      50.785  10.008  11.064  0.00  0.00    +0.000 C 
ATOM     24  O   UNL     1      50.541  10.944  10.312  0.00  0.00    +0.000 OA
ATOM     25  H   UNL     1      52.797  10.228  10.929  0.00  0.00    +0.000 HD
ATOM     26  H   UNL     1      52.332   8.795  11.780  0.00  0.00    +0.000 HD
ENDBRANCH  16  23
ENDBRANCH  15  19
ENDBRANCH   1  15
TORSDOF 5
ENDMDL
MODEL 7
REMARK VINA RESULT:    -6.325      3.972      6.253
REMARK INTER + INTRA:          -8.884
REMARK INTER:                  -8.134
REMARK INTRA:                  -0.750
REMARK UNBOUND:                -0.710
REMARK  Name = 
REMARK  5 active torsions:
REMARK  status: ('A' for Active; 'I' for Inactive)
REMARK    1  A    between atoms: C_2  and  C_4
REMARK    2  A    between atoms: C_7  and  O_8
REMARK    3  A    between atoms: O_8  and  C_9
REMARK    4  A    between atoms: C_9  and  C_10
REMARK    5  A    between atoms: C_12  and  C_13
REMARK                            x       y       z     vdW  Elec       q    Type
REMARK                         _______ _______ _______ _____ _____    ______ ____
ROOT
ATOM      1  C   UNL     1      47.240   8.286  12.309  0.00  0.00    +0.000 C 
ENDROOT
BRANCH   1   2
ATOM      2  C   UNL     1      48.295   7.959  13.341  0.00  0.00    +0.000 A 
ATOM      3  C   UNL     1      48.011   7.060  14.370  0.00  0.00    +0.000 A 
ATOM      4  C   UNL     1      49.017   6.670  15.266  0.00  0.00    +0.000 A 
ATOM      5  C   UNL     1      50.272   7.273  15.104  0.00  0.00    +0.000 A 
ATOM      6  C   UNL     1      50.465   8.188  14.080  0.00  0.00    +0.000 A 
ATOM      7  N   UNL     1      49.513   8.530  13.192  0.00  0.00    +0.000 NA
BRANCH   4   8
ATOM      8  C   UNL     1      48.780   5.640  16.308  0.00  0.00    +0.000 A 
ATOM      9  C   UNL     1      47.692   4.746  16.216  0.00  0.00    +0.000 A 
ATOM     10  C   UNL     1      47.482   3.748  17.175  0.00  0.00    +0.000 A 
ATOM     11  C   UNL     1      48.365   3.624  18.236  0.00  0.00    +0.000 A 
ATOM     12  F   UNL     1      48.176   2.660  19.145  0.00  0.00    +0.000 F 
ATOM     13  C   UNL     1      49.444   4.487  18.364  0.00  0.00    +0.000 A 
ATOM     14  C   UNL     1      49.644   5.491  17.411  0.00  0.00    +0.000 A 
ENDBRANCH   4   8
ENDBRANCH   1   2
BRANCH   1  15
ATOM     15  O   UNL     1      45.955   7.863  12.762  0.00  0.00    +0.000 OA
BRANCH  15  19
ATOM     16  C   UNL     1      44.445   4.215  11.405  0.00  0.00    +0.000 A 
ATOM     17  C   UNL     1      45.148   5.022  10.506  0.00  0.00    +0.000 A 
ATOM     18  C   UNL     1      45.668   6.253  10.922  0.00  0.00    +0.000 A 
ATOM     19  C   UNL     1      45.487   6.687  12.238  0.00  0.00    +0.000 A 
ATOM     20  C   UNL     1      44.776   5.882  13.131  0.00  0.00    +0.000 A 
ATOM     21  C   UNL     1      44.250   4.654  12.718  0.00  0.00    +0.000 A 
BRANCH  16  23
ATOM     22  N   UNL     1      44.462   2.258   9.952  0.00  0.00    +0.000 N 
ATOM     23  C   UNL     1      43.865   2.911  10.993  0.00  0.00    +0.000 C 
ATOM     24  O   UNL     1      42.909   2.418  11.579  0.00  0.00    +0.000 OA
ATOM     25  H   UNL     1      44.111   1.329   9.749  0.00  0.00    +0.000 HD
ATOM     26  H   UNL     1      45.388   2.490   9.622  0.00  0.00    +0.000 HD
ENDBRANCH  16  23
ENDBRANCH  15  19
ENDBRANCH   1  15
TORSDOF 5
ENDMDL
MODEL 8
REMARK VINA RESULT:    -6.278      4.984      8.232
REMARK INTER + INTRA:          -8.824
REMARK INTER:                  -8.247
REMARK INTRA:                  -0.577
REMARK UNBOUND:                -0.710
REMARK  Name = 
REMARK  5 active torsions:
REMARK  status: ('A' for Active; 'I' for Inactive)
REMARK    1  A    between atoms: C_2  and  C_4
REMARK    2  A    between atoms: C_7  and  O_8
REMARK    3  A    between atoms: O_8  and  C_9
REMARK    4  A    between atoms: C_9  and  C_10
REMARK    5  A    between atoms: C_12  and  C_13
REMARK                            x       y       z     vdW  Elec       q    Type
REMARK                         _______ _______ _______ _____ _____    ______ ____
ROOT
ATOM      1  C   UNL     1      48.660   7.442  14.145  0.00  0.00    +0.000 C 
ENDROOT
BRANCH   1   2
ATOM      2  C   UNL     1      47.422   7.522  13.283  0.00  0.00    +0.000 A 
ATOM      3  C   UNL     1      47.076   6.451  12.456  0.00  0.00    +0.000 A 
ATOM      4  C   UNL     1      45.873   6.475  11.736  0.00  0.00    +0.000 A 
ATOM      5  C   UNL     1      45.093   7.634  11.849  0.00  0.00    +0.000 A 
ATOM      6  C   UNL     1      45.525   8.672  12.661  0.00  0.00    +0.000 A 
ATOM      7  N   UNL     1      46.658   8.634  13.387  0.00  0.00    +0.000 NA
BRANCH   4   8
ATOM      8  C   UNL     1      45.423   5.314  10.928  0.00  0.00    +0.000 A 
ATOM      9  C   UNL     1      45.610   5.281   9.530  0.00  0.00    +0.000 A 
ATOM     10  C   UNL     1      45.221   4.175   8.765  0.00  0.00    +0.000 A 
ATOM     11  C   UNL     1      44.649   3.079   9.391  0.00  0.00    +0.000 A 
ATOM     12  F   UNL     1      44.293   2.013   8.665  0.00  0.00    +0.000 F 
ATOM     13  C   UNL     1      44.445   3.074  10.764  0.00  0.00    +0.000 A 
ATOM     14  C   UNL     1      44.823   4.186  11.524  0.00  0.00    +0.000 A 
ENDBRANCH   4   8
ENDBRANCH   1   2
BRANCH   1  15
ATOM     15  O   UNL     1      48.303   7.206  15.506  0.00  0.00    +0.000 OA
BRANCH  15  19
ATOM     16  C   UNL     1      50.820   4.532  17.493  0.00  0.00    +0.000 A 
ATOM     17  C   UNL     1      49.463   4.212  17.377  0.00  0.00    +0.000 A 
ATOM     18  C   UNL     1      48.588   5.083  16.721  0.00  0.00    +0.000 A 
ATOM     19  C   UNL     1      49.059   6.281  16.176  0.00  0.00    +0.000 A 
ATOM     20  C   UNL     1      50.413   6.602  16.302  0.00  0.00    +0.000 A 
ATOM     21  C   UNL     1      51.291   5.737  16.962  0.00  0.00    +0.000 A 
BRANCH  16  23
ATOM     22  N   UNL     1      51.561   2.292  18.107  0.00  0.00    +0.000 N 
ATOM     23  C   UNL     1      51.774   3.639  18.199  0.00  0.00    +0.000 C 
ATOM     24  O   UNL     1      52.736   4.082  18.814  0.00  0.00    +0.000 OA
ATOM     25  H   UNL     1      52.275   1.699  18.516  0.00  0.00    +0.000 HD
ATOM     26  H   UNL     1      50.955   1.882  17.412  0.00  0.00    +0.000 HD
ENDBRANCH  16  23
ENDBRANCH  15  19
ENDBRANCH   1  15
TORSDOF 5
ENDMDL
