MODEL 1
REMARK VINA RESULT:    -8.522      0.000      0.000
REMARK INTER + INTRA:         -12.542
REMARK INTER:                 -11.511
REMARK INTRA:                  -1.031
REMARK UNBOUND:                -1.031
REMARK  Name = 
REMARK  7 active torsions:
REMARK  status: ('A' for Active; 'I' for Inactive)
REMARK    1  A    between atoms: C_1  and  C_2
REMARK    2  A    between atoms: C_2  and  C_3
REMARK    3  A    between atoms: C_2  and  C_15
REMARK    4  A    between atoms: C_3  and  O_4
REMARK    5  A    between atoms: O_4  and  C_5
REMARK    6  A    between atoms: C_8  and  C_9
REMARK    7  A    between atoms: C_19  and  C_20
REMARK                            x       y       z     vdW  Elec       q    Type
REMARK                         _______ _______ _______ _____ _____    ______ ____
ROOT
ATOM      1  C   UNL     1      44.136   3.005  11.621  0.00  0.00    +0.000 C 
ENDROOT
BRANCH   1   3
ATOM      2  C   UNL     1      42.988   5.305  11.791  0.00  0.00    +0.000 C 
ATOM      3  C   UNL     1      44.133   4.411  12.143  0.00  0.00    +0.000 C 
BRANCH   3   4
ATOM      4  C   UNL     1      45.337   4.958  12.780  0.00  0.00    +0.000 A 
ATOM      5  C   UNL     1      46.022   6.026  12.187  0.00  0.00    +0.000 A 
ATOM      6  C   UNL     1      47.188   6.535  12.760  0.00  0.00    +0.000 A 
ATOM      7  C   UNL     1      47.688   5.978  13.933  0.00  0.00    +0.000 A 
ATOM      8  C   UNL     1      47.018   4.914  14.554  0.00  0.00    +0.000 A 
ATOM      9  C   UNL     1      45.841   4.413  13.968  0.00  0.00    +0.000 A 
BRANCH   8  10
ATOM     10  C   UNL     1      47.547   4.307  15.831  0.00  0.00    +0.000 C 
ATOM     11  F   UNL     1      47.915   3.002  15.704  0.00  0.00    +0.000 F 
ATOM     12  F   UNL     1      48.646   4.959  16.301  0.00  0.00    +0.000 F 
ATOM     13  F   UNL     1      46.634   4.338  16.841  0.00  0.00    +0.000 F 
ENDBRANCH   8  10
ENDBRANCH   3   4
ENDBRANCH   1   3
BRANCH   1  14
ATOM     14  O   UNL     1      43.620   2.999  10.289  0.00  0.00    +0.000 OA
BRANCH  14  15
ATOM     15  C   UNL     1      44.544   2.992   9.279  0.00  0.00    +0.000 A 
ATOM     16  C   UNL     1      44.936   4.095   8.525  0.00  0.00    +0.000 A 
ATOM     17  C   UNL     1      45.890   3.951   7.513  0.00  0.00    +0.000 A 
ATOM     18  C   UNL     1      46.478   2.705   7.242  0.00  0.00    +0.000 A 
ATOM     19  C   UNL     1      46.075   1.594   7.996  0.00  0.00    +0.000 A 
ATOM     20 CL   UNL     1      46.668  -0.009   7.732  0.00  0.00    +0.000 Cl
ATOM     21  C   UNL     1      45.114   1.745   9.007  0.00  0.00    +0.000 A 
BRANCH  18  22
ATOM     22  C   UNL     1      47.485   2.693   6.147  0.00  0.00    +0.000 C 
ATOM     23  N   UNL     1      48.802   2.558   6.472  0.00  0.00    +0.000 N 
ATOM     24  O   UNL     1      47.149   2.853   4.979  0.00  0.00    +0.000 OA
ATOM     25  H   UNL     1      49.124   2.358   7.409  0.00  0.00    +0.000 HD
ATOM     26  H   UNL     1      49.471   2.522   5.713  0.00  0.00    +0.000 HD
ENDBRANCH  18  22
ENDBRANCH  14  15
ENDBRANCH   1  14
TORSDOF 6
ENDMDL
MODEL 2
REMARK VINA RESULT:    -8.396      2.106      2.699
REMARK INTER + INTRA:         -12.372
REMARK INTER:                 -11.286
REMARK INTRA:                  -1.086
REMARK UNBOUND:                -1.031
REMARK  Name = 
REMARK  7 active torsions:
REMARK  status: ('A' for Active; 'I' for Inactive)
REMARK    1  A    between atoms: C_1  and  C_2
REMARK    2  A    between atoms: C_2  and  C_3
REMARK    3  A    between atoms: C_2  and  C_15
REMARK    4  A    between atoms: C_3  and  O_4
REMARK    5  A    between atoms: O_4  and  C_5
REMARK    6  A    between atoms: C_8  and  C_9
REMARK    7  A    between atoms: C_19  and  C_20
REMARK                            x       y       z     vdW  Elec       q    Type
REMARK                         _______ _______ _______ _____ _____    ______ ____
ROOT
ATOM      1  C   UNL     1      44.234   3.097  11.697  0.00  0.00    +0.000 C 
ENDROOT
BRANCH   1   3
ATOM      2  C   UNL     1      43.172   5.443  11.658  0.00  0.00    +0.000 C 
ATOM      3  C   UNL     1      44.283   4.543  12.091  0.00  0.00    +0.000 C 
BRANCH   3   4
ATOM      4  C   UNL     1      45.507   5.100  12.681  0.00  0.00    +0.000 A 
ATOM      5  C   UNL     1      46.043   4.537  13.847  0.00  0.00    +0.000 A 
ATOM      6  C   UNL     1      47.184   5.075  14.442  0.00  0.00    +0.000 A 
ATOM      7  C   UNL     1      47.802   6.190  13.881  0.00  0.00    +0.000 A 
ATOM      8  C   UNL     1      47.293   6.768  12.709  0.00  0.00    +0.000 A 
ATOM      9  C   UNL     1      46.144   6.212  12.117  0.00  0.00    +0.000 A 
BRANCH   8  10
ATOM     10  C   UNL     1      47.960   7.971  12.088  0.00  0.00    +0.000 C 
ATOM     11  F   UNL     1      48.804   8.625  12.934  0.00  0.00    +0.000 F 
ATOM     12  F   UNL     1      48.706   7.646  10.996  0.00  0.00    +0.000 F 
ATOM     13  F   UNL     1      47.064   8.904  11.663  0.00  0.00    +0.000 F 
ENDBRANCH   8  10
ENDBRANCH   3   4
ENDBRANCH   1   3
BRANCH   1  14
ATOM     14  O   UNL     1      43.688   2.989  10.381  0.00  0.00    +0.000 OA
BRANCH  14  15
ATOM     15  C   UNL     1      44.587   2.990   9.348  0.00  0.00    +0.000 A 
ATOM     16  C   UNL     1      44.966   4.101   8.599  0.00  0.00    +0.000 A 
ATOM     17  C   UNL     1      45.894   3.965   7.561  0.00  0.00    +0.000 A 
ATOM     18  C   UNL     1      46.468   2.720   7.260  0.00  0.00    +0.000 A 
ATOM     19  C   UNL     1      46.078   1.601   8.009  0.00  0.00    +0.000 A 
ATOM     20 CL   UNL     1      46.654  -0.002   7.708  0.00  0.00    +0.000 Cl
ATOM     21  C   UNL     1      45.143   1.744   9.045  0.00  0.00    +0.000 A 
BRANCH  18  22
ATOM     22  C   UNL     1      47.447   2.717   6.140  0.00  0.00    +0.000 C 
ATOM     23  N   UNL     1      48.774   2.608   6.432  0.00  0.00    +0.000 N 
ATOM     24  O   UNL     1      47.079   2.860   4.979  0.00  0.00    +0.000 OA
ATOM     25  H   UNL     1      49.123   2.422   7.363  0.00  0.00    +0.000 HD
ATOM     26  H   UNL     1      49.424   2.579   5.657  0.00  0.00    +0.000 HD
ENDBRANCH  18  22
ENDBRANCH  14  15
ENDBRANCH   1  14
TORSDOF 6
ENDMDL
MODEL 3
REMARK VINA RESULT:    -8.085      3.132      3.684
REMARK INTER + INTRA:         -11.952
REMARK INTER:                 -11.017
REMARK INTRA:                  -0.935
REMARK UNBOUND:                -1.031
REMARK  Name = 
REMARK  7 active torsions:
REMARK  status: ('A' for Active; 'I' for Inactive)
REMARK    1  A    between atoms: C_1  and  C_2
REMARK    2  A    between atoms: C_2  and  C_3
REMARK    3  A    between atoms: C_2  and  C_15
REMARK    4  A    between atoms: C_3  and  O_4
REMARK    5  A    between atoms: O_4  and  C_5
REMARK    6  A    between atoms: C_8  and  C_9
REMARK    7  A    between atoms: C_19  and  C_20
REMARK                            x       y       z     vdW  Elec       q    Type
REMARK                         _______ _______ _______ _____ _____    ______ ____
ROOT
ATOM      1  C   UNL     1      43.318   4.428  10.651  0.00  0.00    +0.000 C 
ENDROOT
BRANCH   1   3
ATOM      2  C   UNL     1      43.315   4.317  13.225  0.00  0.00    +0.000 C 
ATOM      3  C   UNL     1      43.926   4.831  11.962  0.00  0.00    +0.000 C 
BRANCH   3   4
ATOM      4  C   UNL     1      44.944   5.888  12.003  0.00  0.00    +0.000 A 
ATOM      5  C   UNL     1      46.273   5.572  12.311  0.00  0.00    +0.000 A 
ATOM      6  C   UNL     1      47.247   6.568  12.390  0.00  0.00    +0.000 A 
ATOM      7  C   UNL     1      46.901   7.898  12.166  0.00  0.00    +0.000 A 
ATOM      8  C   UNL     1      45.580   8.243  11.847  0.00  0.00    +0.000 A 
ATOM      9  C   UNL     1      44.610   7.227  11.766  0.00  0.00    +0.000 A 
BRANCH   8  10
ATOM     10  C   UNL     1      45.196   9.681  11.594  0.00  0.00    +0.000 C 
ATOM     11  F   UNL     1      44.487   9.862  10.444  0.00  0.00    +0.000 F 
ATOM     12  F   UNL     1      44.426  10.197  12.590  0.00  0.00    +0.000 F 
ATOM     13  F   UNL     1      46.278  10.501  11.495  0.00  0.00    +0.000 F 
ENDBRANCH   8  10
ENDBRANCH   3   4
ENDBRANCH   1   3
BRANCH   1  14
ATOM     14  O   UNL     1      43.760   3.111  10.316  0.00  0.00    +0.000 OA
BRANCH  14  15
ATOM     15  C   UNL     1      44.693   3.018   9.319  0.00  0.00    +0.000 A 
ATOM     16  C   UNL     1      45.209   4.083   8.584  0.00  0.00    +0.000 A 
ATOM     17  C   UNL     1      46.158   3.850   7.583  0.00  0.00    +0.000 A 
ATOM     18  C   UNL     1      46.617   2.553   7.306  0.00  0.00    +0.000 A 
ATOM     19  C   UNL     1      46.090   1.482   8.041  0.00  0.00    +0.000 A 
ATOM     20 CL   UNL     1      46.516  -0.171   7.765  0.00  0.00    +0.000 Cl
ATOM     21  C   UNL     1      45.135   1.722   9.040  0.00  0.00    +0.000 A 
BRANCH  18  22
ATOM     22  C   UNL     1      47.634   2.448   6.225  0.00  0.00    +0.000 C 
ATOM     23  N   UNL     1      47.440   3.153   5.075  0.00  0.00    +0.000 N 
ATOM     24  O   UNL     1      48.602   1.704   6.339  0.00  0.00    +0.000 OA
ATOM     25  H   UNL     1      46.696   3.828   4.957  0.00  0.00    +0.000 HD
ATOM     26  H   UNL     1      48.155   3.093   4.362  0.00  0.00    +0.000 HD
ENDBRANCH  18  22
ENDBRANCH  14  15
ENDBRANCH   1  14
TORSDOF 6
ENDMDL
MODEL 4
REMARK VINA RESULT:    -7.772      1.959      2.530
REMARK INTER + INTRA:         -11.529
REMARK INTER:                 -10.519
REMARK INTRA:                  -1.010
REMARK UNBOUND:                -1.031
REMARK  Name = 
REMARK  7 active torsions:
REMARK  status: ('A' for Active; 'I' for Inactive)
REMARK    1  A    between atoms: C_1  and  C_2
REMARK    2  A    between atoms: C_2  and  C_3
REMARK    3  A    between atoms: C_2  and  C_15
REMARK    4  A    between atoms: C_3  and  O_4
REMARK    5  A    between atoms: O_4  and  C_5
REMARK    6  A    between atoms: C_8  and  C_9
REMARK    7  A    between atoms: C_19  and  C_20
REMARK                            x       y       z     vdW  Elec       q    Type
REMARK                         _______ _______ _______ _____ _____    ______ ____
ROOT
ATOM      1  C   UNL     1      44.675   4.123  11.755  0.00  0.00    +0.000 C 
ENDROOT
BRANCH   1   3
ATOM      2  C   UNL     1      42.679   5.726  11.474  0.00  0.00    +0.000 C 
ATOM      3  C   UNL     1      44.118   5.514  11.814  0.00  0.00    +0.000 C 
BRANCH   3   4
ATOM      4  C   UNL     1      45.024   6.659  11.970  0.00  0.00    +0.000 A 
ATOM      5  C   UNL     1      44.583   7.951  11.654  0.00  0.00    +0.000 A 
ATOM      6  C   UNL     1      45.441   9.047  11.762  0.00  0.00    +0.000 A 
ATOM      7  C   UNL     1      46.755   8.863  12.185  0.00  0.00    +0.000 A 
ATOM      8  C   UNL     1      47.220   7.583  12.517  0.00  0.00    +0.000 A 
ATOM      9  C   UNL     1      46.343   6.487  12.407  0.00  0.00    +0.000 A 
BRANCH   8  10
ATOM     10  C   UNL     1      48.640   7.373  12.984  0.00  0.00    +0.000 C 
ATOM     11  F   UNL     1      49.482   8.389  12.643  0.00  0.00    +0.000 F 
ATOM     12  F   UNL     1      48.731   7.255  14.337  0.00  0.00    +0.000 F 
ATOM     13  F   UNL     1      49.197   6.242  12.471  0.00  0.00    +0.000 F 
ENDBRANCH   8  10
ENDBRANCH   3   4
ENDBRANCH   1   3
BRANCH   1  14
ATOM     14  O   UNL     1      44.124   3.446  10.624  0.00  0.00    +0.000 OA
BRANCH  14  15
ATOM     15  C   UNL     1      44.933   3.338   9.525  0.00  0.00    +0.000 A 
ATOM     16  C   UNL     1      45.380   4.395   8.735  0.00  0.00    +0.000 A 
ATOM     17  C   UNL     1      46.202   4.147   7.631  0.00  0.00    +0.000 A 
ATOM     18  C   UNL     1      46.603   2.843   7.303  0.00  0.00    +0.000 A 
ATOM     19  C   UNL     1      46.145   1.780   8.094  0.00  0.00    +0.000 A 
ATOM     20 CL   UNL     1      46.507   0.120   7.771  0.00  0.00    +0.000 Cl
ATOM     21  C   UNL     1      45.316   2.035   9.197  0.00  0.00    +0.000 A 
BRANCH  18  22
ATOM     22  C   UNL     1      47.485   2.721   6.111  0.00  0.00    +0.000 C 
ATOM     23  N   UNL     1      48.803   2.434   6.301  0.00  0.00    +0.000 N 
ATOM     24  O   UNL     1      47.052   2.925   4.982  0.00  0.00    +0.000 OA
ATOM     25  H   UNL     1      49.194   2.192   7.202  0.00  0.00    +0.000 HD
ATOM     26  H   UNL     1      49.383   2.326   5.478  0.00  0.00    +0.000 HD
ENDBRANCH  18  22
ENDBRANCH  14  15
ENDBRANCH   1  14
TORSDOF 6
ENDMDL
MODEL 5
REMARK VINA RESULT:    -7.747      4.829      6.942
REMARK INTER + INTRA:         -11.495
REMARK INTER:                 -10.202
REMARK INTRA:                  -1.293
REMARK UNBOUND:                -1.031
REMARK  Name = 
REMARK  7 active torsions:
REMARK  status: ('A' for Active; 'I' for Inactive)
REMARK    1  A    between atoms: C_1  and  C_2
REMARK    2  A    between atoms: C_2  and  C_3
REMARK    3  A    between atoms: C_2  and  C_15
REMARK    4  A    between atoms: C_3  and  O_4
REMARK    5  A    between atoms: O_4  and  C_5
REMARK    6  A    between atoms: C_8  and  C_9
REMARK    7  A    between atoms: C_19  and  C_20
REMARK                            x       y       z     vdW  Elec       q    Type
REMARK                         _______ _______ _______ _____ _____    ______ ____
ROOT
ATOM      1  C   UNL     1      43.078   4.666  11.189  0.00  0.00    +0.000 C 
ENDROOT
BRANCH   1   3
ATOM      2  C   UNL     1      43.537   2.150  11.497  0.00  0.00    +0.000 C 
ATOM      3  C   UNL     1      43.740   3.407  10.714  0.00  0.00    +0.000 C 
BRANCH   3   4
ATOM      4  C   UNL     1      44.746   3.466   9.647  0.00  0.00    +0.000 A 
ATOM      5  C   UNL     1      45.175   4.705   9.154  0.00  0.00    +0.000 A 
ATOM      6  C   UNL     1      46.104   4.780   8.116  0.00  0.00    +0.000 A 
ATOM      7  C   UNL     1      46.613   3.613   7.551  0.00  0.00    +0.000 A 
ATOM      8  C   UNL     1      46.208   2.359   8.031  0.00  0.00    +0.000 A 
ATOM      9  C   UNL     1      45.274   2.298   9.082  0.00  0.00    +0.000 A 
BRANCH   8  10
ATOM     10  C   UNL     1      46.760   1.088   7.432  0.00  0.00    +0.000 C 
ATOM     11  F   UNL     1      48.107   0.952   7.586  0.00  0.00    +0.000 F 
ATOM     12  F   UNL     1      46.209  -0.029   7.984  0.00  0.00    +0.000 F 
ATOM     13  F   UNL     1      46.528   0.997   6.094  0.00  0.00    +0.000 F 
ENDBRANCH   8  10
ENDBRANCH   3   4
ENDBRANCH   1   3
BRANCH   1  14
ATOM     14  O   UNL     1      43.390   4.866  12.569  0.00  0.00    +0.000 OA
BRANCH  14  15
ATOM     15  C   UNL     1      44.657   5.302  12.849  0.00  0.00    +0.000 A 
ATOM     16  C   UNL     1      45.665   4.547  13.445  0.00  0.00    +0.000 A 
ATOM     17  C   UNL     1      46.920   5.116  13.683  0.00  0.00    +0.000 A 
ATOM     18  C   UNL     1      47.196   6.444  13.321  0.00  0.00    +0.000 A 
ATOM     19  C   UNL     1      46.177   7.204  12.730  0.00  0.00    +0.000 A 
ATOM     20 CL   UNL     1      46.356   8.867  12.289  0.00  0.00    +0.000 Cl
ATOM     21  C   UNL     1      44.919   6.629  12.498  0.00  0.00    +0.000 A 
BRANCH  18  22
ATOM     22  C   UNL     1      48.573   6.920  13.621  0.00  0.00    +0.000 C 
ATOM     23  N   UNL     1      48.787   7.613  14.774  0.00  0.00    +0.000 N 
ATOM     24  O   UNL     1      49.490   6.741  12.827  0.00  0.00    +0.000 OA
ATOM     25  H   UNL     1      48.083   7.730  15.490  0.00  0.00    +0.000 HD
ATOM     26  H   UNL     1      49.735   7.905  14.977  0.00  0.00    +0.000 HD
ENDBRANCH  18  22
ENDBRANCH  14  15
ENDBRANCH   1  14
TORSDOF 6
ENDMDL
MODEL 6
REMARK VINA RESULT:    -7.272      5.020      7.544
REMARK INTER + INTRA:         -10.854
REMARK INTER:                 -10.175
REMARK INTRA:                  -0.680
REMARK UNBOUND:                -1.031
REMARK  Name = 
REMARK  7 active torsions:
REMARK  status: ('A' for Active; 'I' for Inactive)
REMARK    1  A    between atoms: C_1  and  C_2
REMARK    2  A    between atoms: C_2  and  C_3
REMARK    3  A    between atoms: C_2  and  C_15
REMARK    4  A    between atoms: C_3  and  O_4
REMARK    5  A    between atoms: O_4  and  C_5
REMARK    6  A    between atoms: C_8  and  C_9
REMARK    7  A    between atoms: C_19  and  C_20
REMARK                            x       y       z     vdW  Elec       q    Type
REMARK                         _______ _______ _______ _____ _____    ______ ____
ROOT
ATOM      1  C   UNL     1      44.969   6.601  11.212  0.00  0.00    +0.000 C 
ENDROOT
BRANCH   1   3
ATOM      2  C   UNL     1      42.650   5.559  11.626  0.00  0.00    +0.000 C 
ATOM      3  C   UNL     1      43.969   5.520  10.926  0.00  0.00    +0.000 C 
BRANCH   3   4
ATOM      4  C   UNL     1      44.373   4.334  10.160  0.00  0.00    +0.000 A 
ATOM      5  C   UNL     1      43.872   3.072  10.506  0.00  0.00    +0.000 A 
ATOM      6  C   UNL     1      44.272   1.929   9.813  0.00  0.00    +0.000 A 
ATOM      7  C   UNL     1      45.184   2.033   8.766  0.00  0.00    +0.000 A 
ATOM      8  C   UNL     1      45.695   3.285   8.392  0.00  0.00    +0.000 A 
ATOM      9  C   UNL     1      45.279   4.430   9.097  0.00  0.00    +0.000 A 
BRANCH   8  10
ATOM     10  C   UNL     1      46.677   3.411   7.253  0.00  0.00    +0.000 C 
ATOM     11  F   UNL     1      47.288   4.627   7.191  0.00  0.00    +0.000 F 
ATOM     12  F   UNL     1      47.682   2.495   7.329  0.00  0.00    +0.000 F 
ATOM     13  F   UNL     1      46.094   3.226   6.037  0.00  0.00    +0.000 F 
ENDBRANCH   8  10
ENDBRANCH   3   4
ENDBRANCH   1   3
BRANCH   1  14
ATOM     14  O   UNL     1      46.269   6.018  11.324  0.00  0.00    +0.000 OA
BRANCH  14  15
ATOM     15  C   UNL     1      46.682   5.692  12.587  0.00  0.00    +0.000 A 
ATOM     16  C   UNL     1      46.312   4.552  13.297  0.00  0.00    +0.000 A 
ATOM     17  C   UNL     1      46.803   4.340  14.589  0.00  0.00    +0.000 A 
ATOM     18  C   UNL     1      47.680   5.255  15.192  0.00  0.00    +0.000 A 
ATOM     19  C   UNL     1      48.044   6.406  14.480  0.00  0.00    +0.000 A 
ATOM     20 CL   UNL     1      49.065   7.647  15.120  0.00  0.00    +0.000 Cl
ATOM     21  C   UNL     1      47.544   6.615  13.185  0.00  0.00    +0.000 A 
BRANCH  18  22
ATOM     22  C   UNL     1      48.135   4.903  16.564  0.00  0.00    +0.000 C 
ATOM     23  N   UNL     1      47.285   5.115  17.608  0.00  0.00    +0.000 N 
ATOM     24  O   UNL     1      49.267   4.478  16.764  0.00  0.00    +0.000 OA
ATOM     25  H   UNL     1      46.321   5.399  17.490  0.00  0.00    +0.000 HD
ATOM     26  H   UNL     1      47.598   4.843  18.531  0.00  0.00    +0.000 HD
ENDBRANCH  18  22
ENDBRANCH  14  15
ENDBRANCH   1  14
TORSDOF 6
ENDMDL
MODEL 7
REMARK VINA RESULT:    -6.944      5.086      7.827
REMARK INTER + INTRA:         -10.411
REMARK INTER:                  -9.635
REMARK INTRA:                  -0.776
REMARK UNBOUND:                -1.031
REMARK  Name = 
REMARK  7 active torsions:
REMARK  status: ('A' for Active; 'I' for Inactive)
REMARK    1  A    between atoms: C_1  and  C_2
REMARK    2  A    between atoms: C_2  and  C_3
REMARK    3  A    between atoms: C_2  and  C_15
REMARK    4  A    between atoms: C_3  and  O_4
REMARK    5  A    between atoms: O_4  and  C_5
REMARK    6  A    between atoms: C_8  and  C_9
REMARK    7  A    between atoms: C_19  and  C_20
REMARK                            x       y       z     vdW  Elec       q    Type
REMARK                         _______ _______ _______ _____ _____    ______ ____
ROOT
ATOM      1  C   UNL     1      45.532   6.104  11.932  0.00  0.00    +0.000 C 
ENDROOT
BRANCH   1   3
ATOM      2  C   UNL     1      43.038   6.116  11.288  0.00  0.00    +0.000 C 
ATOM      3  C   UNL     1      44.414   5.569  11.088  0.00  0.00    +0.000 C 
BRANCH   3   4
ATOM      4  C   UNL     1      44.629   4.377  10.258  0.00  0.00    +0.000 A 
ATOM      5  C   UNL     1      43.990   3.172  10.581  0.00  0.00    +0.000 A 
ATOM      6  C   UNL     1      44.211   2.020   9.826  0.00  0.00    +0.000 A 
ATOM      7  C   UNL     1      45.079   2.056   8.738  0.00  0.00    +0.000 A 
ATOM      8  C   UNL     1      45.725   3.250   8.386  0.00  0.00    +0.000 A 
ATOM      9  C   UNL     1      45.490   4.406   9.154  0.00  0.00    +0.000 A 
BRANCH   8  10
ATOM     10  C   UNL     1      46.662   3.303   7.204  0.00  0.00    +0.000 C 
ATOM     11  F   UNL     1      46.044   3.093   6.008  0.00  0.00    +0.000 F 
ATOM     12  F   UNL     1      47.290   4.505   7.091  0.00  0.00    +0.000 F 
ATOM     13  F   UNL     1      47.650   2.370   7.279  0.00  0.00    +0.000 F 
ENDBRANCH   8  10
ENDBRANCH   3   4
ENDBRANCH   1   3
BRANCH   1  14
ATOM     14  O   UNL     1      46.227   5.012  12.536  0.00  0.00    +0.000 OA
BRANCH  14  15
ATOM     15  C   UNL     1      46.965   5.303  13.651  0.00  0.00    +0.000 A 
ATOM     16  C   UNL     1      47.819   6.392  13.802  0.00  0.00    +0.000 A 
ATOM     17  C   UNL     1      48.523   6.572  14.997  0.00  0.00    +0.000 A 
ATOM     18  C   UNL     1      48.380   5.674  16.066  0.00  0.00    +0.000 A 
ATOM     19  C   UNL     1      47.527   4.572  15.909  0.00  0.00    +0.000 A 
ATOM     20 CL   UNL     1      47.301   3.355  17.116  0.00  0.00    +0.000 Cl
ATOM     21  C   UNL     1      46.826   4.396  14.706  0.00  0.00    +0.000 A 
BRANCH  18  22
ATOM     22  C   UNL     1      49.178   5.987  17.282  0.00  0.00    +0.000 C 
ATOM     23  N   UNL     1      50.343   5.313  17.490  0.00  0.00    +0.000 N 
ATOM     24  O   UNL     1      48.776   6.798  18.109  0.00  0.00    +0.000 OA
ATOM     25  H   UNL     1      50.750   4.686  16.809  0.00  0.00    +0.000 HD
ATOM     26  H   UNL     1      50.889   5.559  18.306  0.00  0.00    +0.000 HD
ENDBRANCH  18  22
ENDBRANCH  14  15
ENDBRANCH   1  14
TORSDOF 6
ENDMDL
MODEL 8
REMARK VINA RESULT:    -6.875      4.996      7.400
REMARK INTER + INTRA:         -10.318
REMARK INTER:                  -9.059
REMARK INTRA:                  -1.258
REMARK UNBOUND:                -1.031
REMARK  Name = 
REMARK  7 active torsions:
REMARK  status: ('A' for Active; 'I' for Inactive)
REMARK    1  A    between atoms: C_1  and  C_2
REMARK    2  A    between atoms: C_2  and  C_3
REMARK    3  A    between atoms: C_2  and  C_15
REMARK    4  A    between atoms: C_3  and  O_4
REMARK    5  A    between atoms: O_4  and  C_5
REMARK    6  A    between atoms: C_8  and  C_9
REMARK    7  A    between atoms: C_19  and  C_20
REMARK                            x       y       z     vdW  Elec       q    Type
REMARK                         _______ _______ _______ _____ _____    ______ ____
ROOT
ATOM      1  C   UNL     1      45.836   7.616  12.846  0.00  0.00    +0.000 C 
ENDROOT
BRANCH   1   3
ATOM      2  C   UNL     1      44.278   8.633  11.065  0.00  0.00    +0.000 C 
ATOM      3  C   UNL     1      44.954   7.435  11.647  0.00  0.00    +0.000 C 
BRANCH   3   4
ATOM      4  C   UNL     1      44.582   6.084  11.209  0.00  0.00    +0.000 A 
ATOM      5  C   UNL     1      43.640   5.344  11.935  0.00  0.00    +0.000 A 
ATOM      6  C   UNL     1      43.301   4.045  11.554  0.00  0.00    +0.000 A 
ATOM      7  C   UNL     1      43.906   3.466  10.442  0.00  0.00    +0.000 A 
ATOM      8  C   UNL     1      44.846   4.185   9.691  0.00  0.00    +0.000 A 
ATOM      9  C   UNL     1      45.175   5.496  10.084  0.00  0.00    +0.000 A 
BRANCH   8  10
ATOM     10  C   UNL     1      45.502   3.570   8.479  0.00  0.00    +0.000 C 
ATOM     11  F   UNL     1      46.557   4.290   8.005  0.00  0.00    +0.000 F 
ATOM     12  F   UNL     1      45.986   2.322   8.727  0.00  0.00    +0.000 F 
ATOM     13  F   UNL     1      44.643   3.437   7.431  0.00  0.00    +0.000 F 
ENDBRANCH   8  10
ENDBRANCH   3   4
ENDBRANCH   1   3
BRANCH   1  14
ATOM     14  O   UNL     1      47.017   6.830  12.681  0.00  0.00    +0.000 OA
BRANCH  14  15
ATOM     15  C   UNL     1      47.221   5.837  13.601  0.00  0.00    +0.000 A 
ATOM     16  C   UNL     1      46.837   4.505  13.461  0.00  0.00    +0.000 A 
ATOM     17  C   UNL     1      47.100   3.589  14.483  0.00  0.00    +0.000 A 
ATOM     18  C   UNL     1      47.760   3.981  15.659  0.00  0.00    +0.000 A 
ATOM     19  C   UNL     1      48.137   5.324  15.801  0.00  0.00    +0.000 A 
ATOM     20 CL   UNL     1      48.899   5.960  17.217  0.00  0.00    +0.000 Cl
ATOM     21  C   UNL     1      47.866   6.240  14.773  0.00  0.00    +0.000 A 
BRANCH  18  22
ATOM     22  C   UNL     1      47.986   2.904  16.660  0.00  0.00    +0.000 C 
ATOM     23  N   UNL     1      47.073   2.738  17.658  0.00  0.00    +0.000 N 
ATOM     24  O   UNL     1      48.997   2.211  16.624  0.00  0.00    +0.000 OA
ATOM     25  H   UNL     1      46.194   3.237  17.693  0.00  0.00    +0.000 HD
ATOM     26  H   UNL     1      47.226   1.983  18.313  0.00  0.00    +0.000 HD
ENDBRANCH  18  22
ENDBRANCH  14  15
ENDBRANCH   1  14
TORSDOF 6
ENDMDL
MODEL 9
REMARK VINA RESULT:    -6.687      5.056      7.398
REMARK INTER + INTRA:         -10.063
REMARK INTER:                  -9.203
REMARK INTRA:                  -0.860
REMARK UNBOUND:                -1.031
REMARK  Name = 
REMARK  7 active torsions:
REMARK  status: ('A' for Active; 'I' for Inactive)
REMARK    1  A    between atoms: C_1  and  C_2
REMARK    2  A    between atoms: C_2  and  C_3
REMARK    3  A    between atoms: C_2  and  C_15
REMARK    4  A    between atoms: C_3  and  O_4
REMARK    5  A    between atoms: O_4  and  C_5
REMARK    6  A    between atoms: C_8  and  C_9
REMARK    7  A    between atoms: C_19  and  C_20
REMARK                            x       y       z     vdW  Elec       q    Type
REMARK                         _______ _______ _______ _____ _____    ______ ____
ROOT
ATOM      1  C   UNL     1      44.901   6.590  11.322  0.00  0.00    +0.000 C 
ENDROOT
BRANCH   1   3
ATOM      2  C   UNL     1      42.583   5.532  11.695  0.00  0.00    +0.000 C 
ATOM      3  C   UNL     1      43.910   5.509  11.009  0.00  0.00    +0.000 C 
BRANCH   3   4
ATOM      4  C   UNL     1      44.326   4.336  10.230  0.00  0.00    +0.000 A 
ATOM      5  C   UNL     1      43.832   3.066  10.555  0.00  0.00    +0.000 A 
ATOM      6  C   UNL     1      44.244   1.935   9.850  0.00  0.00    +0.000 A 
ATOM      7  C   UNL     1      45.163   2.059   8.811  0.00  0.00    +0.000 A 
ATOM      8  C   UNL     1      45.668   3.319   8.458  0.00  0.00    +0.000 A 
ATOM      9  C   UNL     1      45.239   4.452   9.175  0.00  0.00    +0.000 A 
BRANCH   8  10
ATOM     10  C   UNL     1      46.657   3.466   7.328  0.00  0.00    +0.000 C 
ATOM     11  F   UNL     1      47.674   2.560   7.372  0.00  0.00    +0.000 F 
ATOM     12  F   UNL     1      46.078   3.315   6.106  0.00  0.00    +0.000 F 
ATOM     13  F   UNL     1      47.252   4.690   7.311  0.00  0.00    +0.000 F 
ENDBRANCH   8  10
ENDBRANCH   3   4
ENDBRANCH   1   3
BRANCH   1  14
ATOM     14  O   UNL     1      45.525   6.303  12.575  0.00  0.00    +0.000 OA
BRANCH  14  15
ATOM     15  C   UNL     1      46.776   6.825  12.764  0.00  0.00    +0.000 A 
ATOM     16  C   UNL     1      47.789   6.256  13.534  0.00  0.00    +0.000 A 
ATOM     17  C   UNL     1      49.025   6.897  13.651  0.00  0.00    +0.000 A 
ATOM     18  C   UNL     1      49.279   8.112  12.993  0.00  0.00    +0.000 A 
ATOM     19  C   UNL     1      48.256   8.687  12.227  0.00  0.00    +0.000 A 
ATOM     20 CL   UNL     1      48.406  10.207  11.415  0.00  0.00    +0.000 Cl
ATOM     21  C   UNL     1      47.015   8.041  12.117  0.00  0.00    +0.000 A 
BRANCH  18  22
ATOM     22  C   UNL     1      50.639   8.681  13.194  0.00  0.00    +0.000 C 
ATOM     23  N   UNL     1      51.713   7.986  12.726  0.00  0.00    +0.000 N 
ATOM     24  O   UNL     1      50.800   9.727  13.813  0.00  0.00    +0.000 OA
ATOM     25  H   UNL     1      51.631   7.156  12.154  0.00  0.00    +0.000 HD
ATOM     26  H   UNL     1      52.629   8.401  12.845  0.00  0.00    +0.000 HD
ENDBRANCH  18  22
ENDBRANCH  14  15
ENDBRANCH   1  14
TORSDOF 6
ENDMDL
