MODEL 1
REMARK VINA RESULT:    -7.314      0.000      0.000
REMARK INTER + INTRA:         -10.120
REMARK INTER:                  -9.238
REMARK INTRA:                  -0.882
REMARK UNBOUND:                -0.882
REMARK  Name = 
REMARK  5 active torsions:
REMARK  status: ('A' for Active; 'I' for Inactive)
REMARK    1  A    between atoms: N_1  and  C_2
REMARK    2  A    between atoms: C_2  and  C_3
REMARK    3  A    between atoms: C_6  and  C_7
REMARK    4  A    between atoms: C_7  and  N_8
REMARK    5  A    between atoms: C_14  and  C_15
REMARK                            x       y       z     vdW  Elec       q    Type
REMARK                         _______ _______ _______ _____ _____    ______ ____
ROOT
ATOM      1  N   UNL     1      44.150   5.411  11.256  0.00  0.00    +0.000 N 
ATOM      2  C   UNL     1      43.212   4.862  12.095  0.00  0.00    +0.000 A 
ATOM      3  C   UNL     1      43.044   3.544  11.749  0.00  0.00    +0.000 A 
ATOM      4  C   UNL     1      43.907   3.274  10.653  0.00  0.00    +0.000 A 
ATOM      5  C   UNL     1      44.171   2.117   9.899  0.00  0.00    +0.000 A 
ATOM      6  C   UNL     1      45.075   2.177   8.833  0.00  0.00    +0.000 A 
ATOM      7  C   UNL     1      45.721   3.375   8.505  0.00  0.00    +0.000 A 
ATOM      8  C   UNL     1      45.483   4.537   9.270  0.00  0.00    +0.000 A 
ATOM      9  C   UNL     1      44.575   4.463  10.341  0.00  0.00    +0.000 A 
ENDROOT
BRANCH   7  10
ATOM     10  C   UNL     1      46.663   3.439   7.329  0.00  0.00    +0.000 C 
ATOM     11  F   UNL     1      46.043   3.319   6.119  0.00  0.00    +0.000 F 
ATOM     12  F   UNL     1      47.352   4.615   7.272  0.00  0.00    +0.000 F 
ATOM     13  F   UNL     1      47.608   2.457   7.357  0.00  0.00    +0.000 F 
ENDBRANCH   7  10
BRANCH   1  14
ATOM     14  C   UNL     1      44.668   6.767  11.399  0.00  0.00    +0.000 C 
BRANCH  14  18
ATOM     15  C   UNL     1      48.218   7.742  12.457  0.00  0.00    +0.000 C 
ATOM     16  C   UNL     1      47.675   6.305  12.364  0.00  0.00    +0.000 C 
ATOM     17  C   UNL     1      46.402   6.109  13.186  0.00  0.00    +0.000 C 
ATOM     18  C   UNL     1      45.279   7.079  12.782  0.00  0.00    +0.000 C 
ATOM     19  C   UNL     1      45.799   8.529  12.838  0.00  0.00    +0.000 C 
ATOM     20  C   UNL     1      47.113   8.744  12.079  0.00  0.00    +0.000 C 
BRANCH  15  21
ATOM     21  C   UNL     1      48.824   8.064  13.840  0.00  0.00    +0.000 C 
BRANCH  21  22
ATOM     22  N   UNL     1      49.785   7.043  14.251  0.00  0.00    +0.000 NA
ATOM     23  H   UNL     1      49.611   6.776  15.219  0.00  0.00    +0.000 HD
ATOM     24  H   UNL     1      50.729   7.427  14.222  0.00  0.00    +0.000 HD
ENDBRANCH  21  22
ENDBRANCH  15  21
ENDBRANCH  14  18
ENDBRANCH   1  14
TORSDOF 5
ENDMDL
MODEL 2
REMARK VINA RESULT:    -6.601      0.972      1.845
REMARK INTER + INTRA:          -9.219
REMARK INTER:                  -8.538
REMARK INTRA:                  -0.682
REMARK UNBOUND:                -0.882
REMARK  Name = 
REMARK  5 active torsions:
REMARK  status: ('A' for Active; 'I' for Inactive)
REMARK    1  A    between atoms: N_1  and  C_2
REMARK    2  A    between atoms: C_2  and  C_3
REMARK    3  A    between atoms: C_6  and  C_7
REMARK    4  A    between atoms: C_7  and  N_8
REMARK    5  A    between atoms: C_14  and  C_15
REMARK                            x       y       z     vdW  Elec       q    Type
REMARK                         _______ _______ _______ _____ _____    ______ ____
ROOT
ATOM      1  N   UNL     1      44.922   6.025  11.792  0.00  0.00    +0.000 N 
ATOM      2  C   UNL     1      44.048   5.742  12.813  0.00  0.00    +0.000 A 
ATOM      3  C   UNL     1      43.514   4.497  12.589  0.00  0.00    +0.000 A 
ATOM      4  C   UNL     1      44.076   3.999  11.383  0.00  0.00    +0.000 A 
ATOM      5  C   UNL     1      43.919   2.795  10.674  0.00  0.00    +0.000 A 
ATOM      6  C   UNL     1      44.603   2.608   9.469  0.00  0.00    +0.000 A 
ATOM      7  C   UNL     1      45.443   3.604   8.956  0.00  0.00    +0.000 A 
ATOM      8  C   UNL     1      45.628   4.806   9.671  0.00  0.00    +0.000 A 
ATOM      9  C   UNL     1      44.938   4.981  10.884  0.00  0.00    +0.000 A 
ENDROOT
BRANCH   7  10
ATOM     10  C   UNL     1      46.146   3.408   7.636  0.00  0.00    +0.000 C 
ATOM     11  F   UNL     1      46.940   2.299   7.595  0.00  0.00    +0.000 F 
ATOM     12  F   UNL     1      45.277   3.275   6.595  0.00  0.00    +0.000 F 
ATOM     13  F   UNL     1      46.958   4.453   7.311  0.00  0.00    +0.000 F 
ENDBRANCH   7  10
BRANCH   1  14
ATOM     14  C   UNL     1      45.761   7.218  11.755  0.00  0.00    +0.000 C 
BRANCH  14  18
ATOM     15  C   UNL     1      48.533   7.926  14.302  0.00  0.00    +0.000 C 
ATOM     16  C   UNL     1      48.093   8.874  13.173  0.00  0.00    +0.000 C 
ATOM     17  C   UNL     1      48.140   8.205  11.800  0.00  0.00    +0.000 C 
ATOM     18  C   UNL     1      47.278   6.934  11.729  0.00  0.00    +0.000 C 
ATOM     19  C   UNL     1      47.677   5.972  12.866  0.00  0.00    +0.000 C 
ATOM     20  C   UNL     1      47.705   6.630  14.249  0.00  0.00    +0.000 C 
BRANCH  15  21
ATOM     21  C   UNL     1      50.049   7.631  14.277  0.00  0.00    +0.000 C 
BRANCH  21  22
ATOM     22  N   UNL     1      50.434   6.725  15.356  0.00  0.00    +0.000 NA
ATOM     23  H   UNL     1      51.281   6.223  15.098  0.00  0.00    +0.000 HD
ATOM     24  H   UNL     1      49.709   6.021  15.490  0.00  0.00    +0.000 HD
ENDBRANCH  21  22
ENDBRANCH  15  21
ENDBRANCH  14  18
ENDBRANCH   1  14
TORSDOF 5
ENDMDL
MODEL 3
REMARK VINA RESULT:    -6.134      4.544      7.568
REMARK INTER + INTRA:          -8.630
REMARK INTER:                  -7.996
REMARK INTRA:                  -0.634
REMARK UNBOUND:                -0.882
REMARK  Name = 
REMARK  5 active torsions:
REMARK  status: ('A' for Active; 'I' for Inactive)
REMARK    1  A    between atoms: N_1  and  C_2
REMARK    2  A    between atoms: C_2  and  C_3
REMARK    3  A    between atoms: C_6  and  C_7
REMARK    4  A    between atoms: C_7  and  N_8
REMARK    5  A    between atoms: C_14  and  C_15
REMARK                            x       y       z     vdW  Elec       q    Type
REMARK                         _______ _______ _______ _____ _____    ______ ____
ROOT
ATOM      1  N   UNL     1      47.837   6.829  13.987  0.00  0.00    +0.000 N 
ATOM      2  C   UNL     1      48.259   8.134  14.055  0.00  0.00    +0.000 A 
ATOM      3  C   UNL     1      48.868   8.325  15.271  0.00  0.00    +0.000 A 
ATOM      4  C   UNL     1      48.812   7.095  15.978  0.00  0.00    +0.000 A 
ATOM      5  C   UNL     1      49.276   6.690  17.243  0.00  0.00    +0.000 A 
ATOM      6  C   UNL     1      49.035   5.385  17.683  0.00  0.00    +0.000 A 
ATOM      7  C   UNL     1      48.337   4.473  16.881  0.00  0.00    +0.000 A 
ATOM      8  C   UNL     1      47.888   4.860  15.601  0.00  0.00    +0.000 A 
ATOM      9  C   UNL     1      48.140   6.174  15.168  0.00  0.00    +0.000 A 
ENDROOT
BRANCH   7  10
ATOM     10  C   UNL     1      48.048   3.080  17.381  0.00  0.00    +0.000 C 
ATOM     11  F   UNL     1      48.546   2.828  18.627  0.00  0.00    +0.000 F 
ATOM     12  F   UNL     1      46.712   2.818  17.462  0.00  0.00    +0.000 F 
ATOM     13  F   UNL     1      48.568   2.112  16.575  0.00  0.00    +0.000 F 
ENDBRANCH   7  10
BRANCH   1  14
ATOM     14  C   UNL     1      47.245   6.233  12.794  0.00  0.00    +0.000 C 
BRANCH  14  18
ATOM     15  C   UNL     1      44.881   3.754  11.079  0.00  0.00    +0.000 C 
ATOM     16  C   UNL     1      45.303   5.123  10.517  0.00  0.00    +0.000 C 
ATOM     17  C   UNL     1      45.022   6.265  11.494  0.00  0.00    +0.000 C 
ATOM     18  C   UNL     1      45.712   6.066  12.853  0.00  0.00    +0.000 C 
ATOM     19  C   UNL     1      45.331   4.688  13.433  0.00  0.00    +0.000 C 
ATOM     20  C   UNL     1      45.537   3.528  12.453  0.00  0.00    +0.000 C 
BRANCH  15  21
ATOM     21  C   UNL     1      43.349   3.583  11.149  0.00  0.00    +0.000 C 
BRANCH  21  22
ATOM     22  N   UNL     1      42.981   2.248  11.614  0.00  0.00    +0.000 NA
ATOM     23  H   UNL     1      43.721   1.875  12.208  0.00  0.00    +0.000 HD
ATOM     24  H   UNL     1      42.902   1.615  10.819  0.00  0.00    +0.000 HD
ENDBRANCH  21  22
ENDBRANCH  15  21
ENDBRANCH  14  18
ENDBRANCH   1  14
TORSDOF 5
ENDMDL
MODEL 4
REMARK VINA RESULT:    -5.745      3.390      6.742
REMARK INTER + INTRA:          -8.139
REMARK INTER:                  -7.615
REMARK INTRA:                  -0.524
REMARK UNBOUND:                -0.882
REMARK  Name = 
REMARK  5 active torsions:
REMARK  status: ('A' for Active; 'I' for Inactive)
REMARK    1  A    between atoms: N_1  and  C_2
REMARK    2  A    between atoms: C_2  and  C_3
REMARK    3  A    between atoms: C_6  and  C_7
REMARK    4  A    between atoms: C_7  and  N_8
REMARK    5  A    between atoms: C_14  and  C_15
REMARK                            x       y       z     vdW  Elec       q    Type
REMARK                         _______ _______ _______ _____ _____    ______ ____
ROOT
ATOM      1  N   UNL     1      47.514   7.892  12.276  0.00  0.00    +0.000 N 
ATOM      2  C   UNL     1      46.663   8.934  12.553  0.00  0.00    +0.000 A 
ATOM      3  C   UNL     1      47.314  10.108  12.265  0.00  0.00    +0.000 A 
ATOM      4  C   UNL     1      48.614   9.776  11.798  0.00  0.00    +0.000 A 
ATOM      5  C   UNL     1      49.702  10.548  11.351  0.00  0.00    +0.000 A 
ATOM      6  C   UNL     1      50.891   9.914  10.977  0.00  0.00    +0.000 A 
ATOM      7  C   UNL     1      51.016   8.521  11.042  0.00  0.00    +0.000 A 
ATOM      8  C   UNL     1      49.923   7.735  11.466  0.00  0.00    +0.000 A 
ATOM      9  C   UNL     1      48.731   8.383  11.836  0.00  0.00    +0.000 A 
ENDROOT
BRANCH   7  10
ATOM     10  C   UNL     1      52.316   7.851  10.674  0.00  0.00    +0.000 C 
ATOM     11  F   UNL     1      53.006   8.495   9.688  0.00  0.00    +0.000 F 
ATOM     12  F   UNL     1      53.177   7.764  11.727  0.00  0.00    +0.000 F 
ATOM     13  F   UNL     1      52.143   6.575  10.229  0.00  0.00    +0.000 F 
ENDBRANCH   7  10
BRANCH   1  14
ATOM     14  C   UNL     1      47.125   6.488  12.355  0.00  0.00    +0.000 C 
BRANCH  14  18
ATOM     15  C   UNL     1      44.818   3.663  11.185  0.00  0.00    +0.000 C 
ATOM     16  C   UNL     1      45.117   4.955  10.404  0.00  0.00    +0.000 C 
ATOM     17  C   UNL     1      44.827   6.211  11.225  0.00  0.00    +0.000 C 
ATOM     18  C   UNL     1      45.612   6.251  12.546  0.00  0.00    +0.000 C 
ATOM     19  C   UNL     1      45.355   4.955  13.342  0.00  0.00    +0.000 C 
ATOM     20  C   UNL     1      45.571   3.677  12.526  0.00  0.00    +0.000 C 
BRANCH  15  21
ATOM     21  C   UNL     1      43.306   3.424  11.387  0.00  0.00    +0.000 C 
BRANCH  21  22
ATOM     22  N   UNL     1      43.028   2.032  11.729  0.00  0.00    +0.000 NA
ATOM     23  H   UNL     1      42.627   1.980  12.664  0.00  0.00    +0.000 HD
ATOM     24  H   UNL     1      43.899   1.503  11.758  0.00  0.00    +0.000 HD
ENDBRANCH  21  22
ENDBRANCH  15  21
ENDBRANCH  14  18
ENDBRANCH   1  14
TORSDOF 5
ENDMDL
MODEL 5
REMARK VINA RESULT:    -5.699      4.221      5.588
REMARK INTER + INTRA:          -8.080
REMARK INTER:                  -7.607
REMARK INTRA:                  -0.473
REMARK UNBOUND:                -0.882
REMARK  Name = 
REMARK  5 active torsions:
REMARK  status: ('A' for Active; 'I' for Inactive)
REMARK    1  A    between atoms: N_1  and  C_2
REMARK    2  A    between atoms: C_2  and  C_3
REMARK    3  A    between atoms: C_6  and  C_7
REMARK    4  A    between atoms: C_7  and  N_8
REMARK    5  A    between atoms: C_14  and  C_15
REMARK                            x       y       z     vdW  Elec       q    Type
REMARK                         _______ _______ _______ _____ _____    ______ ____
ROOT
ATOM      1  N   UNL     1      47.553   5.474  14.009  0.00  0.00    +0.000 N 
ATOM      2  C   UNL     1      48.229   6.643  13.763  0.00  0.00    +0.000 A 
ATOM      3  C   UNL     1      47.669   7.239  12.659  0.00  0.00    +0.000 A 
ATOM      4  C   UNL     1      46.614   6.402  12.208  0.00  0.00    +0.000 A 
ATOM      5  C   UNL     1      45.694   6.500  11.148  0.00  0.00    +0.000 A 
ATOM      6  C   UNL     1      44.771   5.472  10.937  0.00  0.00    +0.000 A 
ATOM      7  C   UNL     1      44.748   4.343  11.766  0.00  0.00    +0.000 A 
ATOM      8  C   UNL     1      45.650   4.245  12.847  0.00  0.00    +0.000 A 
ATOM      9  C   UNL     1      46.572   5.287  13.051  0.00  0.00    +0.000 A 
ENDROOT
BRANCH   7  10
ATOM     10  C   UNL     1      43.774   3.222  11.505  0.00  0.00    +0.000 C 
ATOM     11  F   UNL     1      44.076   2.476  10.403  0.00  0.00    +0.000 F 
ATOM     12  F   UNL     1      43.707   2.335  12.539  0.00  0.00    +0.000 F 
ATOM     13  F   UNL     1      42.500   3.665  11.311  0.00  0.00    +0.000 F 
ENDBRANCH   7  10
BRANCH   1  14
ATOM     14  C   UNL     1      47.798   4.629  15.173  0.00  0.00    +0.000 C 
BRANCH  14  18
ATOM     15  C   UNL     1      49.358   3.779  18.567  0.00  0.00    +0.000 C 
ATOM     16  C   UNL     1      47.943   3.383  18.109  0.00  0.00    +0.000 C 
ATOM     17  C   UNL     1      47.119   4.589  17.657  0.00  0.00    +0.000 C 
ATOM     18  C   UNL     1      47.793   5.377  16.523  0.00  0.00    +0.000 C 
ATOM     19  C   UNL     1      49.226   5.767  16.940  0.00  0.00    +0.000 C 
ATOM     20  C   UNL     1      50.058   4.590  17.462  0.00  0.00    +0.000 C 
BRANCH  15  21
ATOM     21  C   UNL     1      49.360   4.535  19.913  0.00  0.00    +0.000 C 
BRANCH  21  22
ATOM     22  N   UNL     1      48.507   3.875  20.897  0.00  0.00    +0.000 NA
ATOM     23  H   UNL     1      48.524   4.396  21.772  0.00  0.00    +0.000 HD
ATOM     24  H   UNL     1      48.876   2.948  21.105  0.00  0.00    +0.000 HD
ENDBRANCH  21  22
ENDBRANCH  15  21
ENDBRANCH  14  18
ENDBRANCH   1  14
TORSDOF 5
ENDMDL
MODEL 6
REMARK VINA RESULT:    -5.378      3.480      6.565
REMARK INTER + INTRA:          -7.675
REMARK INTER:                  -7.179
REMARK INTRA:                  -0.496
REMARK UNBOUND:                -0.882
REMARK  Name = 
REMARK  5 active torsions:
REMARK  status: ('A' for Active; 'I' for Inactive)
REMARK    1  A    between atoms: N_1  and  C_2
REMARK    2  A    between atoms: C_2  and  C_3
REMARK    3  A    between atoms: C_6  and  C_7
REMARK    4  A    between atoms: C_7  and  N_8
REMARK    5  A    between atoms: C_14  and  C_15
REMARK                            x       y       z     vdW  Elec       q    Type
REMARK                         _______ _______ _______ _____ _____    ______ ____
ROOT
ATOM      1  N   UNL     1      44.342   7.162  11.569  0.00  0.00    +0.000 N 
ATOM      2  C   UNL     1      43.599   8.134  10.944  0.00  0.00    +0.000 A 
ATOM      3  C   UNL     1      44.239   9.337  11.112  0.00  0.00    +0.000 A 
ATOM      4  C   UNL     1      45.415   9.098  11.872  0.00  0.00    +0.000 A 
ATOM      5  C   UNL     1      46.449   9.932  12.332  0.00  0.00    +0.000 A 
ATOM      6  C   UNL     1      47.482   9.391  13.103  0.00  0.00    +0.000 A 
ATOM      7  C   UNL     1      47.501   8.028  13.426  0.00  0.00    +0.000 A 
ATOM      8  C   UNL     1      46.482   7.177  12.949  0.00  0.00    +0.000 A 
ATOM      9  C   UNL     1      45.451   7.732  12.172  0.00  0.00    +0.000 A 
ENDROOT
BRANCH   7  10
ATOM     10  C   UNL     1      48.599   7.462  14.292  0.00  0.00    +0.000 C 
ATOM     11  F   UNL     1      48.238   6.332  14.968  0.00  0.00    +0.000 F 
ATOM     12  F   UNL     1      49.708   7.122  13.577  0.00  0.00    +0.000 F 
ATOM     13  F   UNL     1      49.024   8.340  15.244  0.00  0.00    +0.000 F 
ENDBRANCH   7  10
BRANCH   1  14
ATOM     14  C   UNL     1      44.028   5.739  11.505  0.00  0.00    +0.000 C 
BRANCH  14  18
ATOM     15  C   UNL     1      44.413   2.792   9.089  0.00  0.00    +0.000 C 
ATOM     16  C   UNL     1      43.986   2.689  10.563  0.00  0.00    +0.000 C 
ATOM     17  C   UNL     1      44.990   3.349  11.508  0.00  0.00    +0.000 C 
ATOM     18  C   UNL     1      45.232   4.830  11.176  0.00  0.00    +0.000 C 
ATOM     19  C   UNL     1      45.637   4.971   9.694  0.00  0.00    +0.000 C 
ATOM     20  C   UNL     1      44.686   4.262   8.724  0.00  0.00    +0.000 C 
BRANCH  15  21
ATOM     21  C   UNL     1      45.622   1.892   8.753  0.00  0.00    +0.000 C 
BRANCH  21  22
ATOM     22  N   UNL     1      46.299   2.338   7.539  0.00  0.00    +0.000 NA
ATOM     23  H   UNL     1      46.689   1.536   7.046  0.00  0.00    +0.000 HD
ATOM     24  H   UNL     1      47.087   2.938   7.784  0.00  0.00    +0.000 HD
ENDBRANCH  21  22
ENDBRANCH  15  21
ENDBRANCH  14  18
ENDBRANCH   1  14
TORSDOF 5
ENDMDL
MODEL 7
REMARK VINA RESULT:    -5.315      4.438      7.724
REMARK INTER + INTRA:          -7.595
REMARK INTER:                  -6.906
REMARK INTRA:                  -0.689
REMARK UNBOUND:                -0.882
REMARK  Name = 
REMARK  5 active torsions:
REMARK  status: ('A' for Active; 'I' for Inactive)
REMARK    1  A    between atoms: N_1  and  C_2
REMARK    2  A    between atoms: C_2  and  C_3
REMARK    3  A    between atoms: C_6  and  C_7
REMARK    4  A    between atoms: C_7  and  N_8
REMARK    5  A    between atoms: C_14  and  C_15
REMARK                            x       y       z     vdW  Elec       q    Type
REMARK                         _______ _______ _______ _____ _____    ______ ____
ROOT
ATOM      1  N   UNL     1      47.675   7.553  13.037  0.00  0.00    +0.000 N 
ATOM      2  C   UNL     1      48.137   8.403  12.063  0.00  0.00    +0.000 A 
ATOM      3  C   UNL     1      49.426   8.756  12.377  0.00  0.00    +0.000 A 
ATOM      4  C   UNL     1      49.767   8.102  13.592  0.00  0.00    +0.000 A 
ATOM      5  C   UNL     1      50.935   8.075  14.375  0.00  0.00    +0.000 A 
ATOM      6  C   UNL     1      50.951   7.343  15.566  0.00  0.00    +0.000 A 
ATOM      7  C   UNL     1      49.820   6.636  15.992  0.00  0.00    +0.000 A 
ATOM      8  C   UNL     1      48.651   6.635  15.202  0.00  0.00    +0.000 A 
ATOM      9  C   UNL     1      48.648   7.372  14.005  0.00  0.00    +0.000 A 
ENDROOT
BRANCH   7  10
ATOM     10  C   UNL     1      49.835   5.881  17.298  0.00  0.00    +0.000 C 
ATOM     11  F   UNL     1      50.871   6.224  18.119  0.00  0.00    +0.000 F 
ATOM     12  F   UNL     1      48.705   6.082  18.032  0.00  0.00    +0.000 F 
ATOM     13  F   UNL     1      49.934   4.533  17.126  0.00  0.00    +0.000 F 
ENDBRANCH   7  10
BRANCH   1  14
ATOM     14  C   UNL     1      46.379   6.884  12.977  0.00  0.00    +0.000 C 
BRANCH  14  18
ATOM     15  C   UNL     1      43.519   4.593  11.862  0.00  0.00    +0.000 C 
ATOM     16  C   UNL     1      44.309   4.463  13.176  0.00  0.00    +0.000 C 
ATOM     17  C   UNL     1      45.816   4.371  12.943  0.00  0.00    +0.000 C 
ATOM     18  C   UNL     1      46.370   5.574  12.162  0.00  0.00    +0.000 C 
ATOM     19  C   UNL     1      45.581   5.749  10.848  0.00  0.00    +0.000 C 
ATOM     20  C   UNL     1      44.061   5.777  11.041  0.00  0.00    +0.000 C 
BRANCH  15  21
ATOM     21  C   UNL     1      43.513   3.288  11.037  0.00  0.00    +0.000 C 
BRANCH  21  22
ATOM     22  N   UNL     1      43.044   2.157  11.833  0.00  0.00    +0.000 NA
ATOM     23  H   UNL     1      42.107   2.347  12.184  0.00  0.00    +0.000 HD
ATOM     24  H   UNL     1      43.641   2.039  12.651  0.00  0.00    +0.000 HD
ENDBRANCH  21  22
ENDBRANCH  15  21
ENDBRANCH  14  18
ENDBRANCH   1  14
TORSDOF 5
ENDMDL
MODEL 8
REMARK VINA RESULT:    -5.282      1.546      2.305
REMARK INTER + INTRA:          -7.554
REMARK INTER:                  -6.986
REMARK INTRA:                  -0.568
REMARK UNBOUND:                -0.882
REMARK  Name = 
REMARK  5 active torsions:
REMARK  status: ('A' for Active; 'I' for Inactive)
REMARK    1  A    between atoms: N_1  and  C_2
REMARK    2  A    between atoms: C_2  and  C_3
REMARK    3  A    between atoms: C_6  and  C_7
REMARK    4  A    between atoms: C_7  and  N_8
REMARK    5  A    between atoms: C_14  and  C_15
REMARK                            x       y       z     vdW  Elec       q    Type
REMARK                         _______ _______ _______ _____ _____    ______ ____
ROOT
ATOM      1  N   UNL     1      45.228   4.447  12.099  0.00  0.00    +0.000 N 
ATOM      2  C   UNL     1      44.225   3.975  12.910  0.00  0.00    +0.000 A 
ATOM      3  C   UNL     1      43.554   2.987  12.233  0.00  0.00    +0.000 A 
ATOM      4  C   UNL     1      44.163   2.850  10.957  0.00  0.00    +0.000 A 
ATOM      5  C   UNL     1      43.918   2.004   9.860  0.00  0.00    +0.000 A 
ATOM      6  C   UNL     1      44.690   2.134   8.702  0.00  0.00    +0.000 A 
ATOM      7  C   UNL     1      45.705   3.096   8.617  0.00  0.00    +0.000 A 
ATOM      8  C   UNL     1      45.976   3.933   9.720  0.00  0.00    +0.000 A 
ATOM      9  C   UNL     1      45.195   3.791  10.881  0.00  0.00    +0.000 A 
ENDROOT
BRANCH   7  10
ATOM     10  C   UNL     1      46.505   3.255   7.349  0.00  0.00    +0.000 C 
ATOM     11  F   UNL     1      47.104   4.475   7.225  0.00  0.00    +0.000 F 
ATOM     12  F   UNL     1      47.512   2.342   7.247  0.00  0.00    +0.000 F 
ATOM     13  F   UNL     1      45.749   3.100   6.225  0.00  0.00    +0.000 F 
ENDBRANCH   7  10
BRANCH   1  14
ATOM     14  C   UNL     1      46.220   5.427  12.528  0.00  0.00    +0.000 C 
BRANCH  14  18
ATOM     15  C   UNL     1      45.486   9.174  12.833  0.00  0.00    +0.000 C 
ATOM     16  C   UNL     1      44.514   8.115  12.285  0.00  0.00    +0.000 C 
ATOM     17  C   UNL     1      45.123   7.302  11.143  0.00  0.00    +0.000 C 
ATOM     18  C   UNL     1      46.430   6.599  11.545  0.00  0.00    +0.000 C 
ATOM     19  C   UNL     1      47.418   7.631  12.125  0.00  0.00    +0.000 C 
ATOM     20  C   UNL     1      46.817   8.509  13.228  0.00  0.00    +0.000 C 
BRANCH  15  21
ATOM     21  C   UNL     1      45.708  10.346  11.853  0.00  0.00    +0.000 C 
BRANCH  21  22
ATOM     22  N   UNL     1      46.703  11.286  12.361  0.00  0.00    +0.000 NA
ATOM     23  H   UNL     1      46.236  12.089  12.780  0.00  0.00    +0.000 HD
ATOM     24  H   UNL     1      47.262  11.648  11.588  0.00  0.00    +0.000 HD
ENDBRANCH  21  22
ENDBRANCH  15  21
ENDBRANCH  14  18
ENDBRANCH   1  14
TORSDOF 5
ENDMDL
MODEL 9
REMARK VINA RESULT:    -5.078      2.845      4.344
REMARK INTER + INTRA:          -7.296
REMARK INTER:                  -6.569
REMARK INTRA:                  -0.727
REMARK UNBOUND:                -0.882
REMARK  Name = 
REMARK  5 active torsions:
REMARK  status: ('A' for Active; 'I' for Inactive)
REMARK    1  A    between atoms: N_1  and  C_2
REMARK    2  A    between atoms: C_2  and  C_3
REMARK    3  A    between atoms: C_6  and  C_7
REMARK    4  A    between atoms: C_7  and  N_8
REMARK    5  A    between atoms: C_14  and  C_15
REMARK                            x       y       z     vdW  Elec       q    Type
REMARK                         _______ _______ _______ _____ _____    ______ ____
ROOT
ATOM      1  N   UNL     1      46.186   8.063  12.664  0.00  0.00    +0.000 N 
ATOM      2  C   UNL     1      45.585   9.216  12.224  0.00  0.00    +0.000 A 
ATOM      3  C   UNL     1      44.447   8.871  11.538  0.00  0.00    +0.000 A 
ATOM      4  C   UNL     1      44.347   7.454  11.553  0.00  0.00    +0.000 A 
ATOM      5  C   UNL     1      43.403   6.550  11.034  0.00  0.00    +0.000 A 
ATOM      6  C   UNL     1      43.605   5.175  11.190  0.00  0.00    +0.000 A 
ATOM      7  C   UNL     1      44.735   4.684  11.856  0.00  0.00    +0.000 A 
ATOM      8  C   UNL     1      45.675   5.582  12.403  0.00  0.00    +0.000 A 
ATOM      9  C   UNL     1      45.461   6.962  12.243  0.00  0.00    +0.000 A 
ENDROOT
BRANCH   7  10
ATOM     10  C   UNL     1      44.962   3.199  11.984  0.00  0.00    +0.000 C 
ATOM     11  F   UNL     1      43.889   2.519  12.484  0.00  0.00    +0.000 F 
ATOM     12  F   UNL     1      45.246   2.607  10.790  0.00  0.00    +0.000 F 
ATOM     13  F   UNL     1      46.005   2.895  12.807  0.00  0.00    +0.000 F 
ENDBRANCH   7  10
BRANCH   1  14
ATOM     14  C   UNL     1      47.363   8.044  13.527  0.00  0.00    +0.000 C 
BRANCH  14  18
ATOM     15  C   UNL     1      50.800   9.368  12.477  0.00  0.00    +0.000 C 
ATOM     16  C   UNL     1      49.561   9.276  11.569  0.00  0.00    +0.000 C 
ATOM     17  C   UNL     1      48.975   7.866  11.526  0.00  0.00    +0.000 C 
ATOM     18  C   UNL     1      48.594   7.339  12.919  0.00  0.00    +0.000 C 
ATOM     19  C   UNL     1      49.809   7.443  13.864  0.00  0.00    +0.000 C 
ATOM     20  C   UNL     1      50.463   8.829  13.878  0.00  0.00    +0.000 C 
BRANCH  15  21
ATOM     21  C   UNL     1      52.034   8.658  11.879  0.00  0.00    +0.000 C 
BRANCH  21  22
ATOM     22  N   UNL     1      52.279   9.083  10.503  0.00  0.00    +0.000 NA
ATOM     23  H   UNL     1      52.572  10.059  10.491  0.00  0.00    +0.000 HD
ATOM     24  H   UNL     1      51.412   9.035   9.968  0.00  0.00    +0.000 HD
ENDBRANCH  21  22
ENDBRANCH  15  21
ENDBRANCH  14  18
ENDBRANCH   1  14
TORSDOF 5
ENDMDL
