MODEL 1
REMARK VINA RESULT:    -8.200      0.000      0.000
REMARK INTER + INTRA:         -11.489
REMARK INTER:                 -10.836
REMARK INTRA:                  -0.652
REMARK UNBOUND:                -0.652
REMARK  Name = 
REMARK  6 active torsions:
REMARK  status: ('A' for Active; 'I' for Inactive)
REMARK    1  A    between atoms: C_2  and  C_4
REMARK    2  A    between atoms: C_7  and  N_8
REMARK    3  A    between atoms: N_8  and  CA_9
REMARK    4  A    between atoms: CA_9  and  C_10
REMARK    5  A    between atoms: CA_9  and  C_12
REMARK    6  A    between atoms: C_10  and  O_11
REMARK                            x       y       z     vdW  Elec       q    Type
REMARK                         _______ _______ _______ _____ _____    ______ ____
ROOT
ATOM      1  N   UNL     1      43.752   3.842  10.326  0.00  0.00    +0.000 N 
ATOM      2  H   UNL     1      42.795   3.573  10.122  0.00  0.00    +0.000 HD
ENDROOT
BRANCH   1   6
ATOM      3  C   UNL     1      46.617   2.659   7.449  0.00  0.00    +0.000 A 
ATOM      4  C   UNL     1      46.236   4.000   7.537  0.00  0.00    +0.000 A 
ATOM      5  C   UNL     1      45.284   4.399   8.483  0.00  0.00    +0.000 A 
ATOM      6  C   UNL     1      44.658   3.477   9.332  0.00  0.00    +0.000 A 
ATOM      7  C   UNL     1      45.077   2.140   9.249  0.00  0.00    +0.000 A 
ATOM      8  C   UNL     1      46.029   1.728   8.307  0.00  0.00    +0.000 A 
BRANCH   3  10
ATOM      9  N   UNL     1      47.812   2.982   5.352  0.00  0.00    +0.000 N 
ATOM     10  C   UNL     1      47.627   2.202   6.461  0.00  0.00    +0.000 C 
ATOM     11  O   UNL     1      48.292   1.192   6.643  0.00  0.00    +0.000 OA
ATOM     12  H   UNL     1      48.574   2.717   4.740  0.00  0.00    +0.000 HD
ATOM     13  H   UNL     1      47.480   3.932   5.298  0.00  0.00    +0.000 HD
ENDBRANCH   3  10
ENDBRANCH   1   6
BRANCH   1  14
ATOM     14  CA  UNL     1      43.831   5.145  11.016  0.00  0.00    +0.000 C 
BRANCH  14  15
ATOM     15  C   UNL     1      45.140   5.301  11.783  0.00  0.00    +0.000 A 
ATOM     16  C   UNL     1      45.977   6.392  11.475  0.00  0.00    +0.000 A 
ATOM     17  C   UNL     1      47.132   6.644  12.216  0.00  0.00    +0.000 A 
ATOM     18  C   UNL     1      47.474   5.808  13.274  0.00  0.00    +0.000 A 
ATOM     19  C   UNL     1      46.672   4.709  13.579  0.00  0.00    +0.000 A 
ATOM     20  C   UNL     1      45.514   4.457  12.839  0.00  0.00    +0.000 A 
ENDBRANCH  14  15
BRANCH  14  21
ATOM     21  C   UNL     1      42.617   5.352  11.958  0.00  0.00    +0.000 C 
BRANCH  21  22
ATOM     22  O   UNL     1      41.920   6.579  11.720  0.00  0.00    +0.000 OA
ATOM     23  H   UNL     1      41.470   6.488  10.865  0.00  0.00    +0.000 HD
ENDBRANCH  21  22
ENDBRANCH  14  21
ENDBRANCH   1  14
TORSDOF 6
ENDMDL
MODEL 2
REMARK VINA RESULT:    -7.938      1.126      1.563
REMARK INTER + INTRA:         -11.143
REMARK INTER:                 -10.504
REMARK INTRA:                  -0.639
REMARK UNBOUND:                -0.652
REMARK  Name = 
REMARK  6 active torsions:
REMARK  status: ('A' for Active; 'I' for Inactive)
REMARK    1  A    between atoms: C_2  and  C_4
REMARK    2  A    between atoms: C_7  and  N_8
REMARK    3  A    between atoms: N_8  and  CA_9
REMARK    4  A    between atoms: CA_9  and  C_10
REMARK    5  A    between atoms: CA_9  and  C_12
REMARK    6  A    between atoms: C_10  and  O_11
REMARK                            x       y       z     vdW  Elec       q    Type
REMARK                         _______ _______ _______ _____ _____    ______ ____
ROOT
ATOM      1  N   UNL     1      43.737   5.078   9.989  0.00  0.00    +0.000 N 
ATOM      2  H   UNL     1      43.601   5.878   9.380  0.00  0.00    +0.000 HD
ENDROOT
BRANCH   1   6
ATOM      3  C   UNL     1      46.167   2.146   8.152  0.00  0.00    +0.000 A 
ATOM      4  C   UNL     1      45.198   1.760   9.080  0.00  0.00    +0.000 A 
ATOM      5  C   UNL     1      44.394   2.725   9.698  0.00  0.00    +0.000 A 
ATOM      6  C   UNL     1      44.557   4.092   9.442  0.00  0.00    +0.000 A 
ATOM      7  C   UNL     1      45.515   4.457   8.483  0.00  0.00    +0.000 A 
ATOM      8  C   UNL     1      46.326   3.501   7.858  0.00  0.00    +0.000 A 
BRANCH   3  10
ATOM      9  N   UNL     1      48.071   1.629   6.723  0.00  0.00    +0.000 N 
ATOM     10  C   UNL     1      47.035   1.148   7.475  0.00  0.00    +0.000 C 
ATOM     11  O   UNL     1      46.854  -0.055   7.608  0.00  0.00    +0.000 OA
ATOM     12  H   UNL     1      48.715   0.940   6.354  0.00  0.00    +0.000 HD
ATOM     13  H   UNL     1      48.400   2.579   6.802  0.00  0.00    +0.000 HD
ENDBRANCH   3  10
ENDBRANCH   1   6
BRANCH   1  14
ATOM     14  CA  UNL     1      43.824   5.467  11.410  0.00  0.00    +0.000 C 
BRANCH  14  15
ATOM     15  C   UNL     1      45.269   5.647  11.861  0.00  0.00    +0.000 A 
ATOM     16  C   UNL     1      46.000   6.744  11.362  0.00  0.00    +0.000 A 
ATOM     17  C   UNL     1      47.289   7.019  11.821  0.00  0.00    +0.000 A 
ATOM     18  C   UNL     1      47.872   6.200  12.783  0.00  0.00    +0.000 A 
ATOM     19  C   UNL     1      47.175   5.097  13.272  0.00  0.00    +0.000 A 
ATOM     20  C   UNL     1      45.884   4.822  12.814  0.00  0.00    +0.000 A 
ENDBRANCH  14  15
BRANCH  14  21
ATOM     21  C   UNL     1      43.093   4.440  12.315  0.00  0.00    +0.000 C 
BRANCH  21  22
ATOM     22  O   UNL     1      42.567   5.018  13.514  0.00  0.00    +0.000 OA
ATOM     23  H   UNL     1      42.810   5.958  13.506  0.00  0.00    +0.000 HD
ENDBRANCH  21  22
ENDBRANCH  14  21
ENDBRANCH   1  14
TORSDOF 6
ENDMDL
MODEL 3
REMARK VINA RESULT:    -7.680      1.247      1.674
REMARK INTER + INTRA:         -10.802
REMARK INTER:                 -10.719
REMARK INTRA:                  -0.083
REMARK UNBOUND:                -0.652
REMARK  Name = 
REMARK  6 active torsions:
REMARK  status: ('A' for Active; 'I' for Inactive)
REMARK    1  A    between atoms: C_2  and  C_4
REMARK    2  A    between atoms: C_7  and  N_8
REMARK    3  A    between atoms: N_8  and  CA_9
REMARK    4  A    between atoms: CA_9  and  C_10
REMARK    5  A    between atoms: CA_9  and  C_12
REMARK    6  A    between atoms: C_10  and  O_11
REMARK                            x       y       z     vdW  Elec       q    Type
REMARK                         _______ _______ _______ _____ _____    ______ ____
ROOT
ATOM      1  N   UNL     1      43.758   4.697  10.032  0.00  0.00    +0.000 N 
ATOM      2  H   UNL     1      43.481   5.605   9.675  0.00  0.00    +0.000 HD
ENDROOT
BRANCH   1   6
ATOM      3  C   UNL     1      46.540   2.555   7.675  0.00  0.00    +0.000 A 
ATOM      4  C   UNL     1      46.535   3.951   7.643  0.00  0.00    +0.000 A 
ATOM      5  C   UNL     1      45.613   4.668   8.415  0.00  0.00    +0.000 A 
ATOM      6  C   UNL     1      44.652   4.020   9.203  0.00  0.00    +0.000 A 
ATOM      7  C   UNL     1      44.694   2.618   9.245  0.00  0.00    +0.000 A 
ATOM      8  C   UNL     1      45.612   1.889   8.477  0.00  0.00    +0.000 A 
BRANCH   3  10
ATOM      9  N   UNL     1      48.595   2.428   6.373  0.00  0.00    +0.000 N 
ATOM     10  C   UNL     1      47.508   1.764   6.872  0.00  0.00    +0.000 C 
ATOM     11  O   UNL     1      47.360   0.563   6.689  0.00  0.00    +0.000 OA
ATOM     12  H   UNL     1      49.298   1.859   5.918  0.00  0.00    +0.000 HD
ATOM     13  H   UNL     1      48.878   3.333   6.715  0.00  0.00    +0.000 HD
ENDBRANCH   3  10
ENDBRANCH   1   6
BRANCH   1  14
ATOM     14  CA  UNL     1      43.898   4.692  11.501  0.00  0.00    +0.000 C 
BRANCH  14  15
ATOM     15  C   UNL     1      45.182   5.380  11.950  0.00  0.00    +0.000 A 
ATOM     16  C   UNL     1      45.994   4.738  12.906  0.00  0.00    +0.000 A 
ATOM     17  C   UNL     1      47.231   5.268  13.274  0.00  0.00    +0.000 A 
ATOM     18  C   UNL     1      47.676   6.454  12.698  0.00  0.00    +0.000 A 
ATOM     19  C   UNL     1      46.878   7.117  11.768  0.00  0.00    +0.000 A 
ATOM     20  C   UNL     1      45.640   6.586  11.397  0.00  0.00    +0.000 A 
ENDBRANCH  14  15
BRANCH  14  21
ATOM     21  C   UNL     1      43.825   3.249  12.064  0.00  0.00    +0.000 C 
BRANCH  21  22
ATOM     22  O   UNL     1      42.648   2.543  11.658  0.00  0.00    +0.000 OA
ATOM     23  H   UNL     1      42.834   2.159  10.786  0.00  0.00    +0.000 HD
ENDBRANCH  21  22
ENDBRANCH  14  21
ENDBRANCH   1  14
TORSDOF 6
ENDMDL
MODEL 4
REMARK VINA RESULT:    -6.463      3.006      6.379
REMARK INTER + INTRA:          -9.193
REMARK INTER:                  -8.648
REMARK INTRA:                  -0.544
REMARK UNBOUND:                -0.652
REMARK  Name = 
REMARK  6 active torsions:
REMARK  status: ('A' for Active; 'I' for Inactive)
REMARK    1  A    between atoms: C_2  and  C_4
REMARK    2  A    between atoms: C_7  and  N_8
REMARK    3  A    between atoms: N_8  and  CA_9
REMARK    4  A    between atoms: CA_9  and  C_10
REMARK    5  A    between atoms: CA_9  and  C_12
REMARK    6  A    between atoms: C_10  and  O_11
REMARK                            x       y       z     vdW  Elec       q    Type
REMARK                         _______ _______ _______ _____ _____    ______ ____
ROOT
ATOM      1  N   UNL     1      44.361   5.226  10.928  0.00  0.00    +0.000 N 
ATOM      2  H   UNL     1      43.365   5.417  10.945  0.00  0.00    +0.000 HD
ENDROOT
BRANCH   1   6
ATOM      3  C   UNL     1      46.700   8.026  13.064  0.00  0.00    +0.000 A 
ATOM      4  C   UNL     1      46.940   6.659  13.223  0.00  0.00    +0.000 A 
ATOM      5  C   UNL     1      46.166   5.725  12.524  0.00  0.00    +0.000 A 
ATOM      6  C   UNL     1      45.114   6.120  11.687  0.00  0.00    +0.000 A 
ATOM      7  C   UNL     1      44.910   7.499  11.518  0.00  0.00    +0.000 A 
ATOM      8  C   UNL     1      45.678   8.443  12.211  0.00  0.00    +0.000 A 
BRANCH   3  10
ATOM      9  N   UNL     1      47.501   8.988  15.154  0.00  0.00    +0.000 N 
ATOM     10  C   UNL     1      47.506   9.044  13.787  0.00  0.00    +0.000 C 
ATOM     11  O   UNL     1      48.172   9.878  13.190  0.00  0.00    +0.000 OA
ATOM     12  H   UNL     1      48.134   9.618  15.631  0.00  0.00    +0.000 HD
ATOM     13  H   UNL     1      47.184   8.176  15.660  0.00  0.00    +0.000 HD
ENDBRANCH   3  10
ENDBRANCH   1   6
BRANCH   1  14
ATOM     14  CA  UNL     1      44.652   3.779  10.909  0.00  0.00    +0.000 C 
BRANCH  14  15
ATOM     15  C   UNL     1      45.209   3.331   9.562  0.00  0.00    +0.000 A 
ATOM     16  C   UNL     1      45.628   4.314   8.644  0.00  0.00    +0.000 A 
ATOM     17  C   UNL     1      46.243   3.962   7.442  0.00  0.00    +0.000 A 
ATOM     18  C   UNL     1      46.445   2.620   7.133  0.00  0.00    +0.000 A 
ATOM     19  C   UNL     1      46.016   1.632   8.017  0.00  0.00    +0.000 A 
ATOM     20  C   UNL     1      45.402   1.984   9.222  0.00  0.00    +0.000 A 
ENDBRANCH  14  15
BRANCH  14  21
ATOM     21  C   UNL     1      43.394   2.952  11.283  0.00  0.00    +0.000 C 
BRANCH  21  22
ATOM     22  O   UNL     1      43.573   2.152  12.456  0.00  0.00    +0.000 OA
ATOM     23  H   UNL     1      42.689   1.981  12.820  0.00  0.00    +0.000 HD
ENDBRANCH  21  22
ENDBRANCH  14  21
ENDBRANCH   1  14
TORSDOF 6
ENDMDL
MODEL 5
REMARK VINA RESULT:    -6.311      3.117      6.131
REMARK INTER + INTRA:          -8.993
REMARK INTER:                  -8.398
REMARK INTRA:                  -0.594
REMARK UNBOUND:                -0.652
REMARK  Name = 
REMARK  6 active torsions:
REMARK  status: ('A' for Active; 'I' for Inactive)
REMARK    1  A    between atoms: C_2  and  C_4
REMARK    2  A    between atoms: C_7  and  N_8
REMARK    3  A    between atoms: N_8  and  CA_9
REMARK    4  A    between atoms: CA_9  and  C_10
REMARK    5  A    between atoms: CA_9  and  C_12
REMARK    6  A    between atoms: C_10  and  O_11
REMARK                            x       y       z     vdW  Elec       q    Type
REMARK                         _______ _______ _______ _____ _____    ______ ____
ROOT
ATOM      1  N   UNL     1      45.367   6.285  11.095  0.00  0.00    +0.000 N 
ATOM      2  H   UNL     1      44.793   7.110  10.959  0.00  0.00    +0.000 HD
ENDROOT
BRANCH   1   6
ATOM      3  C   UNL     1      48.433   6.878  13.947  0.00  0.00    +0.000 A 
ATOM      4  C   UNL     1      48.301   7.766  12.877  0.00  0.00    +0.000 A 
ATOM      5  C   UNL     1      47.292   7.574  11.925  0.00  0.00    +0.000 A 
ATOM      6  C   UNL     1      46.421   6.478  11.987  0.00  0.00    +0.000 A 
ATOM      7  C   UNL     1      46.550   5.615  13.087  0.00  0.00    +0.000 A 
ATOM      8  C   UNL     1      47.555   5.797  14.046  0.00  0.00    +0.000 A 
BRANCH   3  10
ATOM      9  N   UNL     1      50.730   7.431  14.540  0.00  0.00    +0.000 N 
ATOM     10  C   UNL     1      49.488   7.056  14.977  0.00  0.00    +0.000 C 
ATOM     11  O   UNL     1      49.254   6.906  16.168  0.00  0.00    +0.000 OA
ATOM     12  H   UNL     1      51.410   7.649  15.257  0.00  0.00    +0.000 HD
ATOM     13  H   UNL     1      50.887   7.808  13.619  0.00  0.00    +0.000 HD
ENDBRANCH   3  10
ENDBRANCH   1   6
BRANCH   1  14
ATOM     14  CA  UNL     1      44.572   5.042  11.082  0.00  0.00    +0.000 C 
BRANCH  14  15
ATOM     15  C   UNL     1      44.966   4.129   9.926  0.00  0.00    +0.000 A 
ATOM     16  C   UNL     1      45.645   4.688   8.825  0.00  0.00    +0.000 A 
ATOM     17  C   UNL     1      46.123   3.884   7.790  0.00  0.00    +0.000 A 
ATOM     18  C   UNL     1      45.926   2.507   7.834  0.00  0.00    +0.000 A 
ATOM     19  C   UNL     1      45.236   1.937   8.902  0.00  0.00    +0.000 A 
ATOM     20  C   UNL     1      44.759   2.742   9.940  0.00  0.00    +0.000 A 
ENDBRANCH  14  15
BRANCH  14  21
ATOM     21  C   UNL     1      43.053   5.352  11.041  0.00  0.00    +0.000 C 
BRANCH  21  22
ATOM     22  O   UNL     1      42.760   6.751  11.101  0.00  0.00    +0.000 OA
ATOM     23  H   UNL     1      43.376   7.143  11.740  0.00  0.00    +0.000 HD
ENDBRANCH  21  22
ENDBRANCH  14  21
ENDBRANCH   1  14
TORSDOF 6
ENDMDL
MODEL 6
REMARK VINA RESULT:    -5.888      3.511      5.163
REMARK INTER + INTRA:          -8.433
REMARK INTER:                  -7.854
REMARK INTRA:                  -0.580
REMARK UNBOUND:                -0.652
REMARK  Name = 
REMARK  6 active torsions:
REMARK  status: ('A' for Active; 'I' for Inactive)
REMARK    1  A    between atoms: C_2  and  C_4
REMARK    2  A    between atoms: C_7  and  N_8
REMARK    3  A    between atoms: N_8  and  CA_9
REMARK    4  A    between atoms: CA_9  and  C_10
REMARK    5  A    between atoms: CA_9  and  C_12
REMARK    6  A    between atoms: C_10  and  O_11
REMARK                            x       y       z     vdW  Elec       q    Type
REMARK                         _______ _______ _______ _____ _____    ______ ____
ROOT
ATOM      1  N   UNL     1      46.428   5.780  14.182  0.00  0.00    +0.000 N 
ATOM      2  H   UNL     1      46.097   6.716  14.392  0.00  0.00    +0.000 HD
ENDROOT
BRANCH   1   6
ATOM      3  C   UNL     1      44.986   4.048  10.604  0.00  0.00    +0.000 A 
ATOM      4  C   UNL     1      45.478   5.355  10.591  0.00  0.00    +0.000 A 
ATOM      5  C   UNL     1      45.952   5.938  11.773  0.00  0.00    +0.000 A 
ATOM      6  C   UNL     1      45.911   5.258  12.997  0.00  0.00    +0.000 A 
ATOM      7  C   UNL     1      45.441   3.935  12.982  0.00  0.00    +0.000 A 
ATOM      8  C   UNL     1      44.965   3.340  11.807  0.00  0.00    +0.000 A 
BRANCH   3  10
ATOM      9  N   UNL     1      44.123   4.217   8.332  0.00  0.00    +0.000 N 
ATOM     10  C   UNL     1      44.480   3.398   9.368  0.00  0.00    +0.000 C 
ATOM     11  O   UNL     1      44.415   2.181   9.263  0.00  0.00    +0.000 OA
ATOM     12  H   UNL     1      43.880   3.761   7.462  0.00  0.00    +0.000 HD
ATOM     13  H   UNL     1      44.403   5.185   8.288  0.00  0.00    +0.000 HD
ENDBRANCH   3  10
ENDBRANCH   1   6
BRANCH   1  14
ATOM     14  CA  UNL     1      47.838   5.585  14.573  0.00  0.00    +0.000 C 
BRANCH  14  15
ATOM     15  C   UNL     1      47.960   4.959  15.958  0.00  0.00    +0.000 A 
ATOM     16  C   UNL     1      47.300   3.740  16.209  0.00  0.00    +0.000 A 
ATOM     17  C   UNL     1      47.463   3.069  17.421  0.00  0.00    +0.000 A 
ATOM     18  C   UNL     1      48.284   3.607  18.407  0.00  0.00    +0.000 A 
ATOM     19  C   UNL     1      48.927   4.824  18.188  0.00  0.00    +0.000 A 
ATOM     20  C   UNL     1      48.766   5.496  16.973  0.00  0.00    +0.000 A 
ENDBRANCH  14  15
BRANCH  14  21
ATOM     21  C   UNL     1      48.626   6.919  14.504  0.00  0.00    +0.000 C 
BRANCH  21  22
ATOM     22  O   UNL     1      49.758   6.862  13.631  0.00  0.00    +0.000 OA
ATOM     23  H   UNL     1      49.452   7.135  12.751  0.00  0.00    +0.000 HD
ENDBRANCH  21  22
ENDBRANCH  14  21
ENDBRANCH   1  14
TORSDOF 6
ENDMDL
MODEL 7
REMARK VINA RESULT:    -5.704      4.479      6.819
REMARK INTER + INTRA:          -8.190
REMARK INTER:                  -7.666
REMARK INTRA:                  -0.524
REMARK UNBOUND:                -0.652
REMARK  Name = 
REMARK  6 active torsions:
REMARK  status: ('A' for Active; 'I' for Inactive)
REMARK    1  A    between atoms: C_2  and  C_4
REMARK    2  A    between atoms: C_7  and  N_8
REMARK    3  A    between atoms: N_8  and  CA_9
REMARK    4  A    between atoms: CA_9  and  C_10
REMARK    5  A    between atoms: CA_9  and  C_12
REMARK    6  A    between atoms: C_10  and  O_11
REMARK                            x       y       z     vdW  Elec       q    Type
REMARK                         _______ _______ _______ _____ _____    ______ ____
ROOT
ATOM      1  N   UNL     1      47.688   3.309  15.395  0.00  0.00    +0.000 N 
ATOM      2  H   UNL     1      47.216   2.443  15.636  0.00  0.00    +0.000 HD
ENDROOT
BRANCH   1   6
ATOM      3  C   UNL     1      45.902   5.413  12.192  0.00  0.00    +0.000 A 
ATOM      4  C   UNL     1      45.712   4.034  12.306  0.00  0.00    +0.000 A 
ATOM      5  C   UNL     1      46.305   3.329  13.360  0.00  0.00    +0.000 A 
ATOM      6  C   UNL     1      47.130   3.963  14.299  0.00  0.00    +0.000 A 
ATOM      7  C   UNL     1      47.283   5.354  14.184  0.00  0.00    +0.000 A 
ATOM      8  C   UNL     1      46.694   6.071  13.134  0.00  0.00    +0.000 A 
BRANCH   3  10
ATOM      9  N   UNL     1      45.266   5.614   9.849  0.00  0.00    +0.000 N 
ATOM     10  C   UNL     1      45.283   6.193  11.089  0.00  0.00    +0.000 C 
ATOM     11  O   UNL     1      44.780   7.290  11.282  0.00  0.00    +0.000 OA
ATOM     12  H   UNL     1      44.752   6.108   9.131  0.00  0.00    +0.000 HD
ATOM     13  H   UNL     1      45.431   4.629   9.711  0.00  0.00    +0.000 HD
ENDBRANCH   3  10
ENDBRANCH   1   6
BRANCH   1  14
ATOM     14  CA  UNL     1      48.155   4.041  16.588  0.00  0.00    +0.000 C 
BRANCH  14  15
ATOM     15  C   UNL     1      49.496   3.516  17.088  0.00  0.00    +0.000 A 
ATOM     16  C   UNL     1      49.788   2.147  16.925  0.00  0.00    +0.000 A 
ATOM     17  C   UNL     1      51.039   1.632  17.265  0.00  0.00    +0.000 A 
ATOM     18  C   UNL     1      52.020   2.474  17.779  0.00  0.00    +0.000 A 
ATOM     19  C   UNL     1      51.743   3.827  17.970  0.00  0.00    +0.000 A 
ATOM     20  C   UNL     1      50.491   4.344  17.628  0.00  0.00    +0.000 A 
ENDBRANCH  14  15
BRANCH  14  21
ATOM     21  C   UNL     1      47.095   3.997  17.720  0.00  0.00    +0.000 C 
BRANCH  21  22
ATOM     22  O   UNL     1      46.401   2.748  17.795  0.00  0.00    +0.000 OA
ATOM     23  H   UNL     1      45.567   2.915  18.263  0.00  0.00    +0.000 HD
ENDBRANCH  21  22
ENDBRANCH  14  21
ENDBRANCH   1  14
TORSDOF 6
ENDMDL
