MODEL 1
REMARK VINA RESULT:    -8.707      0.000      0.000
REMARK INTER + INTRA:         -12.285
REMARK INTER:                 -11.252
REMARK INTRA:                  -1.033
REMARK UNBOUND:                -1.033
REMARK  Name = 
REMARK  5 active torsions:
REMARK  status: ('A' for Active; 'I' for Inactive)
REMARK    1  A    between atoms: C_2  and  C_4
REMARK    2  A    between atoms: C_7  and  O_8
REMARK    3  A    between atoms: O_8  and  C_9
REMARK    4  A    between atoms: C_9  and  C_10
REMARK    5  A    between atoms: C_15  and  C_16
REMARK                            x       y       z     vdW  Elec       q    Type
REMARK                         _______ _______ _______ _____ _____    ______ ____
ROOT
ATOM      1  C   UNL     1      43.520   4.512  11.301  0.00  0.00    +0.000 C 
ENDROOT
BRANCH   1   2
ATOM      2  C   UNL     1      44.789   4.899  12.021  0.00  0.00    +0.000 A 
ATOM      3  C   UNL     1      45.402   4.009  12.910  0.00  0.00    +0.000 A 
ATOM      4  C   UNL     1      46.566   4.382  13.573  0.00  0.00    +0.000 A 
ATOM      5  C   UNL     1      47.123   5.640  13.349  0.00  0.00    +0.000 A 
ATOM      6  F   UNL     1      48.240   5.948  14.029  0.00  0.00    +0.000 F 
ATOM      7  C   UNL     1      46.554   6.564  12.457  0.00  0.00    +0.000 A 
ATOM      8  C   UNL     1      45.368   6.165  11.809  0.00  0.00    +0.000 A 
BRANCH   7   9
ATOM      9  C   UNL     1      47.174   7.878  12.178  0.00  0.00    +0.000 A 
ATOM     10  C   UNL     1      48.496   8.007  11.724  0.00  0.00    +0.000 A 
ATOM     11  C   UNL     1      49.057   9.266  11.504  0.00  0.00    +0.000 A 
ATOM     12  C   UNL     1      48.277  10.383  11.736  0.00  0.00    +0.000 A 
ATOM     13  N   UNL     1      47.003  10.322  12.166  0.00  0.00    +0.000 NA
ATOM     14  C   UNL     1      46.490   9.082  12.376  0.00  0.00    +0.000 A 
ENDBRANCH   7   9
ENDBRANCH   1   2
BRANCH   1  15
ATOM     15  O   UNL     1      43.706   4.719   9.902  0.00  0.00    +0.000 OA
BRANCH  15  19
ATOM     16  C   UNL     1      46.341   2.273   7.791  0.00  0.00    +0.000 A 
ATOM     17  C   UNL     1      45.449   1.675   8.686  0.00  0.00    +0.000 A 
ATOM     18  C   UNL     1      44.546   2.459   9.411  0.00  0.00    +0.000 A 
ATOM     19  C   UNL     1      44.534   3.846   9.252  0.00  0.00    +0.000 A 
ATOM     20  C   UNL     1      45.435   4.442   8.366  0.00  0.00    +0.000 A 
ATOM     21  C   UNL     1      46.341   3.663   7.641  0.00  0.00    +0.000 A 
BRANCH  16  23
ATOM     22  N   UNL     1      48.424   2.120   6.541  0.00  0.00    +0.000 N 
ATOM     23  C   UNL     1      47.313   1.471   7.005  0.00  0.00    +0.000 C 
ATOM     24  O   UNL     1      47.153   0.274   6.808  0.00  0.00    +0.000 OA
ATOM     25  H   UNL     1      49.128   1.539   6.104  0.00  0.00    +0.000 HD
ATOM     26  H   UNL     1      48.715   3.017   6.900  0.00  0.00    +0.000 HD
ENDBRANCH  16  23
ENDBRANCH  15  19
ENDBRANCH   1  15
TORSDOF 5
ENDMDL
MODEL 2
REMARK VINA RESULT:    -8.436      1.853      2.471
REMARK INTER + INTRA:         -11.935
REMARK INTER:                 -10.964
REMARK INTRA:                  -0.971
REMARK UNBOUND:                -1.033
REMARK  Name = 
REMARK  5 active torsions:
REMARK  status: ('A' for Active; 'I' for Inactive)
REMARK    1  A    between atoms: C_2  and  C_4
REMARK    2  A    between atoms: C_7  and  O_8
REMARK    3  A    between atoms: O_8  and  C_9
REMARK    4  A    between atoms: C_9  and  C_10
REMARK    5  A    between atoms: C_15  and  C_16
REMARK                            x       y       z     vdW  Elec       q    Type
REMARK                         _______ _______ _______ _____ _____    ______ ____
ROOT
ATOM      1  C   UNL     1      44.209   3.269  11.572  0.00  0.00    +0.000 C 
ENDROOT
BRANCH   1   2
ATOM      2  C   UNL     1      44.552   4.737  11.660  0.00  0.00    +0.000 A 
ATOM      3  C   UNL     1      43.586   5.711  11.389  0.00  0.00    +0.000 A 
ATOM      4  C   UNL     1      43.919   7.059  11.467  0.00  0.00    +0.000 A 
ATOM      5  C   UNL     1      45.214   7.438  11.818  0.00  0.00    +0.000 A 
ATOM      6  F   UNL     1      45.479   8.754  11.863  0.00  0.00    +0.000 F 
ATOM      7  C   UNL     1      46.217   6.499  12.113  0.00  0.00    +0.000 A 
ATOM      8  C   UNL     1      45.855   5.141  12.014  0.00  0.00    +0.000 A 
BRANCH   7   9
ATOM      9  C   UNL     1      47.576   6.900  12.538  0.00  0.00    +0.000 A 
ATOM     10  C   UNL     1      48.449   7.611  11.700  0.00  0.00    +0.000 A 
ATOM     11  C   UNL     1      49.737   7.941  12.126  0.00  0.00    +0.000 A 
ATOM     12  C   UNL     1      50.129   7.559  13.394  0.00  0.00    +0.000 A 
ATOM     13  N   UNL     1      49.334   6.881  14.243  0.00  0.00    +0.000 NA
ATOM     14  C   UNL     1      48.090   6.570  13.796  0.00  0.00    +0.000 A 
ENDBRANCH   7   9
ENDBRANCH   1   2
BRANCH   1  15
ATOM     15  O   UNL     1      43.700   2.996  10.267  0.00  0.00    +0.000 OA
BRANCH  15  19
ATOM     16  C   UNL     1      46.531   2.531   7.241  0.00  0.00    +0.000 A 
ATOM     17  C   UNL     1      45.885   3.765   7.365  0.00  0.00    +0.000 A 
ATOM     18  C   UNL     1      44.932   3.964   8.370  0.00  0.00    +0.000 A 
ATOM     19  C   UNL     1      44.612   2.929   9.250  0.00  0.00    +0.000 A 
ATOM     20  C   UNL     1      45.250   1.693   9.116  0.00  0.00    +0.000 A 
ATOM     21  C   UNL     1      46.202   1.489   8.113  0.00  0.00    +0.000 A 
BRANCH  16  23
ATOM     22  N   UNL     1      47.545   3.129   5.111  0.00  0.00    +0.000 N 
ATOM     23  C   UNL     1      47.548   2.285   6.187  0.00  0.00    +0.000 C 
ATOM     24  O   UNL     1      48.378   1.391   6.286  0.00  0.00    +0.000 OA
ATOM     25  H   UNL     1      48.310   3.019   4.458  0.00  0.00    +0.000 HD
ATOM     26  H   UNL     1      47.064   4.016   5.122  0.00  0.00    +0.000 HD
ENDBRANCH  16  23
ENDBRANCH  15  19
ENDBRANCH   1  15
TORSDOF 5
ENDMDL
MODEL 3
REMARK VINA RESULT:    -7.976      2.035      3.475
REMARK INTER + INTRA:         -11.341
REMARK INTER:                 -10.890
REMARK INTRA:                  -0.451
REMARK UNBOUND:                -1.033
REMARK  Name = 
REMARK  5 active torsions:
REMARK  status: ('A' for Active; 'I' for Inactive)
REMARK    1  A    between atoms: C_2  and  C_4
REMARK    2  A    between atoms: C_7  and  O_8
REMARK    3  A    between atoms: O_8  and  C_9
REMARK    4  A    between atoms: C_9  and  C_10
REMARK    5  A    between atoms: C_15  and  C_16
REMARK                            x       y       z     vdW  Elec       q    Type
REMARK                         _______ _______ _______ _____ _____    ______ ____
ROOT
ATOM      1  C   UNL     1      43.825   3.876  11.652  0.00  0.00    +0.000 C 
ENDROOT
BRANCH   1   2
ATOM      2  C   UNL     1      44.774   4.921  12.188  0.00  0.00    +0.000 A 
ATOM      3  C   UNL     1      44.800   6.207  11.639  0.00  0.00    +0.000 A 
ATOM      4  C   UNL     1      45.685   7.157  12.137  0.00  0.00    +0.000 A 
ATOM      5  C   UNL     1      46.542   6.828  13.187  0.00  0.00    +0.000 A 
ATOM      6  F   UNL     1      47.382   7.783  13.616  0.00  0.00    +0.000 F 
ATOM      7  C   UNL     1      46.545   5.556  13.782  0.00  0.00    +0.000 A 
ATOM      8  C   UNL     1      45.648   4.609  13.248  0.00  0.00    +0.000 A 
BRANCH   7   9
ATOM      9  C   UNL     1      47.415   5.222  14.931  0.00  0.00    +0.000 A 
ATOM     10  C   UNL     1      47.173   4.119  15.765  0.00  0.00    +0.000 A 
ATOM     11  C   UNL     1      47.997   3.857  16.861  0.00  0.00    +0.000 A 
ATOM     12  C   UNL     1      49.061   4.704  17.101  0.00  0.00    +0.000 A 
ATOM     13  N   UNL     1      49.346   5.773  16.335  0.00  0.00    +0.000 NA
ATOM     14  C   UNL     1      48.521   6.004  15.280  0.00  0.00    +0.000 A 
ENDBRANCH   7   9
ENDBRANCH   1   2
BRANCH   1  15
ATOM     15  O   UNL     1      43.600   4.130  10.266  0.00  0.00    +0.000 OA
BRANCH  15  19
ATOM     16  C   UNL     1      46.407   2.415   7.704  0.00  0.00    +0.000 A 
ATOM     17  C   UNL     1      46.163   3.788   7.602  0.00  0.00    +0.000 A 
ATOM     18  C   UNL     1      45.232   4.403   8.445  0.00  0.00    +0.000 A 
ATOM     19  C   UNL     1      44.533   3.649   9.390  0.00  0.00    +0.000 A 
ATOM     20  C   UNL     1      44.770   2.276   9.481  0.00  0.00    +0.000 A 
ATOM     21  C   UNL     1      45.697   1.656   8.639  0.00  0.00    +0.000 A 
BRANCH  16  23
ATOM     22  N   UNL     1      48.510   2.430   6.480  0.00  0.00    +0.000 N 
ATOM     23  C   UNL     1      47.387   1.730   6.825  0.00  0.00    +0.000 C 
ATOM     24  O   UNL     1      47.223   0.576   6.450  0.00  0.00    +0.000 OA
ATOM     25  H   UNL     1      49.219   1.914   5.974  0.00  0.00    +0.000 HD
ATOM     26  H   UNL     1      48.801   3.261   6.973  0.00  0.00    +0.000 HD
ENDBRANCH  16  23
ENDBRANCH  15  19
ENDBRANCH   1  15
TORSDOF 5
ENDMDL
MODEL 4
REMARK VINA RESULT:    -7.489      3.241      7.309
REMARK INTER + INTRA:         -10.711
REMARK INTER:                 -10.375
REMARK INTRA:                  -0.336
REMARK UNBOUND:                -1.033
REMARK  Name = 
REMARK  5 active torsions:
REMARK  status: ('A' for Active; 'I' for Inactive)
REMARK    1  A    between atoms: C_2  and  C_4
REMARK    2  A    between atoms: C_7  and  O_8
REMARK    3  A    between atoms: O_8  and  C_9
REMARK    4  A    between atoms: C_9  and  C_10
REMARK    5  A    between atoms: C_15  and  C_16
REMARK                            x       y       z     vdW  Elec       q    Type
REMARK                         _______ _______ _______ _____ _____    ______ ____
ROOT
ATOM      1  C   UNL     1      44.950   6.170  11.146  0.00  0.00    +0.000 C 
ENDROOT
BRANCH   1   2
ATOM      2  C   UNL     1      44.803   4.797  10.536  0.00  0.00    +0.000 A 
ATOM      3  C   UNL     1      43.877   3.885  11.053  0.00  0.00    +0.000 A 
ATOM      4  C   UNL     1      43.758   2.620  10.487  0.00  0.00    +0.000 A 
ATOM      5  C   UNL     1      44.558   2.264   9.402  0.00  0.00    +0.000 A 
ATOM      6  F   UNL     1      44.407   1.025   8.907  0.00  0.00    +0.000 F 
ATOM      7  C   UNL     1      45.493   3.148   8.838  0.00  0.00    +0.000 A 
ATOM      8  C   UNL     1      45.602   4.417   9.440  0.00  0.00    +0.000 A 
BRANCH   7   9
ATOM      9  C   UNL     1      46.305   2.791   7.653  0.00  0.00    +0.000 A 
ATOM     10  C   UNL     1      46.315   3.568   6.484  0.00  0.00    +0.000 A 
ATOM     11  C   UNL     1      47.067   3.180   5.374  0.00  0.00    +0.000 A 
ATOM     12  C   UNL     1      47.807   2.016   5.456  0.00  0.00    +0.000 A 
ATOM     13  N   UNL     1      47.840   1.233   6.550  0.00  0.00    +0.000 NA
ATOM     14  C   UNL     1      47.093   1.636   7.611  0.00  0.00    +0.000 A 
ENDBRANCH   7   9
ENDBRANCH   1   2
BRANCH   1  15
ATOM     15  O   UNL     1      46.337   6.434  11.351  0.00  0.00    +0.000 OA
BRANCH  15  19
ATOM     16  C   UNL     1      47.703   5.378  15.147  0.00  0.00    +0.000 A 
ATOM     17  C   UNL     1      48.256   6.504  14.529  0.00  0.00    +0.000 A 
ATOM     18  C   UNL     1      47.823   6.895  13.257  0.00  0.00    +0.000 A 
ATOM     19  C   UNL     1      46.841   6.159  12.592  0.00  0.00    +0.000 A 
ATOM     20  C   UNL     1      46.298   5.028  13.207  0.00  0.00    +0.000 A 
ATOM     21  C   UNL     1      46.730   4.631  14.476  0.00  0.00    +0.000 A 
BRANCH  16  23
ATOM     22  N   UNL     1      47.239   5.069  17.515  0.00  0.00    +0.000 N 
ATOM     23  C   UNL     1      48.139   4.935  16.495  0.00  0.00    +0.000 C 
ATOM     24  O   UNL     1      49.240   4.437  16.687  0.00  0.00    +0.000 OA
ATOM     25  H   UNL     1      47.508   4.663  18.403  0.00  0.00    +0.000 HD
ATOM     26  H   UNL     1      46.255   5.222  17.351  0.00  0.00    +0.000 HD
ENDBRANCH  16  23
ENDBRANCH  15  19
ENDBRANCH   1  15
TORSDOF 5
ENDMDL
MODEL 5
REMARK VINA RESULT:    -6.775      5.443      7.972
REMARK INTER + INTRA:          -9.789
REMARK INTER:                  -8.845
REMARK INTRA:                  -0.944
REMARK UNBOUND:                -1.033
REMARK  Name = 
REMARK  5 active torsions:
REMARK  status: ('A' for Active; 'I' for Inactive)
REMARK    1  A    between atoms: C_2  and  C_4
REMARK    2  A    between atoms: C_7  and  O_8
REMARK    3  A    between atoms: O_8  and  C_9
REMARK    4  A    between atoms: C_9  and  C_10
REMARK    5  A    between atoms: C_15  and  C_16
REMARK                            x       y       z     vdW  Elec       q    Type
REMARK                         _______ _______ _______ _____ _____    ______ ____
ROOT
ATOM      1  C   UNL     1      49.129   6.805  16.241  0.00  0.00    +0.000 C 
ENDROOT
BRANCH   1   2
ATOM      2  C   UNL     1      48.594   6.735  14.831  0.00  0.00    +0.000 A 
ATOM      3  C   UNL     1      49.274   7.362  13.781  0.00  0.00    +0.000 A 
ATOM      4  C   UNL     1      48.765   7.297  12.488  0.00  0.00    +0.000 A 
ATOM      5  C   UNL     1      47.581   6.605  12.239  0.00  0.00    +0.000 A 
ATOM      6  F   UNL     1      47.132   6.589  10.974  0.00  0.00    +0.000 F 
ATOM      7  C   UNL     1      46.868   5.948  13.256  0.00  0.00    +0.000 A 
ATOM      8  C   UNL     1      47.399   6.041  14.558  0.00  0.00    +0.000 A 
BRANCH   7   9
ATOM      9  C   UNL     1      45.640   5.168  12.985  0.00  0.00    +0.000 A 
ATOM     10  C   UNL     1      44.364   5.752  12.963  0.00  0.00    +0.000 A 
ATOM     11  C   UNL     1      43.226   4.976  12.738  0.00  0.00    +0.000 A 
ATOM     12  C   UNL     1      43.386   3.620  12.528  0.00  0.00    +0.000 A 
ATOM     13  N   UNL     1      44.583   3.005  12.532  0.00  0.00    +0.000 NA
ATOM     14  C   UNL     1      45.670   3.787  12.761  0.00  0.00    +0.000 A 
ENDBRANCH   7   9
ENDBRANCH   1   2
BRANCH   1  15
ATOM     15  O   UNL     1      48.573   5.729  16.995  0.00  0.00    +0.000 OA
BRANCH  15  19
ATOM     16  C   UNL     1      51.152   2.491  17.496  0.00  0.00    +0.000 A 
ATOM     17  C   UNL     1      49.808   2.234  17.207  0.00  0.00    +0.000 A 
ATOM     18  C   UNL     1      48.911   3.292  17.028  0.00  0.00    +0.000 A 
ATOM     19  C   UNL     1      49.349   4.613  17.144  0.00  0.00    +0.000 A 
ATOM     20  C   UNL     1      50.689   4.866  17.444  0.00  0.00    +0.000 A 
ATOM     21  C   UNL     1      51.590   3.813  17.626  0.00  0.00    +0.000 A 
BRANCH  16  23
ATOM     22  N   UNL     1      51.643   0.193  18.128  0.00  0.00    +0.000 N 
ATOM     23  C   UNL     1      52.132   1.393  17.692  0.00  0.00    +0.000 C 
ATOM     24  O   UNL     1      53.322   1.536  17.442  0.00  0.00    +0.000 OA
ATOM     25  H   UNL     1      52.302  -0.574  18.151  0.00  0.00    +0.000 HD
ATOM     26  H   UNL     1      50.661  -0.036  18.089  0.00  0.00    +0.000 HD
ENDBRANCH  16  23
ENDBRANCH  15  19
ENDBRANCH   1  15
TORSDOF 5
ENDMDL
MODEL 6
REMARK VINA RESULT:    -6.582      4.642      8.144
REMARK INTER + INTRA:          -9.540
REMARK INTER:                  -8.642
REMARK INTRA:                  -0.899
REMARK UNBOUND:                -1.033
REMARK  Name = 
REMARK  5 active torsions:
REMARK  status: ('A' for Active; 'I' for Inactive)
REMARK    1  A    between atoms: C_2  and  C_4
REMARK    2  A    between atoms: C_7  and  O_8
REMARK    3  A    between atoms: O_8  and  C_9
REMARK    4  A    between atoms: C_9  and  C_10
REMARK    5  A    between atoms: C_15  and  C_16
REMARK                            x       y       z     vdW  Elec       q    Type
REMARK                         _______ _______ _______ _____ _____    ______ ____
ROOT
ATOM      1  C   UNL     1      48.472   7.248  14.006  0.00  0.00    +0.000 C 
ENDROOT
BRANCH   1   2
ATOM      2  C   UNL     1      47.206   7.334  13.187  0.00  0.00    +0.000 A 
ATOM      3  C   UNL     1      46.394   8.472  13.251  0.00  0.00    +0.000 A 
ATOM      4  C   UNL     1      45.226   8.534  12.497  0.00  0.00    +0.000 A 
ATOM      5  C   UNL     1      44.869   7.464  11.677  0.00  0.00    +0.000 A 
ATOM      6  F   UNL     1      43.724   7.577  10.984  0.00  0.00    +0.000 F 
ATOM      7  C   UNL     1      45.656   6.306  11.568  0.00  0.00    +0.000 A 
ATOM      8  C   UNL     1      46.827   6.265  12.352  0.00  0.00    +0.000 A 
BRANCH   7   9
ATOM      9  C   UNL     1      45.306   5.194  10.657  0.00  0.00    +0.000 A 
ATOM     10  C   UNL     1      45.709   5.167   9.312  0.00  0.00    +0.000 A 
ATOM     11  C   UNL     1      45.329   4.117   8.474  0.00  0.00    +0.000 A 
ATOM     12  C   UNL     1      44.555   3.101   9.002  0.00  0.00    +0.000 A 
ATOM     13  N   UNL     1      44.143   3.072  10.282  0.00  0.00    +0.000 NA
ATOM     14  C   UNL     1      44.524   4.111  11.069  0.00  0.00    +0.000 A 
ENDBRANCH   7   9
ENDBRANCH   1   2
BRANCH   1  15
ATOM     15  O   UNL     1      48.659   5.896  14.419  0.00  0.00    +0.000 OA
BRANCH  15  19
ATOM     16  C   UNL     1      48.133   5.251  18.505  0.00  0.00    +0.000 A 
ATOM     17  C   UNL     1      47.468   4.410  17.607  0.00  0.00    +0.000 A 
ATOM     18  C   UNL     1      47.620   4.590  16.228  0.00  0.00    +0.000 A 
ATOM     19  C   UNL     1      48.432   5.616  15.738  0.00  0.00    +0.000 A 
ATOM     20  C   UNL     1      49.085   6.461  16.638  0.00  0.00    +0.000 A 
ATOM     21  C   UNL     1      48.934   6.287  18.017  0.00  0.00    +0.000 A 
BRANCH  16  23
ATOM     22  N   UNL     1      48.582   3.990  20.537  0.00  0.00    +0.000 N 
ATOM     23  C   UNL     1      47.993   5.088  19.974  0.00  0.00    +0.000 C 
ATOM     24  O   UNL     1      47.410   5.915  20.663  0.00  0.00    +0.000 OA
ATOM     25  H   UNL     1      48.574   3.951  21.549  0.00  0.00    +0.000 HD
ATOM     26  H   UNL     1      49.279   3.444  20.054  0.00  0.00    +0.000 HD
ENDBRANCH  16  23
ENDBRANCH  15  19
ENDBRANCH   1  15
TORSDOF 5
ENDMDL
MODEL 7
REMARK VINA RESULT:    -6.133      4.705      7.902
REMARK INTER + INTRA:          -8.959
REMARK INTER:                  -8.155
REMARK INTRA:                  -0.804
REMARK UNBOUND:                -1.033
REMARK  Name = 
REMARK  5 active torsions:
REMARK  status: ('A' for Active; 'I' for Inactive)
REMARK    1  A    between atoms: C_2  and  C_4
REMARK    2  A    between atoms: C_7  and  O_8
REMARK    3  A    between atoms: O_8  and  C_9
REMARK    4  A    between atoms: C_9  and  C_10
REMARK    5  A    between atoms: C_15  and  C_16
REMARK                            x       y       z     vdW  Elec       q    Type
REMARK                         _______ _______ _______ _____ _____    ______ ____
ROOT
ATOM      1  C   UNL     1      48.891   7.519  13.277  0.00  0.00    +0.000 C 
ENDROOT
BRANCH   1   2
ATOM      2  C   UNL     1      47.483   7.461  12.733  0.00  0.00    +0.000 A 
ATOM      3  C   UNL     1      46.575   8.492  13.000  0.00  0.00    +0.000 A 
ATOM      4  C   UNL     1      45.279   8.422  12.500  0.00  0.00    +0.000 A 
ATOM      5  C   UNL     1      44.887   7.327  11.731  0.00  0.00    +0.000 A 
ATOM      6  F   UNL     1      43.620   7.309  11.288  0.00  0.00    +0.000 F 
ATOM      7  C   UNL     1      45.765   6.273  11.424  0.00  0.00    +0.000 A 
ATOM      8  C   UNL     1      47.067   6.364  11.954  0.00  0.00    +0.000 A 
BRANCH   7   9
ATOM      9  C   UNL     1      45.367   5.138  10.562  0.00  0.00    +0.000 A 
ATOM     10  C   UNL     1      45.661   5.093   9.191  0.00  0.00    +0.000 A 
ATOM     11  C   UNL     1      45.239   4.021   8.403  0.00  0.00    +0.000 A 
ATOM     12  C   UNL     1      44.530   3.000   9.009  0.00  0.00    +0.000 A 
ATOM     13  N   UNL     1      44.222   2.986  10.318  0.00  0.00    +0.000 NA
ATOM     14  C   UNL     1      44.643   4.047  11.055  0.00  0.00    +0.000 A 
ENDBRANCH   7   9
ENDBRANCH   1   2
BRANCH   1  15
ATOM     15  O   UNL     1      48.834   7.857  14.661  0.00  0.00    +0.000 OA
BRANCH  15  19
ATOM     16  C   UNL     1      50.411   5.075  17.337  0.00  0.00    +0.000 A 
ATOM     17  C   UNL     1      49.044   5.018  17.045  0.00  0.00    +0.000 A 
ATOM     18  C   UNL     1      48.477   5.931  16.150  0.00  0.00    +0.000 A 
ATOM     19  C   UNL     1      49.268   6.910  15.547  0.00  0.00    +0.000 A 
ATOM     20  C   UNL     1      50.630   6.972  15.850  0.00  0.00    +0.000 A 
ATOM     21  C   UNL     1      51.202   6.064  16.746  0.00  0.00    +0.000 A 
BRANCH  16  23
ATOM     22  N   UNL     1      50.668   4.201  19.594  0.00  0.00    +0.000 N 
ATOM     23  C   UNL     1      51.047   4.123  18.282  0.00  0.00    +0.000 C 
ATOM     24  O   UNL     1      51.849   3.278  17.907  0.00  0.00    +0.000 OA
ATOM     25  H   UNL     1      51.024   3.477  20.204  0.00  0.00    +0.000 HD
ATOM     26  H   UNL     1      49.835   4.691  19.887  0.00  0.00    +0.000 HD
ENDBRANCH  16  23
ENDBRANCH  15  19
ENDBRANCH   1  15
TORSDOF 5
ENDMDL
MODEL 8
REMARK VINA RESULT:    -6.077      5.206      7.502
REMARK INTER + INTRA:          -8.886
REMARK INTER:                  -7.991
REMARK INTRA:                  -0.895
REMARK UNBOUND:                -1.033
REMARK  Name = 
REMARK  5 active torsions:
REMARK  status: ('A' for Active; 'I' for Inactive)
REMARK    1  A    between atoms: C_2  and  C_4
REMARK    2  A    between atoms: C_7  and  O_8
REMARK    3  A    between atoms: O_8  and  C_9
REMARK    4  A    between atoms: C_9  and  C_10
REMARK    5  A    between atoms: C_15  and  C_16
REMARK                            x       y       z     vdW  Elec       q    Type
REMARK                         _______ _______ _______ _____ _____    ______ ____
ROOT
ATOM      1  C   UNL     1      48.691   7.291  14.966  0.00  0.00    +0.000 C 
ENDROOT
BRANCH   1   2
ATOM      2  C   UNL     1      48.998   6.680  16.312  0.00  0.00    +0.000 A 
ATOM      3  C   UNL     1      48.552   7.290  17.489  0.00  0.00    +0.000 A 
ATOM      4  C   UNL     1      48.850   6.721  18.723  0.00  0.00    +0.000 A 
ATOM      5  C   UNL     1      49.590   5.540  18.785  0.00  0.00    +0.000 A 
ATOM      6  F   UNL     1      49.857   5.046  20.004  0.00  0.00    +0.000 F 
ATOM      7  C   UNL     1      50.050   4.881  17.632  0.00  0.00    +0.000 A 
ATOM      8  C   UNL     1      49.745   5.487  16.397  0.00  0.00    +0.000 A 
BRANCH   7   9
ATOM      9  C   UNL     1      50.787   3.600  17.694  0.00  0.00    +0.000 A 
ATOM     10  C   UNL     1      52.123   3.520  18.118  0.00  0.00    +0.000 A 
ATOM     11  C   UNL     1      52.797   2.297  18.130  0.00  0.00    +0.000 A 
ATOM     12  C   UNL     1      52.114   1.167  17.722  0.00  0.00    +0.000 A 
ATOM     13  N   UNL     1      50.833   1.182  17.310  0.00  0.00    +0.000 NA
ATOM     14  C   UNL     1      50.209   2.388  17.305  0.00  0.00    +0.000 A 
ENDBRANCH   7   9
ENDBRANCH   1   2
BRANCH   1  15
ATOM     15  O   UNL     1      48.515   6.241  14.016  0.00  0.00    +0.000 OA
BRANCH  15  19
ATOM     16  C   UNL     1      44.670   5.344  12.675  0.00  0.00    +0.000 A 
ATOM     17  C   UNL     1      45.128   6.659  12.551  0.00  0.00    +0.000 A 
ATOM     18  C   UNL     1      46.414   7.001  12.986  0.00  0.00    +0.000 A 
ATOM     19  C   UNL     1      47.245   6.033  13.553  0.00  0.00    +0.000 A 
ATOM     20  C   UNL     1      46.780   4.723  13.686  0.00  0.00    +0.000 A 
ATOM     21  C   UNL     1      45.495   4.377  13.256  0.00  0.00    +0.000 A 
BRANCH  16  23
ATOM     22  N   UNL     1      42.378   5.938  12.114  0.00  0.00    +0.000 N 
ATOM     23  C   UNL     1      43.312   4.946  12.225  0.00  0.00    +0.000 C 
ATOM     24  O   UNL     1      43.042   3.789  11.931  0.00  0.00    +0.000 OA
ATOM     25  H   UNL     1      41.492   5.671  11.702  0.00  0.00    +0.000 HD
ATOM     26  H   UNL     1      42.628   6.916  12.090  0.00  0.00    +0.000 HD
ENDBRANCH  16  23
ENDBRANCH  15  19
ENDBRANCH   1  15
TORSDOF 5
ENDMDL
MODEL 9
REMARK VINA RESULT:    -5.902      3.713      5.826
REMARK INTER + INTRA:          -8.660
REMARK INTER:                  -7.674
REMARK INTRA:                  -0.986
REMARK UNBOUND:                -1.033
REMARK  Name = 
REMARK  5 active torsions:
REMARK  status: ('A' for Active; 'I' for Inactive)
REMARK    1  A    between atoms: C_2  and  C_4
REMARK    2  A    between atoms: C_7  and  O_8
REMARK    3  A    between atoms: O_8  and  C_9
REMARK    4  A    between atoms: C_9  and  C_10
REMARK    5  A    between atoms: C_15  and  C_16
REMARK                            x       y       z     vdW  Elec       q    Type
REMARK                         _______ _______ _______ _____ _____    ______ ____
ROOT
ATOM      1  C   UNL     1      48.000   7.836  12.403  0.00  0.00    +0.000 C 
ENDROOT
BRANCH   1   2
ATOM      2  C   UNL     1      48.237   7.816  13.894  0.00  0.00    +0.000 A 
ATOM      3  C   UNL     1      48.378   9.011  14.607  0.00  0.00    +0.000 A 
ATOM      4  C   UNL     1      48.604   8.978  15.979  0.00  0.00    +0.000 A 
ATOM      5  C   UNL     1      48.687   7.754  16.642  0.00  0.00    +0.000 A 
ATOM      6  F   UNL     1      48.920   7.786  17.964  0.00  0.00    +0.000 F 
ATOM      7  C   UNL     1      48.539   6.527  15.974  0.00  0.00    +0.000 A 
ATOM      8  C   UNL     1      48.324   6.590  14.583  0.00  0.00    +0.000 A 
BRANCH   7   9
ATOM      9  C   UNL     1      48.571   5.230  16.685  0.00  0.00    +0.000 A 
ATOM     10  C   UNL     1      47.449   4.391  16.775  0.00  0.00    +0.000 A 
ATOM     11  C   UNL     1      47.509   3.190  17.484  0.00  0.00    +0.000 A 
ATOM     12  C   UNL     1      48.702   2.844  18.090  0.00  0.00    +0.000 A 
ATOM     13  N   UNL     1      49.811   3.605  18.035  0.00  0.00    +0.000 NA
ATOM     14  C   UNL     1      49.717   4.769  17.342  0.00  0.00    +0.000 A 
ENDBRANCH   7   9
ENDBRANCH   1   2
BRANCH   1  15
ATOM     15  O   UNL     1      46.602   7.983  12.163  0.00  0.00    +0.000 OA
BRANCH  15  19
ATOM     16  C   UNL     1      44.544   4.474  11.245  0.00  0.00    +0.000 A 
ATOM     17  C   UNL     1      44.330   5.064  12.495  0.00  0.00    +0.000 A 
ATOM     18  C   UNL     1      44.998   6.244  12.841  0.00  0.00    +0.000 A 
ATOM     19  C   UNL     1      45.888   6.836  11.943  0.00  0.00    +0.000 A 
ATOM     20  C   UNL     1      46.109   6.239  10.701  0.00  0.00    +0.000 A 
ATOM     21  C   UNL     1      45.446   5.058  10.351  0.00  0.00    +0.000 A 
BRANCH  16  23
ATOM     22  N   UNL     1      44.239   2.648   9.666  0.00  0.00    +0.000 N 
ATOM     23  C   UNL     1      43.852   3.223  10.845  0.00  0.00    +0.000 C 
ATOM     24  O   UNL     1      42.998   2.703  11.550  0.00  0.00    +0.000 OA
ATOM     25  H   UNL     1      43.839   1.740   9.461  0.00  0.00    +0.000 HD
ATOM     26  H   UNL     1      45.101   2.894   9.202  0.00  0.00    +0.000 HD
ENDBRANCH  16  23
ENDBRANCH  15  19
ENDBRANCH   1  15
TORSDOF 5
ENDMDL
