MODEL 1
REMARK VINA RESULT:    -7.838      0.000      0.000
REMARK INTER + INTRA:         -10.736
REMARK INTER:                 -10.130
REMARK INTRA:                  -0.607
REMARK UNBOUND:                -0.607
REMARK  Name = 
REMARK  5 active torsions:
REMARK  status: ('A' for Active; 'I' for Inactive)
REMARK    1  A    between atoms: C_4  and  N_5
REMARK    2  A    between atoms: N_5  and  C_6
REMARK    3  A    between atoms: C_6  and  C_7
REMARK    4  A    between atoms: C_7  and  C_9
REMARK    5  A    between atoms: C_13  and  N_14
REMARK                            x       y       z     vdW  Elec       q    Type
REMARK                         _______ _______ _______ _____ _____    ______ ____
ROOT
ATOM      1  C   UNL     1      44.871   4.909  11.972  0.00  0.00    +0.000 C 
ATOM      2 BR   UNL     1      43.259   5.303  13.053  0.00  0.00    +0.000 Br
ENDROOT
BRANCH   1   3
ATOM      3  C   UNL     1      46.083   5.376  12.743  0.00  0.00    +0.000 A 
ATOM      4  C   UNL     1      46.927   6.384  12.288  0.00  0.00    +0.000 A 
ATOM      5  N   UNL     1      47.973   6.873  12.987  0.00  0.00    +0.000 NA
ATOM      6  C   UNL     1      48.190   6.333  14.208  0.00  0.00    +0.000 A 
ATOM      7  C   UNL     1      47.438   5.314  14.795  0.00  0.00    +0.000 A 
ATOM      8  C   UNL     1      46.374   4.843  14.015  0.00  0.00    +0.000 A 
BRANCH   7   9
ATOM      9  N   UNL     1      47.669   4.827  16.068  0.00  0.00    +0.000 N 
ATOM     10  C   UNL     1      48.505   5.562  17.017  0.00  0.00    +0.000 C 
ATOM     11  C   UNL     1      49.813   4.819  17.265  0.00  0.00    +0.000 C 
ATOM     12  C   UNL     1      49.539   3.384  17.709  0.00  0.00    +0.000 C 
ATOM     13  C   UNL     1      48.656   2.662  16.692  0.00  0.00    +0.000 C 
ATOM     14  C   UNL     1      47.362   3.433  16.405  0.00  0.00    +0.000 C 
ENDBRANCH   7   9
ENDBRANCH   1   3
BRANCH   1  15
ATOM     15  C   UNL     1      44.775   3.418  11.578  0.00  0.00    +0.000 C 
BRANCH  15  16
ATOM     16  N   UNL     1      44.239   3.213  10.227  0.00  0.00    +0.000 N 
ATOM     17  H   UNL     1      43.389   2.653  10.170  0.00  0.00    +0.000 HD
BRANCH  16  21
ATOM     18 CL   UNL     1      46.927  -0.103   7.447  0.00  0.00    +0.000 Cl
ATOM     19  C   UNL     1      46.376   1.502   7.746  0.00  0.00    +0.000 A 
ATOM     20  C   UNL     1      45.573   1.741   8.866  0.00  0.00    +0.000 A 
ATOM     21  C   UNL     1      45.103   3.029   9.148  0.00  0.00    +0.000 A 
ATOM     22  C   UNL     1      45.444   4.017   8.217  0.00  0.00    +0.000 A 
ATOM     23  N   UNL     1      46.230   3.833   7.130  0.00  0.00    +0.000 NA
ATOM     24  C   UNL     1      46.680   2.578   6.923  0.00  0.00    +0.000 A 
ATOM     25 CL   UNL     1      47.672   2.448   5.522  0.00  0.00    +0.000 Cl
ENDBRANCH  16  21
ENDBRANCH  15  16
ENDBRANCH   1  15
TORSDOF 5
ENDMDL
MODEL 2
REMARK VINA RESULT:    -7.776      1.940      3.559
REMARK INTER + INTRA:         -10.655
REMARK INTER:                  -9.792
REMARK INTRA:                  -0.863
REMARK UNBOUND:                -0.607
REMARK  Name = 
REMARK  5 active torsions:
REMARK  status: ('A' for Active; 'I' for Inactive)
REMARK    1  A    between atoms: C_4  and  N_5
REMARK    2  A    between atoms: N_5  and  C_6
REMARK    3  A    between atoms: C_6  and  C_7
REMARK    4  A    between atoms: C_7  and  C_9
REMARK    5  A    between atoms: C_13  and  N_14
REMARK                            x       y       z     vdW  Elec       q    Type
REMARK                         _______ _______ _______ _____ _____    ______ ____
ROOT
ATOM      1  C   UNL     1      44.004   4.597  12.062  0.00  0.00    +0.000 C 
ATOM      2 BR   UNL     1      43.458   2.701  12.233  0.00  0.00    +0.000 Br
ENDROOT
BRANCH   1   3
ATOM      3  C   UNL     1      45.298   4.786  12.818  0.00  0.00    +0.000 A 
ATOM      4  C   UNL     1      45.958   3.746  13.463  0.00  0.00    +0.000 A 
ATOM      5  N   UNL     1      47.151   3.869  14.081  0.00  0.00    +0.000 NA
ATOM      6  C   UNL     1      47.723   5.094  14.053  0.00  0.00    +0.000 A 
ATOM      7  C   UNL     1      47.182   6.233  13.456  0.00  0.00    +0.000 A 
ATOM      8  C   UNL     1      45.939   6.042  12.840  0.00  0.00    +0.000 A 
BRANCH   7   9
ATOM      9  N   UNL     1      47.828   7.456  13.410  0.00  0.00    +0.000 N 
ATOM     10  C   UNL     1      47.089   8.706  13.583  0.00  0.00    +0.000 C 
ATOM     11  C   UNL     1      47.039   9.483  12.272  0.00  0.00    +0.000 C 
ATOM     12  C   UNL     1      48.447   9.702  11.724  0.00  0.00    +0.000 C 
ATOM     13  C   UNL     1      49.181   8.370  11.570  0.00  0.00    +0.000 C 
ATOM     14  C   UNL     1      49.189   7.565  12.875  0.00  0.00    +0.000 C 
ENDBRANCH   7   9
ENDBRANCH   1   3
BRANCH   1  15
ATOM     15  C   UNL     1      43.976   4.922  10.552  0.00  0.00    +0.000 C 
BRANCH  15  16
ATOM     16  N   UNL     1      43.894   3.724   9.707  0.00  0.00    +0.000 N 
ATOM     17  H   UNL     1      43.422   2.922  10.122  0.00  0.00    +0.000 HD
BRANCH  16  21
ATOM     18 CL   UNL     1      46.702  -0.043   7.737  0.00  0.00    +0.000 Cl
ATOM     19  C   UNL     1      46.314   1.632   7.859  0.00  0.00    +0.000 A 
ATOM     20  C   UNL     1      45.305   2.027   8.744  0.00  0.00    +0.000 A 
ATOM     21  C   UNL     1      44.958   3.377   8.875  0.00  0.00    +0.000 A 
ATOM     22  C   UNL     1      45.640   4.264   8.034  0.00  0.00    +0.000 A 
ATOM     23  N   UNL     1      46.631   3.927   7.176  0.00  0.00    +0.000 NA
ATOM     24  C   UNL     1      46.947   2.616   7.111  0.00  0.00    +0.000 A 
ATOM     25 CL   UNL     1      48.217   2.290   5.998  0.00  0.00    +0.000 Cl
ENDBRANCH  16  21
ENDBRANCH  15  16
ENDBRANCH   1  15
TORSDOF 5
ENDMDL
MODEL 3
REMARK VINA RESULT:    -7.442      3.848      7.897
REMARK INTER + INTRA:         -10.223
REMARK INTER:                  -9.403
REMARK INTRA:                  -0.821
REMARK UNBOUND:                -0.607
REMARK  Name = 
REMARK  5 active torsions:
REMARK  status: ('A' for Active; 'I' for Inactive)
REMARK    1  A    between atoms: C_4  and  N_5
REMARK    2  A    between atoms: N_5  and  C_6
REMARK    3  A    between atoms: C_6  and  C_7
REMARK    4  A    between atoms: C_7  and  C_9
REMARK    5  A    between atoms: C_13  and  N_14
REMARK                            x       y       z     vdW  Elec       q    Type
REMARK                         _______ _______ _______ _____ _____    ______ ____
ROOT
ATOM      1  C   UNL     1      45.027   6.687  12.800  0.00  0.00    +0.000 C 
ATOM      2 BR   UNL     1      44.537   7.949  11.356  0.00  0.00    +0.000 Br
ENDROOT
BRANCH   1   3
ATOM      3  C   UNL     1      44.618   5.297  12.374  0.00  0.00    +0.000 A 
ATOM      4  C   UNL     1      43.957   4.411  13.217  0.00  0.00    +0.000 A 
ATOM      5  N   UNL     1      43.513   3.193  12.843  0.00  0.00    +0.000 NA
ATOM      6  C   UNL     1      43.736   2.837  11.557  0.00  0.00    +0.000 A 
ATOM      7  C   UNL     1      44.391   3.611  10.598  0.00  0.00    +0.000 A 
ATOM      8  C   UNL     1      44.836   4.859  11.052  0.00  0.00    +0.000 A 
BRANCH   7   9
ATOM      9  N   UNL     1      44.553   3.224   9.280  0.00  0.00    +0.000 N 
ATOM     10  C   UNL     1      44.662   1.812   8.916  0.00  0.00    +0.000 C 
ATOM     11  C   UNL     1      46.075   1.490   8.442  0.00  0.00    +0.000 C 
ATOM     12  C   UNL     1      46.486   2.425   7.306  0.00  0.00    +0.000 C 
ATOM     13  C   UNL     1      46.345   3.886   7.731  0.00  0.00    +0.000 C 
ATOM     14  C   UNL     1      44.939   4.199   8.255  0.00  0.00    +0.000 C 
ENDBRANCH   7   9
ENDBRANCH   1   3
BRANCH   1  15
ATOM     15  C   UNL     1      46.515   6.954  13.122  0.00  0.00    +0.000 C 
BRANCH  15  16
ATOM     16  N   UNL     1      47.310   5.724  13.228  0.00  0.00    +0.000 N 
ATOM     17  H   UNL     1      47.137   5.023  12.508  0.00  0.00    +0.000 HD
BRANCH  16  21
ATOM     18 CL   UNL     1      49.340   6.496  17.836  0.00  0.00    +0.000 Cl
ATOM     19  C   UNL     1      48.510   5.485  16.714  0.00  0.00    +0.000 A 
ATOM     20  C   UNL     1      48.271   5.967  15.422  0.00  0.00    +0.000 A 
ATOM     21  C   UNL     1      47.601   5.180  14.478  0.00  0.00    +0.000 A 
ATOM     22  C   UNL     1      47.153   3.935  14.933  0.00  0.00    +0.000 A 
ATOM     23  N   UNL     1      47.376   3.424  16.167  0.00  0.00    +0.000 NA
ATOM     24  C   UNL     1      48.053   4.212  17.028  0.00  0.00    +0.000 A 
ATOM     25 CL   UNL     1      48.287   3.475  18.565  0.00  0.00    +0.000 Cl
ENDBRANCH  16  21
ENDBRANCH  15  16
ENDBRANCH   1  15
TORSDOF 5
ENDMDL
MODEL 4
REMARK VINA RESULT:    -7.282      2.904      3.749
REMARK INTER + INTRA:         -10.017
REMARK INTER:                  -9.314
REMARK INTRA:                  -0.704
REMARK UNBOUND:                -0.607
REMARK  Name = 
REMARK  5 active torsions:
REMARK  status: ('A' for Active; 'I' for Inactive)
REMARK    1  A    between atoms: C_4  and  N_5
REMARK    2  A    between atoms: N_5  and  C_6
REMARK    3  A    between atoms: C_6  and  C_7
REMARK    4  A    between atoms: C_7  and  C_9
REMARK    5  A    between atoms: C_13  and  N_14
REMARK                            x       y       z     vdW  Elec       q    Type
REMARK                         _______ _______ _______ _____ _____    ______ ____
ROOT
ATOM      1  C   UNL     1      44.151   4.472  12.543  0.00  0.00    +0.000 C 
ATOM      2 BR   UNL     1      45.741   3.337  12.866  0.00  0.00    +0.000 Br
ENDROOT
BRANCH   1   3
ATOM      3  C   UNL     1      44.626   5.862  12.191  0.00  0.00    +0.000 A 
ATOM      4  C   UNL     1      43.820   6.797  11.550  0.00  0.00    +0.000 A 
ATOM      5  N   UNL     1      44.189   8.068  11.290  0.00  0.00    +0.000 NA
ATOM      6  C   UNL     1      45.428   8.433  11.693  0.00  0.00    +0.000 A 
ATOM      7  C   UNL     1      46.351   7.609  12.338  0.00  0.00    +0.000 A 
ATOM      8  C   UNL     1      45.911   6.299  12.570  0.00  0.00    +0.000 A 
BRANCH   7   9
ATOM      9  N   UNL     1      47.590   8.040  12.776  0.00  0.00    +0.000 N 
ATOM     10  C   UNL     1      47.922   9.464  12.815  0.00  0.00    +0.000 C 
ATOM     11  C   UNL     1      48.969   9.798  11.758  0.00  0.00    +0.000 C 
ATOM     12  C   UNL     1      50.195   8.902  11.916  0.00  0.00    +0.000 C 
ATOM     13  C   UNL     1      49.797   7.427  11.878  0.00  0.00    +0.000 C 
ATOM     14  C   UNL     1      48.708   7.101  12.907  0.00  0.00    +0.000 C 
ENDBRANCH   7   9
ENDBRANCH   1   3
BRANCH   1  15
ATOM     15  C   UNL     1      43.275   3.710  11.523  0.00  0.00    +0.000 C 
BRANCH  15  16
ATOM     16  N   UNL     1      43.984   2.606  10.866  0.00  0.00    +0.000 N 
ATOM     17  H   UNL     1      44.412   1.922  11.490  0.00  0.00    +0.000 HD
BRANCH  16  21
ATOM     18 CL   UNL     1      46.997   0.614   7.273  0.00  0.00    +0.000 Cl
ATOM     19  C   UNL     1      46.122   1.947   7.926  0.00  0.00    +0.000 A 
ATOM     20  C   UNL     1      45.440   1.778   9.135  0.00  0.00    +0.000 A 
ATOM     21  C   UNL     1      44.717   2.834   9.702  0.00  0.00    +0.000 A 
ATOM     22  C   UNL     1      44.686   4.018   8.956  0.00  0.00    +0.000 A 
ATOM     23  N   UNL     1      45.343   4.229   7.791  0.00  0.00    +0.000 NA
ATOM     24  C   UNL     1      46.049   3.187   7.305  0.00  0.00    +0.000 A 
ATOM     25 CL   UNL     1      46.849   3.555   5.827  0.00  0.00    +0.000 Cl
ENDBRANCH  16  21
ENDBRANCH  15  16
ENDBRANCH   1  15
TORSDOF 5
ENDMDL
MODEL 5
REMARK VINA RESULT:    -7.093      1.941      3.248
REMARK INTER + INTRA:          -9.773
REMARK INTER:                  -8.971
REMARK INTRA:                  -0.802
REMARK UNBOUND:                -0.607
REMARK  Name = 
REMARK  5 active torsions:
REMARK  status: ('A' for Active; 'I' for Inactive)
REMARK    1  A    between atoms: C_4  and  N_5
REMARK    2  A    between atoms: N_5  and  C_6
REMARK    3  A    between atoms: C_6  and  C_7
REMARK    4  A    between atoms: C_7  and  C_9
REMARK    5  A    between atoms: C_13  and  N_14
REMARK                            x       y       z     vdW  Elec       q    Type
REMARK                         _______ _______ _______ _____ _____    ______ ____
ROOT
ATOM      1  C   UNL     1      45.343   6.145  11.737  0.00  0.00    +0.000 C 
ATOM      2 BR   UNL     1      45.307   8.123  11.793  0.00  0.00    +0.000 Br
ENDROOT
BRANCH   1   3
ATOM      3  C   UNL     1      46.099   5.651  12.948  0.00  0.00    +0.000 A 
ATOM      4  C   UNL     1      45.899   4.391  13.503  0.00  0.00    +0.000 A 
ATOM      5  N   UNL     1      46.610   3.894  14.537  0.00  0.00    +0.000 NA
ATOM      6  C   UNL     1      47.577   4.692  15.045  0.00  0.00    +0.000 A 
ATOM      7  C   UNL     1      47.890   5.978  14.603  0.00  0.00    +0.000 A 
ATOM      8  C   UNL     1      47.110   6.440  13.535  0.00  0.00    +0.000 A 
BRANCH   7   9
ATOM      9  N   UNL     1      48.922   6.738  15.122  0.00  0.00    +0.000 N 
ATOM     10  C   UNL     1      48.905   7.180  16.516  0.00  0.00    +0.000 C 
ATOM     11  C   UNL     1      48.701   8.689  16.597  0.00  0.00    +0.000 C 
ATOM     12  C   UNL     1      49.750   9.418  15.760  0.00  0.00    +0.000 C 
ATOM     13  C   UNL     1      49.734   8.916  14.316  0.00  0.00    +0.000 C 
ATOM     14  C   UNL     1      49.890   7.392  14.236  0.00  0.00    +0.000 C 
ENDBRANCH   7   9
ENDBRANCH   1   3
BRANCH   1  15
ATOM     15  C   UNL     1      43.879   5.689  11.544  0.00  0.00    +0.000 C 
BRANCH  15  16
ATOM     16  N   UNL     1      43.575   5.301  10.161  0.00  0.00    +0.000 N 
ATOM     17  H   UNL     1      42.598   5.386   9.884  0.00  0.00    +0.000 HD
BRANCH  16  21
ATOM     18 CL   UNL     1      46.839   3.735   6.576  0.00  0.00    +0.000 Cl
ATOM     19  C   UNL     1      45.812   3.399   7.919  0.00  0.00    +0.000 A 
ATOM     20  C   UNL     1      45.077   4.446   8.483  0.00  0.00    +0.000 A 
ATOM     21  C   UNL     1      44.230   4.218   9.575  0.00  0.00    +0.000 A 
ATOM     22  C   UNL     1      44.224   2.911  10.076  0.00  0.00    +0.000 A 
ATOM     23  N   UNL     1      44.907   1.867   9.552  0.00  0.00    +0.000 NA
ATOM     24  C   UNL     1      45.684   2.136   8.482  0.00  0.00    +0.000 A 
ATOM     25 CL   UNL     1      46.507   0.746   7.888  0.00  0.00    +0.000 Cl
ENDBRANCH  16  21
ENDBRANCH  15  16
ENDBRANCH   1  15
TORSDOF 5
ENDMDL
MODEL 6
REMARK VINA RESULT:    -6.753      2.250      3.528
REMARK INTER + INTRA:          -9.334
REMARK INTER:                  -8.676
REMARK INTRA:                  -0.658
REMARK UNBOUND:                -0.607
REMARK  Name = 
REMARK  5 active torsions:
REMARK  status: ('A' for Active; 'I' for Inactive)
REMARK    1  A    between atoms: C_4  and  N_5
REMARK    2  A    between atoms: N_5  and  C_6
REMARK    3  A    between atoms: C_6  and  C_7
REMARK    4  A    between atoms: C_7  and  C_9
REMARK    5  A    between atoms: C_13  and  N_14
REMARK                            x       y       z     vdW  Elec       q    Type
REMARK                         _______ _______ _______ _____ _____    ______ ____
ROOT
ATOM      1  C   UNL     1      46.583   5.952  12.681  0.00  0.00    +0.000 C 
ATOM      2 BR   UNL     1      47.955   7.352  12.404  0.00  0.00    +0.000 Br
ENDROOT
BRANCH   1   3
ATOM      3  C   UNL     1      47.002   5.105  13.859  0.00  0.00    +0.000 A 
ATOM      4  C   UNL     1      47.048   3.716  13.815  0.00  0.00    +0.000 A 
ATOM      5  N   UNL     1      47.488   2.936  14.825  0.00  0.00    +0.000 NA
ATOM      6  C   UNL     1      47.911   3.574  15.940  0.00  0.00    +0.000 A 
ATOM      7  C   UNL     1      47.918   4.955  16.137  0.00  0.00    +0.000 A 
ATOM      8  C   UNL     1      47.439   5.707  15.057  0.00  0.00    +0.000 A 
BRANCH   7   9
ATOM      9  N   UNL     1      48.406   5.565  17.279  0.00  0.00    +0.000 N 
ATOM     10  C   UNL     1      47.908   5.194  18.603  0.00  0.00    +0.000 C 
ATOM     11  C   UNL     1      47.088   6.331  19.204  0.00  0.00    +0.000 C 
ATOM     12  C   UNL     1      47.897   7.626  19.219  0.00  0.00    +0.000 C 
ATOM     13  C   UNL     1      48.401   7.966  17.817  0.00  0.00    +0.000 C 
ATOM     14  C   UNL     1      49.184   6.805  17.192  0.00  0.00    +0.000 C 
ENDBRANCH   7   9
ENDBRANCH   1   3
BRANCH   1  15
ATOM     15  C   UNL     1      45.223   6.683  12.743  0.00  0.00    +0.000 C 
BRANCH  15  16
ATOM     16  N   UNL     1      44.434   6.535  11.514  0.00  0.00    +0.000 N 
ATOM     17  H   UNL     1      43.532   7.010  11.509  0.00  0.00    +0.000 HD
BRANCH  16  21
ATOM     18 CL   UNL     1      46.327   3.866   7.610  0.00  0.00    +0.000 Cl
ATOM     19  C   UNL     1      45.323   3.972   9.006  0.00  0.00    +0.000 A 
ATOM     20  C   UNL     1      45.236   5.194   9.682  0.00  0.00    +0.000 A 
ATOM     21  C   UNL     1      44.432   5.326  10.820  0.00  0.00    +0.000 A 
ATOM     22  C   UNL     1      43.787   4.159  11.247  0.00  0.00    +0.000 A 
ATOM     23  N   UNL     1      43.831   2.963  10.615  0.00  0.00    +0.000 NA
ATOM     24  C   UNL     1      44.597   2.899   9.506  0.00  0.00    +0.000 A 
ATOM     25 CL   UNL     1      44.585   1.341   8.775  0.00  0.00    +0.000 Cl
ENDBRANCH  16  21
ENDBRANCH  15  16
ENDBRANCH   1  15
TORSDOF 5
ENDMDL
MODEL 7
REMARK VINA RESULT:    -6.624      4.255      8.142
REMARK INTER + INTRA:          -9.167
REMARK INTER:                  -8.543
REMARK INTRA:                  -0.624
REMARK UNBOUND:                -0.607
REMARK  Name = 
REMARK  5 active torsions:
REMARK  status: ('A' for Active; 'I' for Inactive)
REMARK    1  A    between atoms: C_4  and  N_5
REMARK    2  A    between atoms: N_5  and  C_6
REMARK    3  A    between atoms: C_6  and  C_7
REMARK    4  A    between atoms: C_7  and  C_9
REMARK    5  A    between atoms: C_13  and  N_14
REMARK                            x       y       z     vdW  Elec       q    Type
REMARK                         _______ _______ _______ _____ _____    ______ ____
ROOT
ATOM      1  C   UNL     1      45.928   6.307  12.872  0.00  0.00    +0.000 C 
ATOM      2 BR   UNL     1      45.218   7.874  11.893  0.00  0.00    +0.000 Br
ENDROOT
BRANCH   1   3
ATOM      3  C   UNL     1      45.182   5.078  12.406  0.00  0.00    +0.000 A 
ATOM      4  C   UNL     1      44.297   4.377  13.217  0.00  0.00    +0.000 A 
ATOM      5  N   UNL     1      43.561   3.323  12.806  0.00  0.00    +0.000 NA
ATOM      6  C   UNL     1      43.710   2.948  11.515  0.00  0.00    +0.000 A 
ATOM      7  C   UNL     1      44.563   3.544  10.586  0.00  0.00    +0.000 A 
ATOM      8  C   UNL     1      45.306   4.626  11.076  0.00  0.00    +0.000 A 
BRANCH   7   9
ATOM      9  N   UNL     1      44.646   3.156   9.261  0.00  0.00    +0.000 N 
ATOM     10  C   UNL     1      44.784   1.746   8.896  0.00  0.00    +0.000 C 
ATOM     11  C   UNL     1      46.172   1.476   8.324  0.00  0.00    +0.000 C 
ATOM     12  C   UNL     1      46.465   2.418   7.159  0.00  0.00    +0.000 C 
ATOM     13  C   UNL     1      46.298   3.876   7.586  0.00  0.00    +0.000 C 
ATOM     14  C   UNL     1      44.921   4.138   8.207  0.00  0.00    +0.000 C 
ENDBRANCH   7   9
ENDBRANCH   1   3
BRANCH   1  15
ATOM     15  C   UNL     1      47.463   6.348  12.701  0.00  0.00    +0.000 C 
BRANCH  15  16
ATOM     16  N   UNL     1      48.032   7.682  12.931  0.00  0.00    +0.000 N 
ATOM     17  H   UNL     1      47.967   8.330  12.147  0.00  0.00    +0.000 HD
BRANCH  16  21
ATOM     18 CL   UNL     1      50.700   6.156  16.994  0.00  0.00    +0.000 Cl
ATOM     19  C   UNL     1      50.551   7.122  15.575  0.00  0.00    +0.000 A 
ATOM     20  C   UNL     1      49.362   7.061  14.840  0.00  0.00    +0.000 A 
ATOM     21  C   UNL     1      49.198   7.829  13.681  0.00  0.00    +0.000 A 
ATOM     22  C   UNL     1      50.306   8.595  13.298  0.00  0.00    +0.000 A 
ATOM     23  N   UNL     1      51.467   8.695  13.987  0.00  0.00    +0.000 NA
ATOM     24  C   UNL     1      51.560   7.956  15.112  0.00  0.00    +0.000 A 
ATOM     25 CL   UNL     1      53.069   8.154  15.917  0.00  0.00    +0.000 Cl
ENDBRANCH  16  21
ENDBRANCH  15  16
ENDBRANCH   1  15
TORSDOF 5
ENDMDL
MODEL 8
REMARK VINA RESULT:    -6.554      2.017      2.757
REMARK INTER + INTRA:          -9.077
REMARK INTER:                  -8.503
REMARK INTRA:                  -0.573
REMARK UNBOUND:                -0.607
REMARK  Name = 
REMARK  5 active torsions:
REMARK  status: ('A' for Active; 'I' for Inactive)
REMARK    1  A    between atoms: C_4  and  N_5
REMARK    2  A    between atoms: N_5  and  C_6
REMARK    3  A    between atoms: C_6  and  C_7
REMARK    4  A    between atoms: C_7  and  C_9
REMARK    5  A    between atoms: C_13  and  N_14
REMARK                            x       y       z     vdW  Elec       q    Type
REMARK                         _______ _______ _______ _____ _____    ______ ____
ROOT
ATOM      1  C   UNL     1      46.789   5.751  12.738  0.00  0.00    +0.000 C 
ATOM      2 BR   UNL     1      48.002   7.309  12.598  0.00  0.00    +0.000 Br
ENDROOT
BRANCH   1   3
ATOM      3  C   UNL     1      47.155   4.975  13.981  0.00  0.00    +0.000 A 
ATOM      4  C   UNL     1      47.175   3.585  14.028  0.00  0.00    +0.000 A 
ATOM      5  N   UNL     1      47.569   2.866  15.099  0.00  0.00    +0.000 NA
ATOM      6  C   UNL     1      47.971   3.567  16.184  0.00  0.00    +0.000 A 
ATOM      7  C   UNL     1      47.999   4.958  16.292  0.00  0.00    +0.000 A 
ATOM      8  C   UNL     1      47.568   5.646  15.150  0.00  0.00    +0.000 A 
BRANCH   7   9
ATOM      9  N   UNL     1      48.464   5.631  17.406  0.00  0.00    +0.000 N 
ATOM     10  C   UNL     1      49.806   6.213  17.430  0.00  0.00    +0.000 C 
ATOM     11  C   UNL     1      50.704   5.447  18.396  0.00  0.00    +0.000 C 
ATOM     12  C   UNL     1      50.066   5.379  19.782  0.00  0.00    +0.000 C 
ATOM     13  C   UNL     1      48.665   4.775  19.704  0.00  0.00    +0.000 C 
ATOM     14  C   UNL     1      47.776   5.513  18.696  0.00  0.00    +0.000 C 
ENDBRANCH   7   9
ENDBRANCH   1   3
BRANCH   1  15
ATOM     15  C   UNL     1      45.353   6.306  12.610  0.00  0.00    +0.000 C 
BRANCH  15  16
ATOM     16  N   UNL     1      44.482   5.467  11.778  0.00  0.00    +0.000 N 
ATOM     17  H   UNL     1      43.835   4.864  12.286  0.00  0.00    +0.000 HD
BRANCH  16  21
ATOM     18 CL   UNL     1      44.709   1.317   8.833  0.00  0.00    +0.000 Cl
ATOM     19  C   UNL     1      45.085   2.973   9.120  0.00  0.00    +0.000 A 
ATOM     20  C   UNL     1      44.684   3.556  10.326  0.00  0.00    +0.000 A 
ATOM     21  C   UNL     1      44.969   4.899  10.601  0.00  0.00    +0.000 A 
ATOM     22  C   UNL     1      45.617   5.604   9.581  0.00  0.00    +0.000 A 
ATOM     23  N   UNL     1      46.037   5.076   8.407  0.00  0.00    +0.000 NA
ATOM     24  C   UNL     1      45.763   3.770   8.206  0.00  0.00    +0.000 A 
ATOM     25 CL   UNL     1      46.338   3.193   6.690  0.00  0.00    +0.000 Cl
ENDBRANCH  16  21
ENDBRANCH  15  16
ENDBRANCH   1  15
TORSDOF 5
ENDMDL
MODEL 9
REMARK VINA RESULT:    -6.400      4.508      8.807
REMARK INTER + INTRA:          -8.878
REMARK INTER:                  -8.097
REMARK INTRA:                  -0.780
REMARK UNBOUND:                -0.607
REMARK  Name = 
REMARK  5 active torsions:
REMARK  status: ('A' for Active; 'I' for Inactive)
REMARK    1  A    between atoms: C_4  and  N_5
REMARK    2  A    between atoms: N_5  and  C_6
REMARK    3  A    between atoms: C_6  and  C_7
REMARK    4  A    between atoms: C_7  and  C_9
REMARK    5  A    between atoms: C_13  and  N_14
REMARK                            x       y       z     vdW  Elec       q    Type
REMARK                         _______ _______ _______ _____ _____    ______ ____
ROOT
ATOM      1  C   UNL     1      48.087   7.293  13.597  0.00  0.00    +0.000 C 
ATOM      2 BR   UNL     1      48.765   7.961  11.861  0.00  0.00    +0.000 Br
ENDROOT
BRANCH   1   3
ATOM      3  C   UNL     1      47.261   6.055  13.339  0.00  0.00    +0.000 A 
ATOM      4  C   UNL     1      47.077   5.057  14.289  0.00  0.00    +0.000 A 
ATOM      5  N   UNL     1      46.285   3.978  14.114  0.00  0.00    +0.000 NA
ATOM      6  C   UNL     1      45.637   3.888  12.930  0.00  0.00    +0.000 A 
ATOM      7  C   UNL     1      45.728   4.802  11.880  0.00  0.00    +0.000 A 
ATOM      8  C   UNL     1      46.572   5.894  12.119  0.00  0.00    +0.000 A 
BRANCH   7   9
ATOM      9  N   UNL     1      45.007   4.694  10.704  0.00  0.00    +0.000 N 
ATOM     10  C   UNL     1      43.970   3.675  10.547  0.00  0.00    +0.000 C 
ATOM     11  C   UNL     1      44.409   2.615   9.543  0.00  0.00    +0.000 C 
ATOM     12  C   UNL     1      44.805   3.262   8.218  0.00  0.00    +0.000 C 
ATOM     13  C   UNL     1      45.883   4.324   8.435  0.00  0.00    +0.000 C 
ATOM     14  C   UNL     1      45.462   5.363   9.482  0.00  0.00    +0.000 C 
ENDBRANCH   7   9
ENDBRANCH   1   3
BRANCH   1  15
ATOM     15  C   UNL     1      49.316   7.180  14.528  0.00  0.00    +0.000 C 
BRANCH  15  16
ATOM     16  N   UNL     1      49.240   8.072  15.692  0.00  0.00    +0.000 N 
ATOM     17  H   UNL     1      50.021   8.718  15.804  0.00  0.00    +0.000 HD
BRANCH  16  21
ATOM     18 CL   UNL     1      48.608   4.090  18.806  0.00  0.00    +0.000 Cl
ATOM     19  C   UNL     1      48.418   5.767  18.460  0.00  0.00    +0.000 A 
ATOM     20  C   UNL     1      48.855   6.254  17.223  0.00  0.00    +0.000 A 
ATOM     21  C   UNL     1      48.720   7.609  16.900  0.00  0.00    +0.000 A 
ATOM     22  C   UNL     1      48.181   8.422  17.904  0.00  0.00    +0.000 A 
ATOM     23  N   UNL     1      47.732   7.991  19.106  0.00  0.00    +0.000 NA
ATOM     24  C   UNL     1      47.859   6.671  19.354  0.00  0.00    +0.000 A 
ATOM     25 CL   UNL     1      47.257   6.222  20.902  0.00  0.00    +0.000 Cl
ENDBRANCH  16  21
ENDBRANCH  15  16
ENDBRANCH   1  15
TORSDOF 5
ENDMDL
