MODEL 1
REMARK VINA RESULT:    -8.409      0.000      0.000
REMARK INTER + INTRA:         -13.431
REMARK INTER:                 -12.096
REMARK INTRA:                  -1.335
REMARK UNBOUND:                -1.335
REMARK  Name = 
REMARK  8 active torsions:
REMARK  status: ('A' for Active; 'I' for Inactive)
REMARK    1  A    between atoms: C_2  and  C_20
REMARK    2  A    between atoms: N_3  and  C_4
REMARK    3  A    between atoms: C_4  and  C_5
REMARK    4  A    between atoms: C_8  and  C_9
REMARK    5  A    between atoms: C_9  and  O_10
REMARK    6  A    between atoms: C_9  and  C_11
REMARK    7  A    between atoms: C_11  and  C_12
REMARK    8  A    between atoms: C_12  and  C_13
REMARK                            x       y       z     vdW  Elec       q    Type
REMARK                         _______ _______ _______ _____ _____    ______ ____
ROOT
ATOM      1  C   UNL     1      46.119   6.971  12.420  0.00  0.00    +0.000 A 
ATOM      2  C   UNL     1      46.571   6.713  11.129  0.00  0.00    +0.000 A 
ATOM      3  C   UNL     1      45.936   5.750  10.344  0.00  0.00    +0.000 A 
ATOM      4  C   UNL     1      44.843   5.056  10.862  0.00  0.00    +0.000 A 
ATOM      5  N   UNL     1      44.383   5.289  12.115  0.00  0.00    +0.000 NA
ATOM      6  C   UNL     1      45.031   6.223  12.861  0.00  0.00    +0.000 A 
ENDROOT
BRANCH   1   7
ATOM      7  C   UNL     1      46.804   7.997  13.271  0.00  0.00    +0.000 C 
BRANCH   7  10
ATOM      8  O   UNL     1      49.242   6.660  13.456  0.00  0.00    +0.000 OA
ATOM      9  C   UNL     1      48.567   6.821  14.484  0.00  0.00    +0.000 C 
ATOM     10  N   UNL     1      47.358   7.456  14.480  0.00  0.00    +0.000 N 
ATOM     11  H   UNL     1      47.008   7.811  15.355  0.00  0.00    +0.000 HD
BRANCH   9  12
ATOM     12  C   UNL     1      49.004   6.322  15.776  0.00  0.00    +0.000 A 
ATOM     13  C   UNL     1      50.011   6.928  16.512  0.00  0.00    +0.000 A 
ATOM     14  S   UNL     1      50.304   6.148  18.007  0.00  0.00    +0.000 S 
ATOM     15  C   UNL     1      49.089   4.993  17.709  0.00  0.00    +0.000 A 
ATOM     16  N   UNL     1      48.803   4.014  18.606  0.00  0.00    +0.000 NA
ATOM     17  C   UNL     1      47.847   3.222  18.245  0.00  0.00    +0.000 A 
ATOM     18  N   UNL     1      47.152   3.319  17.067  0.00  0.00    +0.000 N 
ATOM     19  C   UNL     1      47.448   4.246  16.110  0.00  0.00    +0.000 A 
ATOM     20  O   UNL     1      46.899   4.196  15.002  0.00  0.00    +0.000 OA
ATOM     21  C   UNL     1      48.484   5.181  16.482  0.00  0.00    +0.000 A 
ATOM     22  H   UNL     1      46.444   2.643  16.825  0.00  0.00    +0.000 HD
ENDBRANCH   9  12
ENDBRANCH   7  10
ENDBRANCH   1   7
BRANCH   4  23
ATOM     23  C   UNL     1      44.117   3.991  10.055  0.00  0.00    +0.000 C 
BRANCH  23  24
ATOM     24  O   UNL     1      43.982   4.398   8.681  0.00  0.00    +0.000 OA
ATOM     25  H   UNL     1      43.168   3.982   8.345  0.00  0.00    +0.000 HD
ENDBRANCH  23  24
BRANCH  23  26
ATOM     26  C   UNL     1      44.846   2.644  10.048  0.00  0.00    +0.000 C 
BRANCH  26  27
ATOM     27  C   UNL     1      44.718   1.853   8.751  0.00  0.00    +0.000 C 
BRANCH  27  28
ATOM     28  C   UNL     1      46.012   1.859   8.013  0.00  0.00    +0.000 A 
ATOM     29  C   UNL     1      46.870   0.847   7.630  0.00  0.00    +0.000 A 
ATOM     30  N   UNL     1      47.951   1.350   6.954  0.00  0.00    +0.000 NA
ATOM     31  C   UNL     1      47.762   2.647   6.918  0.00  0.00    +0.000 A 
ATOM     32  N   UNL     1      46.599   3.005   7.537  0.00  0.00    +0.000 N 
ATOM     33  H   UNL     1      46.244   3.946   7.635  0.00  0.00    +0.000 HD
ENDBRANCH  27  28
ENDBRANCH  26  27
ENDBRANCH  23  26
ENDBRANCH   4  23
TORSDOF 8
ENDMDL
MODEL 2
REMARK VINA RESULT:    -7.728      2.171      2.578
REMARK INTER + INTRA:         -12.451
REMARK INTER:                 -11.500
REMARK INTRA:                  -0.951
REMARK UNBOUND:                -1.335
REMARK  Name = 
REMARK  8 active torsions:
REMARK  status: ('A' for Active; 'I' for Inactive)
REMARK    1  A    between atoms: C_2  and  C_20
REMARK    2  A    between atoms: N_3  and  C_4
REMARK    3  A    between atoms: C_4  and  C_5
REMARK    4  A    between atoms: C_8  and  C_9
REMARK    5  A    between atoms: C_9  and  O_10
REMARK    6  A    between atoms: C_9  and  C_11
REMARK    7  A    between atoms: C_11  and  C_12
REMARK    8  A    between atoms: C_12  and  C_13
REMARK                            x       y       z     vdW  Elec       q    Type
REMARK                         _______ _______ _______ _____ _____    ______ ____
ROOT
ATOM      1  C   UNL     1      47.050   5.958  13.011  0.00  0.00    +0.000 A 
ATOM      2  C   UNL     1      46.640   6.547  11.817  0.00  0.00    +0.000 A 
ATOM      3  C   UNL     1      45.699   5.909  11.009  0.00  0.00    +0.000 A 
ATOM      4  C   UNL     1      45.171   4.682  11.410  0.00  0.00    +0.000 A 
ATOM      5  N   UNL     1      45.552   4.089  12.567  0.00  0.00    +0.000 NA
ATOM      6  C   UNL     1      46.480   4.728  13.327  0.00  0.00    +0.000 A 
ENDROOT
BRANCH   1   7
ATOM      7  C   UNL     1      48.068   6.634  13.878  0.00  0.00    +0.000 C 
BRANCH   7  10
ATOM      8  O   UNL     1      50.206   6.480  15.659  0.00  0.00    +0.000 OA
ATOM      9  C   UNL     1      49.063   6.235  16.072  0.00  0.00    +0.000 C 
ATOM     10  N   UNL     1      47.962   6.278  15.264  0.00  0.00    +0.000 N 
ATOM     11  H   UNL     1      47.059   6.361  15.701  0.00  0.00    +0.000 HD
BRANCH   9  12
ATOM     12  C   UNL     1      48.808   5.858  17.451  0.00  0.00    +0.000 A 
ATOM     13  C   UNL     1      49.007   4.570  17.924  0.00  0.00    +0.000 A 
ATOM     14  S   UNL     1      48.655   4.411  19.591  0.00  0.00    +0.000 S 
ATOM     15  C   UNL     1      48.238   6.056  19.720  0.00  0.00    +0.000 A 
ATOM     16  N   UNL     1      47.842   6.600  20.899  0.00  0.00    +0.000 NA
ATOM     17  C   UNL     1      47.572   7.863  20.841  0.00  0.00    +0.000 A 
ATOM     18  N   UNL     1      47.662   8.632  19.710  0.00  0.00    +0.000 N 
ATOM     19  C   UNL     1      47.993   8.115  18.491  0.00  0.00    +0.000 A 
ATOM     20  O   UNL     1      47.910   8.814  17.473  0.00  0.00    +0.000 OA
ATOM     21  C   UNL     1      48.343   6.714  18.510  0.00  0.00    +0.000 A 
ATOM     22  H   UNL     1      47.397   9.605  19.721  0.00  0.00    +0.000 HD
ENDBRANCH   9  12
ENDBRANCH   7  10
ENDBRANCH   1   7
BRANCH   4  23
ATOM     23  C   UNL     1      44.148   3.939  10.565  0.00  0.00    +0.000 C 
BRANCH  23  24
ATOM     24  O   UNL     1      43.397   4.857   9.749  0.00  0.00    +0.000 OA
ATOM     25  H   UNL     1      44.044   5.447   9.324  0.00  0.00    +0.000 HD
ENDBRANCH  23  24
BRANCH  23  26
ATOM     26  C   UNL     1      44.783   2.920   9.614  0.00  0.00    +0.000 C 
BRANCH  26  27
ATOM     27  C   UNL     1      45.106   3.456   8.224  0.00  0.00    +0.000 C 
BRANCH  27  28
ATOM     28  C   UNL     1      46.286   2.744   7.658  0.00  0.00    +0.000 A 
ATOM     29  C   UNL     1      46.691   1.425   7.707  0.00  0.00    +0.000 A 
ATOM     30  N   UNL     1      47.862   1.245   7.018  0.00  0.00    +0.000 NA
ATOM     31  C   UNL     1      48.173   2.430   6.551  0.00  0.00    +0.000 A 
ATOM     32  N   UNL     1      47.246   3.370   6.902  0.00  0.00    +0.000 N 
ATOM     33  H   UNL     1      47.274   4.350   6.657  0.00  0.00    +0.000 HD
ENDBRANCH  27  28
ENDBRANCH  26  27
ENDBRANCH  23  26
ENDBRANCH   4  23
TORSDOF 8
ENDMDL
MODEL 3
REMARK VINA RESULT:    -7.089      2.064      2.662
REMARK INTER + INTRA:         -11.533
REMARK INTER:                 -10.280
REMARK INTRA:                  -1.253
REMARK UNBOUND:                -1.335
REMARK  Name = 
REMARK  8 active torsions:
REMARK  status: ('A' for Active; 'I' for Inactive)
REMARK    1  A    between atoms: C_2  and  C_20
REMARK    2  A    between atoms: N_3  and  C_4
REMARK    3  A    between atoms: C_4  and  C_5
REMARK    4  A    between atoms: C_8  and  C_9
REMARK    5  A    between atoms: C_9  and  O_10
REMARK    6  A    between atoms: C_9  and  C_11
REMARK    7  A    between atoms: C_11  and  C_12
REMARK    8  A    between atoms: C_12  and  C_13
REMARK                            x       y       z     vdW  Elec       q    Type
REMARK                         _______ _______ _______ _____ _____    ______ ____
ROOT
ATOM      1  C   UNL     1      47.359   6.222  13.504  0.00  0.00    +0.000 A 
ATOM      2  C   UNL     1      46.341   7.005  12.970  0.00  0.00    +0.000 A 
ATOM      3  C   UNL     1      45.067   6.466  12.782  0.00  0.00    +0.000 A 
ATOM      4  C   UNL     1      44.826   5.140  13.141  0.00  0.00    +0.000 A 
ATOM      5  N   UNL     1      45.800   4.357  13.664  0.00  0.00    +0.000 NA
ATOM      6  C   UNL     1      47.034   4.907  13.821  0.00  0.00    +0.000 A 
ENDROOT
BRANCH   1   7
ATOM      7  C   UNL     1      48.732   6.793  13.698  0.00  0.00    +0.000 C 
BRANCH   7  10
ATOM      8  O   UNL     1      48.236   8.641  15.724  0.00  0.00    +0.000 OA
ATOM      9  C   UNL     1      48.910   7.634  15.984  0.00  0.00    +0.000 C 
ATOM     10  N   UNL     1      49.208   6.685  15.048  0.00  0.00    +0.000 N 
ATOM     11  H   UNL     1      49.492   5.775  15.372  0.00  0.00    +0.000 HD
BRANCH   9  12
ATOM     12  C   UNL     1      49.459   7.397  17.307  0.00  0.00    +0.000 A 
ATOM     13  C   UNL     1      50.434   8.206  17.870  0.00  0.00    +0.000 A 
ATOM     14  S   UNL     1      50.879   7.713  19.448  0.00  0.00    +0.000 S 
ATOM     15  C   UNL     1      49.777   6.417  19.417  0.00  0.00    +0.000 A 
ATOM     16  N   UNL     1      49.637   5.575  20.473  0.00  0.00    +0.000 NA
ATOM     17  C   UNL     1      48.752   4.649  20.306  0.00  0.00    +0.000 A 
ATOM     18  N   UNL     1      47.993   4.486  19.176  0.00  0.00    +0.000 N 
ATOM     19  C   UNL     1      48.144   5.267  18.067  0.00  0.00    +0.000 A 
ATOM     20  O   UNL     1      47.549   4.985  17.019  0.00  0.00    +0.000 OA
ATOM     21  C   UNL     1      49.095   6.343  18.218  0.00  0.00    +0.000 A 
ATOM     22  H   UNL     1      47.347   3.716  19.091  0.00  0.00    +0.000 HD
ENDBRANCH   9  12
ENDBRANCH   7  10
ENDBRANCH   1   7
BRANCH   4  23
ATOM     23  C   UNL     1      43.461   4.498  12.951  0.00  0.00    +0.000 C 
BRANCH  23  24
ATOM     24  O   UNL     1      42.416   5.381  13.400  0.00  0.00    +0.000 OA
ATOM     25  H   UNL     1      41.930   5.666  12.606  0.00  0.00    +0.000 HD
ENDBRANCH  23  24
BRANCH  23  26
ATOM     26  C   UNL     1      43.155   4.158  11.490  0.00  0.00    +0.000 C 
BRANCH  26  27
ATOM     27  C   UNL     1      43.893   2.940  10.948  0.00  0.00    +0.000 C 
BRANCH  27  28
ATOM     28  C   UNL     1      44.685   3.311   9.741  0.00  0.00    +0.000 A 
ATOM     29  C   UNL     1      45.093   4.527   9.232  0.00  0.00    +0.000 A 
ATOM     30  N   UNL     1      45.820   4.360   8.083  0.00  0.00    +0.000 NA
ATOM     31  C   UNL     1      45.862   3.065   7.887  0.00  0.00    +0.000 A 
ATOM     32  N   UNL     1      45.198   2.384   8.868  0.00  0.00    +0.000 N 
ATOM     33  H   UNL     1      45.096   1.381   8.928  0.00  0.00    +0.000 HD
ENDBRANCH  27  28
ENDBRANCH  26  27
ENDBRANCH  23  26
ENDBRANCH   4  23
TORSDOF 8
ENDMDL
MODEL 4
REMARK VINA RESULT:    -7.040      3.307      7.652
REMARK INTER + INTRA:         -11.462
REMARK INTER:                  -9.877
REMARK INTRA:                  -1.585
REMARK UNBOUND:                -1.335
REMARK  Name = 
REMARK  8 active torsions:
REMARK  status: ('A' for Active; 'I' for Inactive)
REMARK    1  A    between atoms: C_2  and  C_20
REMARK    2  A    between atoms: N_3  and  C_4
REMARK    3  A    between atoms: C_4  and  C_5
REMARK    4  A    between atoms: C_8  and  C_9
REMARK    5  A    between atoms: C_9  and  O_10
REMARK    6  A    between atoms: C_9  and  C_11
REMARK    7  A    between atoms: C_11  and  C_12
REMARK    8  A    between atoms: C_12  and  C_13
REMARK                            x       y       z     vdW  Elec       q    Type
REMARK                         _______ _______ _______ _____ _____    ______ ____
ROOT
ATOM      1  C   UNL     1      48.460   7.500  13.851  0.00  0.00    +0.000 A 
ATOM      2  C   UNL     1      48.676   8.567  14.718  0.00  0.00    +0.000 A 
ATOM      3  C   UNL     1      48.777   8.344  16.092  0.00  0.00    +0.000 A 
ATOM      4  C   UNL     1      48.667   7.044  16.584  0.00  0.00    +0.000 A 
ATOM      5  N   UNL     1      48.458   5.988  15.761  0.00  0.00    +0.000 NA
ATOM      6  C   UNL     1      48.349   6.239  14.430  0.00  0.00    +0.000 A 
ENDROOT
BRANCH   1   7
ATOM      7  C   UNL     1      48.339   7.735  12.376  0.00  0.00    +0.000 C 
BRANCH   7  10
ATOM      8  O   UNL     1      45.605   7.813  11.842  0.00  0.00    +0.000 OA
ATOM      9  C   UNL     1      46.262   6.831  11.464  0.00  0.00    +0.000 C 
ATOM     10  N   UNL     1      47.603   6.709  11.694  0.00  0.00    +0.000 N 
ATOM     11  H   UNL     1      48.121   6.060  11.125  0.00  0.00    +0.000 HD
BRANCH   9  12
ATOM     12  C   UNL     1      45.646   5.717  10.766  0.00  0.00    +0.000 A 
ATOM     13  C   UNL     1      45.787   5.518   9.401  0.00  0.00    +0.000 A 
ATOM     14  S   UNL     1      44.978   4.116   8.845  0.00  0.00    +0.000 S 
ATOM     15  C   UNL     1      44.431   3.740  10.413  0.00  0.00    +0.000 A 
ATOM     16  N   UNL     1      43.674   2.639  10.658  0.00  0.00    +0.000 NA
ATOM     17  C   UNL     1      43.347   2.480  11.898  0.00  0.00    +0.000 A 
ATOM     18  N   UNL     1      43.708   3.323  12.917  0.00  0.00    +0.000 N 
ATOM     19  C   UNL     1      44.412   4.473  12.709  0.00  0.00    +0.000 A 
ATOM     20  O   UNL     1      44.580   5.279  13.633  0.00  0.00    +0.000 OA
ATOM     21  C   UNL     1      44.836   4.677  11.343  0.00  0.00    +0.000 A 
ATOM     22  H   UNL     1      43.385   3.166  13.860  0.00  0.00    +0.000 HD
ENDBRANCH   9  12
ENDBRANCH   7  10
ENDBRANCH   1   7
BRANCH   4  23
ATOM     23  C   UNL     1      48.762   6.743  18.072  0.00  0.00    +0.000 C 
BRANCH  23  24
ATOM     24  O   UNL     1      47.535   6.165  18.554  0.00  0.00    +0.000 OA
ATOM     25  H   UNL     1      46.860   6.865  18.510  0.00  0.00    +0.000 HD
ENDBRANCH  23  24
BRANCH  23  26
ATOM     26  C   UNL     1      49.881   5.755  18.413  0.00  0.00    +0.000 C 
BRANCH  26  27
ATOM     27  C   UNL     1      49.406   4.411  18.953  0.00  0.00    +0.000 C 
BRANCH  27  28
ATOM     28  C   UNL     1      49.284   3.424  17.844  0.00  0.00    +0.000 A 
ATOM     29  C   UNL     1      50.184   2.546  17.274  0.00  0.00    +0.000 A 
ATOM     30  N   UNL     1      49.596   1.824  16.269  0.00  0.00    +0.000 NA
ATOM     31  C   UNL     1      48.356   2.247  16.220  0.00  0.00    +0.000 A 
ATOM     32  N   UNL     1      48.113   3.209  17.158  0.00  0.00    +0.000 N 
ATOM     33  H   UNL     1      47.234   3.682  17.309  0.00  0.00    +0.000 HD
ENDBRANCH  27  28
ENDBRANCH  26  27
ENDBRANCH  23  26
ENDBRANCH   4  23
TORSDOF 8
ENDMDL
MODEL 5
REMARK VINA RESULT:    -6.889      2.178      2.764
REMARK INTER + INTRA:         -11.245
REMARK INTER:                  -9.986
REMARK INTRA:                  -1.259
REMARK UNBOUND:                -1.335
REMARK  Name = 
REMARK  8 active torsions:
REMARK  status: ('A' for Active; 'I' for Inactive)
REMARK    1  A    between atoms: C_2  and  C_20
REMARK    2  A    between atoms: N_3  and  C_4
REMARK    3  A    between atoms: C_4  and  C_5
REMARK    4  A    between atoms: C_8  and  C_9
REMARK    5  A    between atoms: C_9  and  O_10
REMARK    6  A    between atoms: C_9  and  C_11
REMARK    7  A    between atoms: C_11  and  C_12
REMARK    8  A    between atoms: C_12  and  C_13
REMARK                            x       y       z     vdW  Elec       q    Type
REMARK                         _______ _______ _______ _____ _____    ______ ____
ROOT
ATOM      1  C   UNL     1      47.320   6.786  12.882  0.00  0.00    +0.000 A 
ATOM      2  C   UNL     1      46.141   7.410  12.482  0.00  0.00    +0.000 A 
ATOM      3  C   UNL     1      44.936   6.706  12.499  0.00  0.00    +0.000 A 
ATOM      4  C   UNL     1      44.924   5.378  12.925  0.00  0.00    +0.000 A 
ATOM      5  N   UNL     1      46.057   4.749  13.320  0.00  0.00    +0.000 NA
ATOM      6  C   UNL     1      47.218   5.456  13.279  0.00  0.00    +0.000 A 
ENDROOT
BRANCH   1   7
ATOM      7  C   UNL     1      48.618   7.534  12.856  0.00  0.00    +0.000 C 
BRANCH   7  10
ATOM      8  O   UNL     1      49.484   8.804  15.180  0.00  0.00    +0.000 OA
ATOM      9  C   UNL     1      49.957   7.694  14.892  0.00  0.00    +0.000 C 
ATOM     10  N   UNL     1      49.596   7.009  13.767  0.00  0.00    +0.000 N 
ATOM     11  H   UNL     1      49.778   6.019  13.738  0.00  0.00    +0.000 HD
BRANCH   9  12
ATOM     12  C   UNL     1      50.957   7.046  15.721  0.00  0.00    +0.000 A 
ATOM     13  C   UNL     1      52.289   7.431  15.729  0.00  0.00    +0.000 A 
ATOM     14  S   UNL     1      53.241   6.515  16.817  0.00  0.00    +0.000 S 
ATOM     15  C   UNL     1      51.897   5.593  17.307  0.00  0.00    +0.000 A 
ATOM     16  N   UNL     1      52.008   4.614  18.242  0.00  0.00    +0.000 NA
ATOM     17  C   UNL     1      50.899   4.011  18.520  0.00  0.00    +0.000 A 
ATOM     18  N   UNL     1      49.687   4.298  17.946  0.00  0.00    +0.000 N 
ATOM     19  C   UNL     1      49.540   5.228  16.959  0.00  0.00    +0.000 A 
ATOM     20  O   UNL     1      48.461   5.342  16.364  0.00  0.00    +0.000 OA
ATOM     21  C   UNL     1      50.745   5.958  16.639  0.00  0.00    +0.000 A 
ATOM     22  H   UNL     1      48.864   3.762  18.176  0.00  0.00    +0.000 HD
ENDBRANCH   9  12
ENDBRANCH   7  10
ENDBRANCH   1   7
BRANCH   4  23
ATOM     23  C   UNL     1      43.642   4.562  12.956  0.00  0.00    +0.000 C 
BRANCH  23  24
ATOM     24  O   UNL     1      42.581   5.303  13.587  0.00  0.00    +0.000 OA
ATOM     25  H   UNL     1      42.984   6.108  13.957  0.00  0.00    +0.000 HD
ENDBRANCH  23  24
BRANCH  23  26
ATOM     26  C   UNL     1      43.142   4.176  11.561  0.00  0.00    +0.000 C 
BRANCH  26  27
ATOM     27  C   UNL     1      43.775   2.916  10.980  0.00  0.00    +0.000 C 
BRANCH  27  28
ATOM     28  C   UNL     1      44.567   3.251   9.763  0.00  0.00    +0.000 A 
ATOM     29  C   UNL     1      44.976   4.452   9.219  0.00  0.00    +0.000 A 
ATOM     30  N   UNL     1      45.702   4.250   8.074  0.00  0.00    +0.000 NA
ATOM     31  C   UNL     1      45.742   2.949   7.916  0.00  0.00    +0.000 A 
ATOM     32  N   UNL     1      45.077   2.298   8.916  0.00  0.00    +0.000 N 
ATOM     33  H   UNL     1      44.974   1.298   9.006  0.00  0.00    +0.000 HD
ENDBRANCH  27  28
ENDBRANCH  26  27
ENDBRANCH  23  26
ENDBRANCH   4  23
TORSDOF 8
ENDMDL
MODEL 6
REMARK VINA RESULT:    -6.884      2.979      4.160
REMARK INTER + INTRA:         -11.238
REMARK INTER:                 -10.139
REMARK INTRA:                  -1.099
REMARK UNBOUND:                -1.335
REMARK  Name = 
REMARK  8 active torsions:
REMARK  status: ('A' for Active; 'I' for Inactive)
REMARK    1  A    between atoms: C_2  and  C_20
REMARK    2  A    between atoms: N_3  and  C_4
REMARK    3  A    between atoms: C_4  and  C_5
REMARK    4  A    between atoms: C_8  and  C_9
REMARK    5  A    between atoms: C_9  and  O_10
REMARK    6  A    between atoms: C_9  and  C_11
REMARK    7  A    between atoms: C_11  and  C_12
REMARK    8  A    between atoms: C_12  and  C_13
REMARK                            x       y       z     vdW  Elec       q    Type
REMARK                         _______ _______ _______ _____ _____    ______ ____
ROOT
ATOM      1  C   UNL     1      48.224   5.813  15.514  0.00  0.00    +0.000 A 
ATOM      2  C   UNL     1      47.558   4.620  15.784  0.00  0.00    +0.000 A 
ATOM      3  C   UNL     1      46.796   4.004  14.791  0.00  0.00    +0.000 A 
ATOM      4  C   UNL     1      46.713   4.590  13.528  0.00  0.00    +0.000 A 
ATOM      5  N   UNL     1      47.353   5.749  13.240  0.00  0.00    +0.000 NA
ATOM      6  C   UNL     1      48.076   6.333  14.232  0.00  0.00    +0.000 A 
ENDROOT
BRANCH   1   7
ATOM      7  C   UNL     1      49.035   6.485  16.581  0.00  0.00    +0.000 C 
BRANCH   7  10
ATOM      8  O   UNL     1      49.346   5.354  19.108  0.00  0.00    +0.000 OA
ATOM      9  C   UNL     1      50.237   5.185  18.263  0.00  0.00    +0.000 C 
ATOM     10  N   UNL     1      50.169   5.712  17.005  0.00  0.00    +0.000 N 
ATOM     11  H   UNL     1      50.754   5.309  16.291  0.00  0.00    +0.000 HD
BRANCH   9  12
ATOM     12  C   UNL     1      51.441   4.428  18.555  0.00  0.00    +0.000 A 
ATOM     13  C   UNL     1      52.478   4.936  19.323  0.00  0.00    +0.000 A 
ATOM     14  S   UNL     1      53.761   3.822  19.531  0.00  0.00    +0.000 S 
ATOM     15  C   UNL     1      52.958   2.636  18.610  0.00  0.00    +0.000 A 
ATOM     16  N   UNL     1      53.504   1.413  18.393  0.00  0.00    +0.000 NA
ATOM     17  C   UNL     1      52.770   0.616  17.688  0.00  0.00    +0.000 A 
ATOM     18  N   UNL     1      51.537   0.933  17.179  0.00  0.00    +0.000 N 
ATOM     19  C   UNL     1      50.978   2.170  17.317  0.00  0.00    +0.000 A 
ATOM     20  O   UNL     1      49.937   2.457  16.710  0.00  0.00    +0.000 OA
ATOM     21  C   UNL     1      51.742   3.086  18.132  0.00  0.00    +0.000 A 
ATOM     22  H   UNL     1      51.031   0.280  16.600  0.00  0.00    +0.000 HD
ENDBRANCH   9  12
ENDBRANCH   7  10
ENDBRANCH   1   7
BRANCH   4  23
ATOM     23  C   UNL     1      45.892   3.966  12.411  0.00  0.00    +0.000 C 
BRANCH  23  24
ATOM     24  O   UNL     1      45.319   2.716  12.837  0.00  0.00    +0.000 OA
ATOM     25  H   UNL     1      45.059   2.238  12.029  0.00  0.00    +0.000 HD
ENDBRANCH  23  24
BRANCH  23  26
ATOM     26  C   UNL     1      44.729   4.853  11.955  0.00  0.00    +0.000 C 
BRANCH  26  27
ATOM     27  C   UNL     1      43.738   4.177  11.015  0.00  0.00    +0.000 C 
BRANCH  27  28
ATOM     28  C   UNL     1      44.460   3.529   9.883  0.00  0.00    +0.000 A 
ATOM     29  C   UNL     1      45.030   4.033   8.731  0.00  0.00    +0.000 A 
ATOM     30  N   UNL     1      45.595   3.032   7.986  0.00  0.00    +0.000 NA
ATOM     31  C   UNL     1      45.382   1.932   8.666  0.00  0.00    +0.000 A 
ATOM     32  N   UNL     1      44.706   2.179   9.827  0.00  0.00    +0.000 N 
ATOM     33  H   UNL     1      44.430   1.489  10.510  0.00  0.00    +0.000 HD
ENDBRANCH  27  28
ENDBRANCH  26  27
ENDBRANCH  23  26
ENDBRANCH   4  23
TORSDOF 8
ENDMDL
MODEL 7
REMARK VINA RESULT:    -6.671      3.397      4.973
REMARK INTER + INTRA:         -10.931
REMARK INTER:                  -9.860
REMARK INTRA:                  -1.071
REMARK UNBOUND:                -1.335
REMARK  Name = 
REMARK  8 active torsions:
REMARK  status: ('A' for Active; 'I' for Inactive)
REMARK    1  A    between atoms: C_2  and  C_20
REMARK    2  A    between atoms: N_3  and  C_4
REMARK    3  A    between atoms: C_4  and  C_5
REMARK    4  A    between atoms: C_8  and  C_9
REMARK    5  A    between atoms: C_9  and  O_10
REMARK    6  A    between atoms: C_9  and  C_11
REMARK    7  A    between atoms: C_11  and  C_12
REMARK    8  A    between atoms: C_12  and  C_13
REMARK                            x       y       z     vdW  Elec       q    Type
REMARK                         _______ _______ _______ _____ _____    ______ ____
ROOT
ATOM      1  C   UNL     1      46.877   5.372  13.274  0.00  0.00    +0.000 A 
ATOM      2  C   UNL     1      46.180   5.941  12.211  0.00  0.00    +0.000 A 
ATOM      3  C   UNL     1      45.252   5.182  11.497  0.00  0.00    +0.000 A 
ATOM      4  C   UNL     1      45.027   3.855  11.861  0.00  0.00    +0.000 A 
ATOM      5  N   UNL     1      45.691   3.279  12.892  0.00  0.00    +0.000 NA
ATOM      6  C   UNL     1      46.598   4.039  13.560  0.00  0.00    +0.000 A 
ENDROOT
BRANCH   1   7
ATOM      7  C   UNL     1      47.882   6.179  14.038  0.00  0.00    +0.000 C 
BRANCH   7  10
ATOM      8  O   UNL     1      47.573   8.929  14.369  0.00  0.00    +0.000 OA
ATOM      9  C   UNL     1      48.329   8.514  13.478  0.00  0.00    +0.000 C 
ATOM     10  N   UNL     1      48.530   7.183  13.242  0.00  0.00    +0.000 N 
ATOM     11  H   UNL     1      49.351   6.914  12.727  0.00  0.00    +0.000 HD
BRANCH   9  12
ATOM     12  C   UNL     1      49.046   9.417  12.595  0.00  0.00    +0.000 A 
ATOM     13  C   UNL     1      48.410  10.187  11.634  0.00  0.00    +0.000 A 
ATOM     14  S   UNL     1      49.491  11.180  10.754  0.00  0.00    +0.000 S 
ATOM     15  C   UNL     1      50.828  10.610  11.640  0.00  0.00    +0.000 A 
ATOM     16  N   UNL     1      52.086  11.061  11.400  0.00  0.00    +0.000 NA
ATOM     17  C   UNL     1      52.994  10.546  12.163  0.00  0.00    +0.000 A 
ATOM     18  N   UNL     1      52.757   9.619  13.145  0.00  0.00    +0.000 N 
ATOM     19  C   UNL     1      51.521   9.090  13.378  0.00  0.00    +0.000 A 
ATOM     20  O   UNL     1      51.384   8.145  14.166  0.00  0.00    +0.000 OA
ATOM     21  C   UNL     1      50.464   9.663  12.577  0.00  0.00    +0.000 A 
ATOM     22  H   UNL     1      53.516   9.223  13.679  0.00  0.00    +0.000 HD
ENDBRANCH   9  12
ENDBRANCH   7  10
ENDBRANCH   1   7
BRANCH   4  23
ATOM     23  C   UNL     1      44.033   2.980  11.113  0.00  0.00    +0.000 C 
BRANCH  23  24
ATOM     24  O   UNL     1      42.684   3.423  11.349  0.00  0.00    +0.000 OA
ATOM     25  H   UNL     1      42.683   4.390  11.232  0.00  0.00    +0.000 HD
ENDBRANCH  23  24
BRANCH  23  26
ATOM     26  C   UNL     1      44.244   2.995   9.596  0.00  0.00    +0.000 C 
BRANCH  26  27
ATOM     27  C   UNL     1      44.836   1.714   9.019  0.00  0.00    +0.000 C 
BRANCH  27  28
ATOM     28  C   UNL     1      45.975   2.035   8.113  0.00  0.00    +0.000 A 
ATOM     29  C   UNL     1      46.418   3.217   7.556  0.00  0.00    +0.000 A 
ATOM     30  N   UNL     1      47.529   3.009   6.782  0.00  0.00    +0.000 NA
ATOM     31  C   UNL     1      47.768   1.723   6.861  0.00  0.00    +0.000 A 
ATOM     32  N   UNL     1      46.862   1.089   7.661  0.00  0.00    +0.000 N 
ATOM     33  H   UNL     1      46.844   0.101   7.871  0.00  0.00    +0.000 HD
ENDBRANCH  27  28
ENDBRANCH  26  27
ENDBRANCH  23  26
ENDBRANCH   4  23
TORSDOF 8
ENDMDL
MODEL 8
REMARK VINA RESULT:    -6.324      2.802      8.238
REMARK INTER + INTRA:         -10.432
REMARK INTER:                  -9.269
REMARK INTRA:                  -1.163
REMARK UNBOUND:                -1.335
REMARK  Name = 
REMARK  8 active torsions:
REMARK  status: ('A' for Active; 'I' for Inactive)
REMARK    1  A    between atoms: C_2  and  C_20
REMARK    2  A    between atoms: N_3  and  C_4
REMARK    3  A    between atoms: C_4  and  C_5
REMARK    4  A    between atoms: C_8  and  C_9
REMARK    5  A    between atoms: C_9  and  O_10
REMARK    6  A    between atoms: C_9  and  C_11
REMARK    7  A    between atoms: C_11  and  C_12
REMARK    8  A    between atoms: C_12  and  C_13
REMARK                            x       y       z     vdW  Elec       q    Type
REMARK                         _______ _______ _______ _____ _____    ______ ____
ROOT
ATOM      1  C   UNL     1      48.015   7.926  13.142  0.00  0.00    +0.000 A 
ATOM      2  C   UNL     1      48.319   9.122  13.788  0.00  0.00    +0.000 A 
ATOM      3  C   UNL     1      49.224   9.133  14.850  0.00  0.00    +0.000 A 
ATOM      4  C   UNL     1      49.824   7.940  15.251  0.00  0.00    +0.000 A 
ATOM      5  N   UNL     1      49.546   6.764  14.639  0.00  0.00    +0.000 NA
ATOM      6  C   UNL     1      48.649   6.782  13.617  0.00  0.00    +0.000 A 
ENDROOT
BRANCH   1   7
ATOM      7  C   UNL     1      47.035   7.907  12.008  0.00  0.00    +0.000 C 
BRANCH   7  10
ATOM      8  O   UNL     1      44.338   7.487  11.444  0.00  0.00    +0.000 OA
ATOM      9  C   UNL     1      45.094   6.507  11.523  0.00  0.00    +0.000 C 
ATOM     10  N   UNL     1      46.425   6.623  11.806  0.00  0.00    +0.000 N 
ATOM     11  H   UNL     1      47.027   5.851  11.570  0.00  0.00    +0.000 HD
BRANCH   9  12
ATOM     12  C   UNL     1      44.612   5.149  11.344  0.00  0.00    +0.000 A 
ATOM     13  C   UNL     1      43.866   4.485  12.306  0.00  0.00    +0.000 A 
ATOM     14  S   UNL     1      43.408   2.908  11.823  0.00  0.00    +0.000 S 
ATOM     15  C   UNL     1      44.186   3.080  10.319  0.00  0.00    +0.000 A 
ATOM     16  N   UNL     1      44.178   2.085   9.396  0.00  0.00    +0.000 NA
ATOM     17  C   UNL     1      44.798   2.368   8.298  0.00  0.00    +0.000 A 
ATOM     18  N   UNL     1      45.429   3.558   8.040  0.00  0.00    +0.000 N 
ATOM     19  C   UNL     1      45.517   4.561   8.961  0.00  0.00    +0.000 A 
ATOM     20  O   UNL     1      46.227   5.551   8.740  0.00  0.00    +0.000 OA
ATOM     21  C   UNL     1      44.805   4.308  10.192  0.00  0.00    +0.000 A 
ATOM     22  H   UNL     1      45.932   3.702   7.178  0.00  0.00    +0.000 HD
ENDBRANCH   9  12
ENDBRANCH   7  10
ENDBRANCH   1   7
BRANCH   4  23
ATOM     23  C   UNL     1      50.812   7.893  16.406  0.00  0.00    +0.000 C 
BRANCH  23  24
ATOM     24  O   UNL     1      50.584   8.984  17.317  0.00  0.00    +0.000 OA
ATOM     25  H   UNL     1      50.192   8.599  18.122  0.00  0.00    +0.000 HD
ENDBRANCH  23  24
BRANCH  23  26
ATOM     26  C   UNL     1      50.713   6.603  17.227  0.00  0.00    +0.000 C 
BRANCH  26  27
ATOM     27  C   UNL     1      49.429   6.454  18.034  0.00  0.00    +0.000 C 
BRANCH  27  28
ATOM     28  C   UNL     1      48.723   5.198  17.653  0.00  0.00    +0.000 A 
ATOM     29  C   UNL     1      49.170   3.914  17.415  0.00  0.00    +0.000 A 
ATOM     30  N   UNL     1      48.128   3.083  17.097  0.00  0.00    +0.000 NA
ATOM     31  C   UNL     1      47.059   3.839  17.139  0.00  0.00    +0.000 A 
ATOM     32  N   UNL     1      47.363   5.126  17.480  0.00  0.00    +0.000 N 
ATOM     33  H   UNL     1      46.705   5.886  17.575  0.00  0.00    +0.000 HD
ENDBRANCH  27  28
ENDBRANCH  26  27
ENDBRANCH  23  26
ENDBRANCH   4  23
TORSDOF 8
ENDMDL
