MODEL 1
REMARK VINA RESULT:    -6.365      0.000      0.000
REMARK INTER + INTRA:          -9.609
REMARK INTER:                  -8.598
REMARK INTRA:                  -1.011
REMARK UNBOUND:                -1.011
REMARK  Name = 
REMARK  10 active torsions:
REMARK  status: ('A' for Active; 'I' for Inactive)
REMARK    1  A    between atoms: C_1  and  C_2
REMARK    2  A    between atoms: C_2  and  C_3
REMARK    3  A    between atoms: C_2  and  N_4
REMARK    4  A    between atoms: C_5  and  C_7
REMARK    5  A    between atoms: C_10  and  O_11
REMARK    6  A    between atoms: O_11  and  C_12
REMARK    7  A    between atoms: C_12  and  C_13
REMARK    8  A    between atoms: C_13  and  C_14
REMARK    9  A    between atoms: C_13  and  C_15
REMARK   10  A    between atoms: C_13  and  C_16
REMARK                            x       y       z     vdW  Elec       q    Type
REMARK                         _______ _______ _______ _____ _____    ______ ____
ROOT
ATOM      1  C   UNL     1      48.522   7.815  12.557  0.00  0.00    +0.000 A 
ATOM      2  C   UNL     1      47.327   8.392  12.110  0.00  0.00    +0.000 A 
ATOM      3  C   UNL     1      46.120   7.691  12.206  0.00  0.00    +0.000 A 
ATOM      4  C   UNL     1      46.097   6.403  12.741  0.00  0.00    +0.000 A 
ATOM      5  C   UNL     1      47.294   5.819  13.166  0.00  0.00    +0.000 A 
ATOM      6  C   UNL     1      48.504   6.516  13.075  0.00  0.00    +0.000 A 
ENDROOT
BRANCH   1   8
ATOM      7  N   UNL     1      50.931   7.890  12.201  0.00  0.00    +0.000 N 
ATOM      8  C   UNL     1      49.777   8.607  12.437  0.00  0.00    +0.000 C 
ATOM      9  O   UNL     1      49.750   9.823  12.580  0.00  0.00    +0.000 OA
ATOM     10  H   UNL     1      50.892   6.883  12.129  0.00  0.00    +0.000 HD
BRANCH   7  12
ATOM     11  C   UNL     1      53.038   8.450  13.305  0.00  0.00    +0.000 C 
ATOM     12  C   UNL     1      52.222   8.541  12.020  0.00  0.00    +0.000 C 
ATOM     13  C   UNL     1      52.981   7.910  10.855  0.00  0.00    +0.000 C 
ENDBRANCH   7  12
ENDBRANCH   1   8
BRANCH   4  14
ATOM     14  O   UNL     1      44.990   5.614  12.889  0.00  0.00    +0.000 OA
BRANCH  14  15
ATOM     15  C   UNL     1      45.108   4.245  12.485  0.00  0.00    +0.000 C 
BRANCH  15  16
ATOM     16  C   UNL     1      44.085   3.915  11.357  0.00  0.00    +0.000 C 
ATOM     17  C   UNL     1      43.316   2.633  11.760  0.00  0.00    +0.000 C 
ATOM     18  C   UNL     1      43.039   5.048  11.246  0.00  0.00    +0.000 C 
BRANCH  16  19
ATOM     19  C   UNL     1      44.837   3.772  10.024  0.00  0.00    +0.000 A 
ATOM     20  C   UNL     1      45.036   2.544   9.377  0.00  0.00    +0.000 A 
ATOM     21  C   UNL     1      45.740   2.480   8.176  0.00  0.00    +0.000 A 
ATOM     22  C   UNL     1      46.237   3.653   7.640  0.00  0.00    +0.000 A 
ATOM     23  N   UNL     1      46.074   4.859   8.218  0.00  0.00    +0.000 NA
ATOM     24  C   UNL     1      45.381   4.889   9.380  0.00  0.00    +0.000 A 
ENDBRANCH  16  19
ENDBRANCH  15  16
ENDBRANCH  14  15
ENDBRANCH   4  14
TORSDOF 6
ENDMDL
MODEL 2
REMARK VINA RESULT:    -6.218      3.358      4.204
REMARK INTER + INTRA:          -9.411
REMARK INTER:                  -8.676
REMARK INTRA:                  -0.735
REMARK UNBOUND:                -1.011
REMARK  Name = 
REMARK  10 active torsions:
REMARK  status: ('A' for Active; 'I' for Inactive)
REMARK    1  A    between atoms: C_1  and  C_2
REMARK    2  A    between atoms: C_2  and  C_3
REMARK    3  A    between atoms: C_2  and  N_4
REMARK    4  A    between atoms: C_5  and  C_7
REMARK    5  A    between atoms: C_10  and  O_11
REMARK    6  A    between atoms: O_11  and  C_12
REMARK    7  A    between atoms: C_12  and  C_13
REMARK    8  A    between atoms: C_13  and  C_14
REMARK    9  A    between atoms: C_13  and  C_15
REMARK   10  A    between atoms: C_13  and  C_16
REMARK                            x       y       z     vdW  Elec       q    Type
REMARK                         _______ _______ _______ _____ _____    ______ ____
ROOT
ATOM      1  C   UNL     1      48.210   5.763  15.651  0.00  0.00    +0.000 A 
ATOM      2  C   UNL     1      48.315   6.671  14.591  0.00  0.00    +0.000 A 
ATOM      3  C   UNL     1      47.589   6.473  13.411  0.00  0.00    +0.000 A 
ATOM      4  C   UNL     1      46.759   5.359  13.277  0.00  0.00    +0.000 A 
ATOM      5  C   UNL     1      46.673   4.441  14.328  0.00  0.00    +0.000 A 
ATOM      6  C   UNL     1      47.394   4.636  15.511  0.00  0.00    +0.000 A 
ENDROOT
BRANCH   1   8
ATOM      7  N   UNL     1      48.350   5.807  18.084  0.00  0.00    +0.000 N 
ATOM      8  C   UNL     1      49.000   6.025  16.886  0.00  0.00    +0.000 C 
ATOM      9  O   UNL     1      50.148   6.444  16.802  0.00  0.00    +0.000 OA
ATOM     10  H   UNL     1      47.390   5.496  18.085  0.00  0.00    +0.000 HD
BRANCH   7  12
ATOM     11  C   UNL     1      48.379   7.137  20.133  0.00  0.00    +0.000 C 
ATOM     12  C   UNL     1      49.017   5.983  19.367  0.00  0.00    +0.000 C 
ATOM     13  C   UNL     1      48.954   4.695  20.184  0.00  0.00    +0.000 C 
ENDBRANCH   7  12
ENDBRANCH   1   8
BRANCH   4  14
ATOM     14  O   UNL     1      46.001   5.050  12.181  0.00  0.00    +0.000 OA
BRANCH  14  15
ATOM     15  C   UNL     1      45.325   3.787  12.193  0.00  0.00    +0.000 C 
BRANCH  15  16
ATOM     16  C   UNL     1      44.261   3.723  11.056  0.00  0.00    +0.000 C 
ATOM     17  C   UNL     1      43.230   2.627  11.419  0.00  0.00    +0.000 C 
ATOM     18  C   UNL     1      43.487   5.059  10.984  0.00  0.00    +0.000 C 
BRANCH  16  19
ATOM     19  C   UNL     1      44.971   3.463   9.717  0.00  0.00    +0.000 A 
ATOM     20  C   UNL     1      45.284   2.181   9.246  0.00  0.00    +0.000 A 
ATOM     21  C   UNL     1      45.942   2.014   8.028  0.00  0.00    +0.000 A 
ATOM     22  C   UNL     1      46.280   3.139   7.301  0.00  0.00    +0.000 A 
ATOM     23  N   UNL     1      46.001   4.393   7.706  0.00  0.00    +0.000 NA
ATOM     24  C   UNL     1      45.357   4.523   8.889  0.00  0.00    +0.000 A 
ENDBRANCH  16  19
ENDBRANCH  15  16
ENDBRANCH  14  15
ENDBRANCH   4  14
TORSDOF 6
ENDMDL
MODEL 3
REMARK VINA RESULT:    -5.943      4.395      8.177
REMARK INTER + INTRA:          -9.039
REMARK INTER:                  -8.333
REMARK INTRA:                  -0.705
REMARK UNBOUND:                -1.011
REMARK  Name = 
REMARK  10 active torsions:
REMARK  status: ('A' for Active; 'I' for Inactive)
REMARK    1  A    between atoms: C_1  and  C_2
REMARK    2  A    between atoms: C_2  and  C_3
REMARK    3  A    between atoms: C_2  and  N_4
REMARK    4  A    between atoms: C_5  and  C_7
REMARK    5  A    between atoms: C_10  and  O_11
REMARK    6  A    between atoms: O_11  and  C_12
REMARK    7  A    between atoms: C_12  and  C_13
REMARK    8  A    between atoms: C_13  and  C_14
REMARK    9  A    between atoms: C_13  and  C_15
REMARK   10  A    between atoms: C_13  and  C_16
REMARK                            x       y       z     vdW  Elec       q    Type
REMARK                         _______ _______ _______ _____ _____    ______ ____
ROOT
ATOM      1  C   UNL     1      45.967   5.097  12.375  0.00  0.00    +0.000 A 
ATOM      2  C   UNL     1      46.029   4.111  13.367  0.00  0.00    +0.000 A 
ATOM      3  C   UNL     1      46.835   4.290  14.497  0.00  0.00    +0.000 A 
ATOM      4  C   UNL     1      47.594   5.452  14.640  0.00  0.00    +0.000 A 
ATOM      5  C   UNL     1      47.548   6.425  13.638  0.00  0.00    +0.000 A 
ATOM      6  C   UNL     1      46.742   6.253  12.507  0.00  0.00    +0.000 A 
ENDROOT
BRANCH   1   8
ATOM      7  N   UNL     1      45.335   3.709  10.474  0.00  0.00    +0.000 N 
ATOM      8  C   UNL     1      45.088   4.858  11.197  0.00  0.00    +0.000 C 
ATOM      9  O   UNL     1      44.227   5.677  10.899  0.00  0.00    +0.000 OA
ATOM     10  H   UNL     1      46.085   3.093  10.750  0.00  0.00    +0.000 HD
BRANCH   7  12
ATOM     11  C   UNL     1      45.062   4.000   8.063  0.00  0.00    +0.000 C 
ATOM     12  C   UNL     1      44.524   3.332   9.324  0.00  0.00    +0.000 C 
ATOM     13  C   UNL     1      44.503   1.814   9.161  0.00  0.00    +0.000 C 
ENDBRANCH   7  12
ENDBRANCH   1   8
BRANCH   4  14
ATOM     14  O   UNL     1      48.419   5.747  15.690  0.00  0.00    +0.000 OA
BRANCH  14  15
ATOM     15  C   UNL     1      48.608   4.725  16.676  0.00  0.00    +0.000 C 
BRANCH  15  16
ATOM     16  C   UNL     1      49.933   4.959  17.462  0.00  0.00    +0.000 C 
ATOM     17  C   UNL     1      50.719   6.094  16.761  0.00  0.00    +0.000 C 
ATOM     18  C   UNL     1      49.617   5.453  18.893  0.00  0.00    +0.000 C 
BRANCH  16  19
ATOM     19  C   UNL     1      50.716   3.638  17.532  0.00  0.00    +0.000 A 
ATOM     20  C   UNL     1      52.048   3.552  17.961  0.00  0.00    +0.000 A 
ATOM     21  C   UNL     1      52.707   2.323  17.988  0.00  0.00    +0.000 A 
ATOM     22  C   UNL     1      52.018   1.197  17.580  0.00  0.00    +0.000 A 
ATOM     23  N   UNL     1      50.738   1.223  17.161  0.00  0.00    +0.000 NA
ATOM     24  C   UNL     1      50.124   2.429  17.152  0.00  0.00    +0.000 A 
ENDBRANCH  16  19
ENDBRANCH  15  16
ENDBRANCH  14  15
ENDBRANCH   4  14
TORSDOF 6
ENDMDL
MODEL 4
REMARK VINA RESULT:    -5.702      3.581      4.411
REMARK INTER + INTRA:          -8.713
REMARK INTER:                  -7.931
REMARK INTRA:                  -0.782
REMARK UNBOUND:                -1.011
REMARK  Name = 
REMARK  10 active torsions:
REMARK  status: ('A' for Active; 'I' for Inactive)
REMARK    1  A    between atoms: C_1  and  C_2
REMARK    2  A    between atoms: C_2  and  C_3
REMARK    3  A    between atoms: C_2  and  N_4
REMARK    4  A    between atoms: C_5  and  C_7
REMARK    5  A    between atoms: C_10  and  O_11
REMARK    6  A    between atoms: O_11  and  C_12
REMARK    7  A    between atoms: C_12  and  C_13
REMARK    8  A    between atoms: C_13  and  C_14
REMARK    9  A    between atoms: C_13  and  C_15
REMARK   10  A    between atoms: C_13  and  C_16
REMARK                            x       y       z     vdW  Elec       q    Type
REMARK                         _______ _______ _______ _____ _____    ______ ____
ROOT
ATOM      1  C   UNL     1      48.443   5.345  16.511  0.00  0.00    +0.000 A 
ATOM      2  C   UNL     1      47.655   4.216  16.259  0.00  0.00    +0.000 A 
ATOM      3  C   UNL     1      46.990   4.071  15.036  0.00  0.00    +0.000 A 
ATOM      4  C   UNL     1      47.099   5.060  14.058  0.00  0.00    +0.000 A 
ATOM      5  C   UNL     1      47.868   6.198  14.320  0.00  0.00    +0.000 A 
ATOM      6  C   UNL     1      48.538   6.346  15.539  0.00  0.00    +0.000 A 
ENDROOT
BRANCH   1   8
ATOM      7  N   UNL     1      49.894   6.577  18.033  0.00  0.00    +0.000 N 
ATOM      8  C   UNL     1      49.134   5.444  17.826  0.00  0.00    +0.000 C 
ATOM      9  O   UNL     1      49.036   4.534  18.640  0.00  0.00    +0.000 OA
ATOM     10  H   UNL     1      49.964   7.275  17.306  0.00  0.00    +0.000 HD
BRANCH   7  12
ATOM     11  C   UNL     1      51.944   7.468  19.020  0.00  0.00    +0.000 C 
ATOM     12  C   UNL     1      50.588   6.823  19.289  0.00  0.00    +0.000 C 
ATOM     13  C   UNL     1      49.744   7.707  20.203  0.00  0.00    +0.000 C 
ENDBRANCH   7  12
ENDBRANCH   1   8
BRANCH   4  14
ATOM     14  O   UNL     1      46.502   5.042  12.828  0.00  0.00    +0.000 OA
BRANCH  14  15
ATOM     15  C   UNL     1      45.111   4.698  12.784  0.00  0.00    +0.000 C 
BRANCH  15  16
ATOM     16  C   UNL     1      44.422   5.352  11.549  0.00  0.00    +0.000 C 
ATOM     17  C   UNL     1      42.898   5.397  11.813  0.00  0.00    +0.000 C 
ATOM     18  C   UNL     1      44.893   6.816  11.397  0.00  0.00    +0.000 C 
BRANCH  16  19
ATOM     19  C   UNL     1      44.792   4.555  10.287  0.00  0.00    +0.000 A 
ATOM     20  C   UNL     1      44.414   3.222  10.077  0.00  0.00    +0.000 A 
ATOM     21  C   UNL     1      44.794   2.551   8.916  0.00  0.00    +0.000 A 
ATOM     22  C   UNL     1      45.553   3.229   7.981  0.00  0.00    +0.000 A 
ATOM     23  N   UNL     1      45.942   4.510   8.132  0.00  0.00    +0.000 NA
ATOM     24  C   UNL     1      45.553   5.136   9.266  0.00  0.00    +0.000 A 
ENDBRANCH  16  19
ENDBRANCH  15  16
ENDBRANCH  14  15
ENDBRANCH   4  14
TORSDOF 6
ENDMDL
MODEL 5
REMARK VINA RESULT:    -5.642      4.982      8.578
REMARK INTER + INTRA:          -8.632
REMARK INTER:                  -7.768
REMARK INTRA:                  -0.864
REMARK UNBOUND:                -1.011
REMARK  Name = 
REMARK  10 active torsions:
REMARK  status: ('A' for Active; 'I' for Inactive)
REMARK    1  A    between atoms: C_1  and  C_2
REMARK    2  A    between atoms: C_2  and  C_3
REMARK    3  A    between atoms: C_2  and  N_4
REMARK    4  A    between atoms: C_5  and  C_7
REMARK    5  A    between atoms: C_10  and  O_11
REMARK    6  A    between atoms: O_11  and  C_12
REMARK    7  A    between atoms: C_12  and  C_13
REMARK    8  A    between atoms: C_13  and  C_14
REMARK    9  A    between atoms: C_13  and  C_15
REMARK   10  A    between atoms: C_13  and  C_16
REMARK                            x       y       z     vdW  Elec       q    Type
REMARK                         _______ _______ _______ _____ _____    ______ ____
ROOT
ATOM      1  C   UNL     1      46.822   4.731  14.187  0.00  0.00    +0.000 A 
ATOM      2  C   UNL     1      47.496   5.926  13.907  0.00  0.00    +0.000 A 
ATOM      3  C   UNL     1      48.381   6.479  14.840  0.00  0.00    +0.000 A 
ATOM      4  C   UNL     1      48.591   5.847  16.065  0.00  0.00    +0.000 A 
ATOM      5  C   UNL     1      47.901   4.666  16.353  0.00  0.00    +0.000 A 
ATOM      6  C   UNL     1      47.018   4.107  15.423  0.00  0.00    +0.000 A 
ENDROOT
BRANCH   1   8
ATOM      7  N   UNL     1      45.098   5.101  12.504  0.00  0.00    +0.000 N 
ATOM      8  C   UNL     1      45.897   4.184  13.156  0.00  0.00    +0.000 C 
ATOM      9  O   UNL     1      45.853   2.977  12.951  0.00  0.00    +0.000 OA
ATOM     10  H   UNL     1      45.156   6.080  12.746  0.00  0.00    +0.000 HD
BRANCH   7  12
ATOM     11  C   UNL     1      42.946   5.605  11.463  0.00  0.00    +0.000 C 
ATOM     12  C   UNL     1      44.179   4.708  11.445  0.00  0.00    +0.000 C 
ATOM     13  C   UNL     1      44.871   4.774  10.085  0.00  0.00    +0.000 C 
ENDBRANCH   7  12
ENDBRANCH   1   8
BRANCH   4  14
ATOM     14  O   UNL     1      49.424   6.282  17.059  0.00  0.00    +0.000 OA
BRANCH  14  15
ATOM     15  C   UNL     1      50.772   5.795  17.038  0.00  0.00    +0.000 C 
BRANCH  15  16
ATOM     16  C   UNL     1      51.117   5.076  18.377  0.00  0.00    +0.000 C 
ATOM     17  C   UNL     1      52.224   5.888  19.092  0.00  0.00    +0.000 C 
ATOM     18  C   UNL     1      49.885   5.082  19.311  0.00  0.00    +0.000 C 
BRANCH  16  19
ATOM     19  C   UNL     1      51.532   3.627  18.076  0.00  0.00    +0.000 A 
ATOM     20  C   UNL     1      52.797   3.107  18.382  0.00  0.00    +0.000 A 
ATOM     21  C   UNL     1      53.116   1.786  18.070  0.00  0.00    +0.000 A 
ATOM     22  C   UNL     1      52.158   1.005  17.452  0.00  0.00    +0.000 A 
ATOM     23  N   UNL     1      50.927   1.453  17.138  0.00  0.00    +0.000 NA
ATOM     24  C   UNL     1      50.646   2.737  17.459  0.00  0.00    +0.000 A 
ENDBRANCH  16  19
ENDBRANCH  15  16
ENDBRANCH  14  15
ENDBRANCH   4  14
TORSDOF 6
ENDMDL
MODEL 6
REMARK VINA RESULT:    -5.533      1.679      1.965
REMARK INTER + INTRA:          -8.485
REMARK INTER:                  -7.930
REMARK INTRA:                  -0.556
REMARK UNBOUND:                -1.011
REMARK  Name = 
REMARK  10 active torsions:
REMARK  status: ('A' for Active; 'I' for Inactive)
REMARK    1  A    between atoms: C_1  and  C_2
REMARK    2  A    between atoms: C_2  and  C_3
REMARK    3  A    between atoms: C_2  and  N_4
REMARK    4  A    between atoms: C_5  and  C_7
REMARK    5  A    between atoms: C_10  and  O_11
REMARK    6  A    between atoms: O_11  and  C_12
REMARK    7  A    between atoms: C_12  and  C_13
REMARK    8  A    between atoms: C_13  and  C_14
REMARK    9  A    between atoms: C_13  and  C_15
REMARK   10  A    between atoms: C_13  and  C_16
REMARK                            x       y       z     vdW  Elec       q    Type
REMARK                         _______ _______ _______ _____ _____    ______ ____
ROOT
ATOM      1  C   UNL     1      49.341   7.386  14.094  0.00  0.00    +0.000 A 
ATOM      2  C   UNL     1      49.286   7.803  12.759  0.00  0.00    +0.000 A 
ATOM      3  C   UNL     1      48.264   7.353  11.916  0.00  0.00    +0.000 A 
ATOM      4  C   UNL     1      47.294   6.474  12.397  0.00  0.00    +0.000 A 
ATOM      5  C   UNL     1      47.362   6.041  13.724  0.00  0.00    +0.000 A 
ATOM      6  C   UNL     1      48.380   6.490  14.573  0.00  0.00    +0.000 A 
ENDROOT
BRANCH   1   8
ATOM      7  N   UNL     1      51.695   7.361  14.722  0.00  0.00    +0.000 N 
ATOM      8  C   UNL     1      50.446   7.900  14.950  0.00  0.00    +0.000 C 
ATOM      9  O   UNL     1      50.212   8.731  15.819  0.00  0.00    +0.000 OA
ATOM     10  H   UNL     1      51.816   6.651  14.015  0.00  0.00    +0.000 HD
BRANCH   7  12
ATOM     11  C   UNL     1      53.845   6.642  15.636  0.00  0.00    +0.000 C 
ATOM     12  C   UNL     1      52.873   7.803  15.458  0.00  0.00    +0.000 C 
ATOM     13  C   UNL     1      53.550   8.965  14.734  0.00  0.00    +0.000 C 
ENDBRANCH   7  12
ENDBRANCH   1   8
BRANCH   4  14
ATOM     14  O   UNL     1      46.248   5.961  11.679  0.00  0.00    +0.000 OA
BRANCH  14  15
ATOM     15  C   UNL     1      45.575   4.823  12.232  0.00  0.00    +0.000 C 
BRANCH  15  16
ATOM     16  C   UNL     1      44.377   4.402  11.330  0.00  0.00    +0.000 C 
ATOM     17  C   UNL     1      43.529   3.364  12.104  0.00  0.00    +0.000 C 
ATOM     18  C   UNL     1      43.462   5.620  11.066  0.00  0.00    +0.000 C 
BRANCH  16  19
ATOM     19  C   UNL     1      44.918   3.862   9.996  0.00  0.00    +0.000 A 
ATOM     20  C   UNL     1      45.068   2.496   9.720  0.00  0.00    +0.000 A 
ATOM     21  C   UNL     1      45.578   2.072   8.494  0.00  0.00    +0.000 A 
ATOM     22  C   UNL     1      45.934   3.028   7.561  0.00  0.00    +0.000 A 
ATOM     23  N   UNL     1      45.810   4.352   7.774  0.00  0.00    +0.000 NA
ATOM     24  C   UNL     1      45.306   4.732   8.971  0.00  0.00    +0.000 A 
ENDBRANCH  16  19
ENDBRANCH  15  16
ENDBRANCH  14  15
ENDBRANCH   4  14
TORSDOF 6
ENDMDL
MODEL 7
REMARK VINA RESULT:    -5.511      3.208      7.719
REMARK INTER + INTRA:          -8.455
REMARK INTER:                  -7.548
REMARK INTRA:                  -0.907
REMARK UNBOUND:                -1.011
REMARK  Name = 
REMARK  10 active torsions:
REMARK  status: ('A' for Active; 'I' for Inactive)
REMARK    1  A    between atoms: C_1  and  C_2
REMARK    2  A    between atoms: C_2  and  C_3
REMARK    3  A    between atoms: C_2  and  N_4
REMARK    4  A    between atoms: C_5  and  C_7
REMARK    5  A    between atoms: C_10  and  O_11
REMARK    6  A    between atoms: O_11  and  C_12
REMARK    7  A    between atoms: C_12  and  C_13
REMARK    8  A    between atoms: C_13  and  C_14
REMARK    9  A    between atoms: C_13  and  C_15
REMARK   10  A    between atoms: C_13  and  C_16
REMARK                            x       y       z     vdW  Elec       q    Type
REMARK                         _______ _______ _______ _____ _____    ______ ____
ROOT
ATOM      1  C   UNL     1      45.630   5.526  11.503  0.00  0.00    +0.000 A 
ATOM      2  C   UNL     1      45.993   4.831  12.662  0.00  0.00    +0.000 A 
ATOM      3  C   UNL     1      46.752   5.456  13.658  0.00  0.00    +0.000 A 
ATOM      4  C   UNL     1      47.165   6.779  13.498  0.00  0.00    +0.000 A 
ATOM      5  C   UNL     1      46.821   7.465  12.329  0.00  0.00    +0.000 A 
ATOM      6  C   UNL     1      46.060   6.846  11.332  0.00  0.00    +0.000 A 
ENDROOT
BRANCH   1   8
ATOM      7  N   UNL     1      45.518   4.131   9.508  0.00  0.00    +0.000 N 
ATOM      8  C   UNL     1      44.816   4.815  10.479  0.00  0.00    +0.000 C 
ATOM      9  O   UNL     1      43.593   4.886  10.511  0.00  0.00    +0.000 OA
ATOM     10  H   UNL     1      46.527   4.142   9.516  0.00  0.00    +0.000 HD
BRANCH   7  12
ATOM     11  C   UNL     1      45.690   3.345   7.201  0.00  0.00    +0.000 C 
ATOM     12  C   UNL     1      44.847   3.358   8.471  0.00  0.00    +0.000 C 
ATOM     13  C   UNL     1      44.581   1.934   8.954  0.00  0.00    +0.000 C 
ENDBRANCH   7  12
ENDBRANCH   1   8
BRANCH   4  14
ATOM     14  O   UNL     1      47.909   7.502  14.390  0.00  0.00    +0.000 OA
BRANCH  14  15
ATOM     15  C   UNL     1      49.257   7.070  14.613  0.00  0.00    +0.000 C 
BRANCH  15  16
ATOM     16  C   UNL     1      49.609   7.133  16.130  0.00  0.00    +0.000 C 
ATOM     17  C   UNL     1      51.041   7.703  16.272  0.00  0.00    +0.000 C 
ATOM     18  C   UNL     1      48.662   8.120  16.850  0.00  0.00    +0.000 C 
BRANCH  16  19
ATOM     19  C   UNL     1      49.455   5.730  16.740  0.00  0.00    +0.000 A 
ATOM     20  C   UNL     1      48.220   5.086  16.892  0.00  0.00    +0.000 A 
ATOM     21  C   UNL     1      48.147   3.818  17.467  0.00  0.00    +0.000 A 
ATOM     22  C   UNL     1      49.318   3.215  17.884  0.00  0.00    +0.000 A 
ATOM     23  N   UNL     1      50.531   3.788  17.760  0.00  0.00    +0.000 NA
ATOM     24  C   UNL     1      50.570   5.016  17.193  0.00  0.00    +0.000 A 
ENDBRANCH  16  19
ENDBRANCH  15  16
ENDBRANCH  14  15
ENDBRANCH   4  14
TORSDOF 6
ENDMDL
MODEL 8
REMARK VINA RESULT:    -5.476      1.849      6.990
REMARK INTER + INTRA:          -8.408
REMARK INTER:                  -7.523
REMARK INTRA:                  -0.885
REMARK UNBOUND:                -1.011
REMARK  Name = 
REMARK  10 active torsions:
REMARK  status: ('A' for Active; 'I' for Inactive)
REMARK    1  A    between atoms: C_1  and  C_2
REMARK    2  A    between atoms: C_2  and  C_3
REMARK    3  A    between atoms: C_2  and  N_4
REMARK    4  A    between atoms: C_5  and  C_7
REMARK    5  A    between atoms: C_10  and  O_11
REMARK    6  A    between atoms: O_11  and  C_12
REMARK    7  A    between atoms: C_12  and  C_13
REMARK    8  A    between atoms: C_13  and  C_14
REMARK    9  A    between atoms: C_13  and  C_15
REMARK   10  A    between atoms: C_13  and  C_16
REMARK                            x       y       z     vdW  Elec       q    Type
REMARK                         _______ _______ _______ _____ _____    ______ ____
ROOT
ATOM      1  C   UNL     1      45.372   4.070  10.176  0.00  0.00    +0.000 A 
ATOM      2  C   UNL     1      45.691   5.398   9.865  0.00  0.00    +0.000 A 
ATOM      3  C   UNL     1      45.843   6.349  10.880  0.00  0.00    +0.000 A 
ATOM      4  C   UNL     1      45.666   5.984  12.215  0.00  0.00    +0.000 A 
ATOM      5  C   UNL     1      45.326   4.663  12.523  0.00  0.00    +0.000 A 
ATOM      6  C   UNL     1      45.176   3.707  11.512  0.00  0.00    +0.000 A 
ENDROOT
BRANCH   1   8
ATOM      7  N   UNL     1      46.263   3.062   8.144  0.00  0.00    +0.000 N 
ATOM      8  C   UNL     1      45.229   3.098   9.057  0.00  0.00    +0.000 C 
ATOM      9  O   UNL     1      44.219   2.410   8.968  0.00  0.00    +0.000 OA
ATOM     10  H   UNL     1      47.052   3.682   8.253  0.00  0.00    +0.000 HD
BRANCH   7  12
ATOM     11  C   UNL     1      46.974   2.758   5.826  0.00  0.00    +0.000 C 
ATOM     12  C   UNL     1      46.272   2.130   7.025  0.00  0.00    +0.000 C 
ATOM     13  C   UNL     1      46.955   0.823   7.423  0.00  0.00    +0.000 C 
ENDBRANCH   7  12
ENDBRANCH   1   8
BRANCH   4  14
ATOM     14  O   UNL     1      45.784   6.813  13.296  0.00  0.00    +0.000 OA
BRANCH  14  15
ATOM     15  C   UNL     1      46.534   8.019  13.112  0.00  0.00    +0.000 C 
BRANCH  15  16
ATOM     16  C   UNL     1      47.898   7.938  13.862  0.00  0.00    +0.000 C 
ATOM     17  C   UNL     1      47.840   8.894  15.078  0.00  0.00    +0.000 C 
ATOM     18  C   UNL     1      48.106   6.513  14.424  0.00  0.00    +0.000 C 
BRANCH  16  19
ATOM     19  C   UNL     1      49.032   8.278  12.881  0.00  0.00    +0.000 A 
ATOM     20  C   UNL     1      49.574   7.354  11.977  0.00  0.00    +0.000 A 
ATOM     21  C   UNL     1      50.612   7.722  11.123  0.00  0.00    +0.000 A 
ATOM     22  C   UNL     1      51.094   9.016  11.190  0.00  0.00    +0.000 A 
ATOM     23  N   UNL     1      50.609   9.944  12.038  0.00  0.00    +0.000 NA
ATOM     24  C   UNL     1      49.598   9.558  12.850  0.00  0.00    +0.000 A 
ENDBRANCH  16  19
ENDBRANCH  15  16
ENDBRANCH  14  15
ENDBRANCH   4  14
TORSDOF 6
ENDMDL
MODEL 9
REMARK VINA RESULT:    -5.056      4.489      8.664
REMARK INTER + INTRA:          -7.840
REMARK INTER:                  -7.130
REMARK INTRA:                  -0.710
REMARK UNBOUND:                -1.011
REMARK  Name = 
REMARK  10 active torsions:
REMARK  status: ('A' for Active; 'I' for Inactive)
REMARK    1  A    between atoms: C_1  and  C_2
REMARK    2  A    between atoms: C_2  and  C_3
REMARK    3  A    between atoms: C_2  and  N_4
REMARK    4  A    between atoms: C_5  and  C_7
REMARK    5  A    between atoms: C_10  and  O_11
REMARK    6  A    between atoms: O_11  and  C_12
REMARK    7  A    between atoms: C_12  and  C_13
REMARK    8  A    between atoms: C_13  and  C_14
REMARK    9  A    between atoms: C_13  and  C_15
REMARK   10  A    between atoms: C_13  and  C_16
REMARK                            x       y       z     vdW  Elec       q    Type
REMARK                         _______ _______ _______ _____ _____    ______ ____
ROOT
ATOM      1  C   UNL     1      45.977   5.102  12.317  0.00  0.00    +0.000 A 
ATOM      2  C   UNL     1      46.059   4.147  13.337  0.00  0.00    +0.000 A 
ATOM      3  C   UNL     1      46.899   4.353  14.437  0.00  0.00    +0.000 A 
ATOM      4  C   UNL     1      47.672   5.511  14.522  0.00  0.00    +0.000 A 
ATOM      5  C   UNL     1      47.605   6.454  13.492  0.00  0.00    +0.000 A 
ATOM      6  C   UNL     1      46.765   6.255  12.391  0.00  0.00    +0.000 A 
ENDROOT
BRANCH   1   8
ATOM      7  N   UNL     1      45.351   3.725  10.406  0.00  0.00    +0.000 N 
ATOM      8  C   UNL     1      45.062   4.836  11.173  0.00  0.00    +0.000 C 
ATOM      9  O   UNL     1      44.136   5.602  10.937  0.00  0.00    +0.000 OA
ATOM     10  H   UNL     1      46.152   3.153  10.631  0.00  0.00    +0.000 HD
BRANCH   7  12
ATOM     11  C   UNL     1      45.013   3.979   8.000  0.00  0.00    +0.000 C 
ATOM     12  C   UNL     1      44.514   3.324   9.283  0.00  0.00    +0.000 C 
ATOM     13  C   UNL     1      44.503   1.803   9.142  0.00  0.00    +0.000 C 
ENDBRANCH   7  12
ENDBRANCH   1   8
BRANCH   4  14
ATOM     14  O   UNL     1      48.530   5.831  15.538  0.00  0.00    +0.000 OA
BRANCH  14  15
ATOM     15  C   UNL     1      48.638   4.895  16.617  0.00  0.00    +0.000 C 
BRANCH  15  16
ATOM     16  C   UNL     1      49.830   5.267  17.550  0.00  0.00    +0.000 C 
ATOM     17  C   UNL     1      50.672   3.991  17.793  0.00  0.00    +0.000 C 
ATOM     18  C   UNL     1      50.755   6.285  16.843  0.00  0.00    +0.000 C 
BRANCH  16  19
ATOM     19  C   UNL     1      49.280   5.883  18.847  0.00  0.00    +0.000 A 
ATOM     20  C   UNL     1      50.091   6.260  19.926  0.00  0.00    +0.000 A 
ATOM     21  C   UNL     1      49.528   6.799  21.082  0.00  0.00    +0.000 A 
ATOM     22  C   UNL     1      48.155   6.951  21.138  0.00  0.00    +0.000 A 
ATOM     23  N   UNL     1      47.330   6.607  20.130  0.00  0.00    +0.000 NA
ATOM     24  C   UNL     1      47.908   6.092  19.020  0.00  0.00    +0.000 A 
ENDBRANCH  16  19
ENDBRANCH  15  16
ENDBRANCH  14  15
ENDBRANCH   4  14
TORSDOF 6
ENDMDL
