MODEL 1
REMARK VINA RESULT:    -9.302      0.000      0.000
REMARK INTER + INTRA:         -13.438
REMARK INTER:                 -12.565
REMARK INTRA:                  -0.873
REMARK UNBOUND:                -0.873
REMARK  Name = 
REMARK  6 active torsions:
REMARK  status: ('A' for Active; 'I' for Inactive)
REMARK    1  A    between atoms: C_2  and  C_4
REMARK    2  A    between atoms: C_7  and  N_8
REMARK    3  A    between atoms: N_8  and  C_9
REMARK    4  A    between atoms: C_9  and  C_10
REMARK    5  A    between atoms: C_10  and  C_12
REMARK    6  A    between atoms: C_14  and  C_15
REMARK                            x       y       z     vdW  Elec       q    Type
REMARK                         _______ _______ _______ _____ _____    ______ ____
ROOT
ATOM      1  C   UNL     1      43.365   5.265  12.501  0.00  0.00    +0.000 C 
ATOM      2  F   UNL     1      42.589   4.836  13.549  0.00  0.00    +0.000 F 
ENDROOT
BRANCH   1   3
ATOM      3  C   UNL     1      44.834   5.373  12.854  0.00  0.00    +0.000 A 
ATOM      4  C   UNL     1      45.598   6.453  12.409  0.00  0.00    +0.000 A 
ATOM      5  C   UNL     1      46.957   6.548  12.748  0.00  0.00    +0.000 A 
ATOM      6  C   UNL     1      47.483   5.517  13.538  0.00  0.00    +0.000 A 
ATOM      7  C   UNL     1      46.662   4.482  13.948  0.00  0.00    +0.000 A 
ATOM      8  N   UNL     1      45.360   4.387  13.624  0.00  0.00    +0.000 NA
BRANCH   5   9
ATOM      9  C   UNL     1      47.803   7.679  12.293  0.00  0.00    +0.000 A 
ATOM     10  C   UNL     1      47.290   8.991  12.212  0.00  0.00    +0.000 A 
ATOM     11  C   UNL     1      48.091  10.067  11.817  0.00  0.00    +0.000 A 
ATOM     12  C   UNL     1      49.416   9.845  11.479  0.00  0.00    +0.000 A 
ATOM     13  F   UNL     1      50.186  10.874  11.104  0.00  0.00    +0.000 F 
ATOM     14  C   UNL     1      49.955   8.567  11.528  0.00  0.00    +0.000 A 
ATOM     15  C   UNL     1      49.154   7.495  11.937  0.00  0.00    +0.000 A 
ENDBRANCH   5   9
ENDBRANCH   1   3
BRANCH   1  16
ATOM     16  C   UNL     1      43.183   4.273  11.342  0.00  0.00    +0.000 C 
BRANCH  16  17
ATOM     17  N   UNL     1      43.759   4.778  10.086  0.00  0.00    +0.000 N 
ATOM     18  H   UNL     1      43.093   5.293   9.510  0.00  0.00    +0.000 HD
BRANCH  17  22
ATOM     19  C   UNL     1      46.370   2.352   7.822  0.00  0.00    +0.000 A 
ATOM     20  C   UNL     1      45.493   1.755   8.728  0.00  0.00    +0.000 A 
ATOM     21  C   UNL     1      44.617   2.546   9.479  0.00  0.00    +0.000 A 
ATOM     22  C   UNL     1      44.574   3.938   9.321  0.00  0.00    +0.000 A 
ATOM     23  C   UNL     1      45.481   4.522   8.427  0.00  0.00    +0.000 A 
ATOM     24  C   UNL     1      46.378   3.741   7.687  0.00  0.00    +0.000 A 
BRANCH  19  26
ATOM     25  N   UNL     1      48.390   2.199   6.476  0.00  0.00    +0.000 N 
ATOM     26  C   UNL     1      47.322   1.542   7.021  0.00  0.00    +0.000 C 
ATOM     27  O   UNL     1      47.185   0.333   6.884  0.00  0.00    +0.000 OA
ATOM     28  H   UNL     1      49.088   1.621   6.024  0.00  0.00    +0.000 HD
ATOM     29  H   UNL     1      48.667   3.120   6.778  0.00  0.00    +0.000 HD
ENDBRANCH  19  26
ENDBRANCH  17  22
ENDBRANCH  16  17
ENDBRANCH   1  16
TORSDOF 6
ENDMDL
MODEL 2
REMARK VINA RESULT:    -9.111      2.562      4.061
REMARK INTER + INTRA:         -13.180
REMARK INTER:                 -12.100
REMARK INTRA:                  -1.079
REMARK UNBOUND:                -0.873
REMARK  Name = 
REMARK  6 active torsions:
REMARK  status: ('A' for Active; 'I' for Inactive)
REMARK    1  A    between atoms: C_2  and  C_4
REMARK    2  A    between atoms: C_7  and  N_8
REMARK    3  A    between atoms: N_8  and  C_9
REMARK    4  A    between atoms: C_9  and  C_10
REMARK    5  A    between atoms: C_10  and  C_12
REMARK    6  A    between atoms: C_14  and  C_15
REMARK                            x       y       z     vdW  Elec       q    Type
REMARK                         _______ _______ _______ _____ _____    ______ ____
ROOT
ATOM      1  C   UNL     1      43.450   5.725  12.103  0.00  0.00    +0.000 C 
ATOM      2  F   UNL     1      42.707   5.484  13.231  0.00  0.00    +0.000 F 
ENDROOT
BRANCH   1   3
ATOM      3  C   UNL     1      44.932   5.863  12.386  0.00  0.00    +0.000 A 
ATOM      4  C   UNL     1      45.490   5.322  13.545  0.00  0.00    +0.000 A 
ATOM      5  C   UNL     1      46.866   5.448  13.796  0.00  0.00    +0.000 A 
ATOM      6  C   UNL     1      47.621   6.134  12.835  0.00  0.00    +0.000 A 
ATOM      7  C   UNL     1      46.999   6.637  11.706  0.00  0.00    +0.000 A 
ATOM      8  N   UNL     1      45.680   6.518  11.464  0.00  0.00    +0.000 NA
BRANCH   5   9
ATOM      9  C   UNL     1      47.497   4.890  15.016  0.00  0.00    +0.000 A 
ATOM     10  C   UNL     1      48.324   5.681  15.842  0.00  0.00    +0.000 A 
ATOM     11  C   UNL     1      48.894   5.171  17.012  0.00  0.00    +0.000 A 
ATOM     12  C   UNL     1      48.660   3.853  17.368  0.00  0.00    +0.000 A 
ATOM     13  F   UNL     1      49.202   3.364  18.490  0.00  0.00    +0.000 F 
ATOM     14  C   UNL     1      47.867   3.035  16.575  0.00  0.00    +0.000 A 
ATOM     15  C   UNL     1      47.288   3.553  15.412  0.00  0.00    +0.000 A 
ENDBRANCH   5   9
ENDBRANCH   1   3
BRANCH   1  16
ATOM     16  C   UNL     1      43.216   4.564  11.126  0.00  0.00    +0.000 C 
BRANCH  16  17
ATOM     17  N   UNL     1      43.748   4.851   9.785  0.00  0.00    +0.000 N 
ATOM     18  H   UNL     1      43.043   5.190   9.130  0.00  0.00    +0.000 HD
BRANCH  17  22
ATOM     19  C   UNL     1      46.252   1.999   7.935  0.00  0.00    +0.000 A 
ATOM     20  C   UNL     1      46.417   3.352   7.636  0.00  0.00    +0.000 A 
ATOM     21  C   UNL     1      45.600   4.308   8.249  0.00  0.00    +0.000 A 
ATOM     22  C   UNL     1      44.626   3.942   9.188  0.00  0.00    +0.000 A 
ATOM     23  C   UNL     1      44.457   2.577   9.454  0.00  0.00    +0.000 A 
ATOM     24  C   UNL     1      45.254   1.610   8.830  0.00  0.00    +0.000 A 
BRANCH  19  26
ATOM     25  N   UNL     1      46.854  -0.340   7.648  0.00  0.00    +0.000 N 
ATOM     26  C   UNL     1      47.093   0.959   7.292  0.00  0.00    +0.000 C 
ATOM     27  O   UNL     1      47.936   1.239   6.450  0.00  0.00    +0.000 OA
ATOM     28  H   UNL     1      47.357  -1.047   7.127  0.00  0.00    +0.000 HD
ATOM     29  H   UNL     1      46.014  -0.620   8.130  0.00  0.00    +0.000 HD
ENDBRANCH  19  26
ENDBRANCH  17  22
ENDBRANCH  16  17
ENDBRANCH   1  16
TORSDOF 6
ENDMDL
MODEL 3
REMARK VINA RESULT:    -7.909      3.403      7.059
REMARK INTER + INTRA:         -11.555
REMARK INTER:                 -10.755
REMARK INTRA:                  -0.800
REMARK UNBOUND:                -0.873
REMARK  Name = 
REMARK  6 active torsions:
REMARK  status: ('A' for Active; 'I' for Inactive)
REMARK    1  A    between atoms: C_2  and  C_4
REMARK    2  A    between atoms: C_7  and  N_8
REMARK    3  A    between atoms: N_8  and  C_9
REMARK    4  A    between atoms: C_9  and  C_10
REMARK    5  A    between atoms: C_10  and  C_12
REMARK    6  A    between atoms: C_14  and  C_15
REMARK                            x       y       z     vdW  Elec       q    Type
REMARK                         _______ _______ _______ _____ _____    ______ ____
ROOT
ATOM      1  C   UNL     1      45.348   7.749  12.079  0.00  0.00    +0.000 C 
ATOM      2  F   UNL     1      45.007   8.891  11.398  0.00  0.00    +0.000 F 
ENDROOT
BRANCH   1   3
ATOM      3  C   UNL     1      44.686   6.505  11.523  0.00  0.00    +0.000 A 
ATOM      4  C   UNL     1      45.338   5.711  10.579  0.00  0.00    +0.000 A 
ATOM      5  C   UNL     1      44.719   4.556  10.074  0.00  0.00    +0.000 A 
ATOM      6  C   UNL     1      43.440   4.262  10.565  0.00  0.00    +0.000 A 
ATOM      7  C   UNL     1      42.859   5.093  11.507  0.00  0.00    +0.000 A 
ATOM      8  N   UNL     1      43.449   6.201  11.990  0.00  0.00    +0.000 NA
BRANCH   5   9
ATOM      9  C   UNL     1      45.378   3.687   9.069  0.00  0.00    +0.000 A 
ATOM     10  C   UNL     1      46.012   4.232   7.932  0.00  0.00    +0.000 A 
ATOM     11  C   UNL     1      46.664   3.422   6.998  0.00  0.00    +0.000 A 
ATOM     12  C   UNL     1      46.679   2.048   7.178  0.00  0.00    +0.000 A 
ATOM     13  F   UNL     1      47.306   1.270   6.286  0.00  0.00    +0.000 F 
ATOM     14  C   UNL     1      46.053   1.470   8.273  0.00  0.00    +0.000 A 
ATOM     15  C   UNL     1      45.412   2.285   9.212  0.00  0.00    +0.000 A 
ENDBRANCH   5   9
ENDBRANCH   1   3
BRANCH   1  16
ATOM     16  C   UNL     1      46.875   7.597  12.010  0.00  0.00    +0.000 C 
BRANCH  16  17
ATOM     17  N   UNL     1      47.499   7.662  13.341  0.00  0.00    +0.000 N 
ATOM     18  H   UNL     1      48.344   8.233  13.367  0.00  0.00    +0.000 HD
BRANCH  17  22
ATOM     19  C   UNL     1      47.839   4.219  15.761  0.00  0.00    +0.000 A 
ATOM     20  C   UNL     1      47.176   4.133  14.537  0.00  0.00    +0.000 A 
ATOM     21  C   UNL     1      47.063   5.264  13.721  0.00  0.00    +0.000 A 
ATOM     22  C   UNL     1      47.631   6.491  14.092  0.00  0.00    +0.000 A 
ATOM     23  C   UNL     1      48.269   6.564  15.338  0.00  0.00    +0.000 A 
ATOM     24  C   UNL     1      48.368   5.444  16.171  0.00  0.00    +0.000 A 
BRANCH  19  26
ATOM     25  N   UNL     1      47.005   2.892  17.620  0.00  0.00    +0.000 N 
ATOM     26  C   UNL     1      47.963   3.041  16.656  0.00  0.00    +0.000 C 
ATOM     27  O   UNL     1      48.856   2.216  16.518  0.00  0.00    +0.000 OA
ATOM     28  H   UNL     1      47.037   2.032  18.154  0.00  0.00    +0.000 HD
ATOM     29  H   UNL     1      46.132   3.397  17.596  0.00  0.00    +0.000 HD
ENDBRANCH  19  26
ENDBRANCH  17  22
ENDBRANCH  16  17
ENDBRANCH   1  16
TORSDOF 6
ENDMDL
MODEL 4
REMARK VINA RESULT:    -7.892      3.644      6.900
REMARK INTER + INTRA:         -11.532
REMARK INTER:                 -10.624
REMARK INTRA:                  -0.908
REMARK UNBOUND:                -0.873
REMARK  Name = 
REMARK  6 active torsions:
REMARK  status: ('A' for Active; 'I' for Inactive)
REMARK    1  A    between atoms: C_2  and  C_4
REMARK    2  A    between atoms: C_7  and  N_8
REMARK    3  A    between atoms: N_8  and  C_9
REMARK    4  A    between atoms: C_9  and  C_10
REMARK    5  A    between atoms: C_10  and  C_12
REMARK    6  A    between atoms: C_14  and  C_15
REMARK                            x       y       z     vdW  Elec       q    Type
REMARK                         _______ _______ _______ _____ _____    ______ ____
ROOT
ATOM      1  C   UNL     1      44.285   6.425  11.854  0.00  0.00    +0.000 C 
ATOM      2  F   UNL     1      44.685   7.369  10.941  0.00  0.00    +0.000 F 
ENDROOT
BRANCH   1   3
ATOM      3  C   UNL     1      44.227   5.026  11.275  0.00  0.00    +0.000 A 
ATOM      4  C   UNL     1      45.014   4.675  10.178  0.00  0.00    +0.000 A 
ATOM      5  C   UNL     1      44.958   3.374   9.653  0.00  0.00    +0.000 A 
ATOM      6  C   UNL     1      44.084   2.477  10.283  0.00  0.00    +0.000 A 
ATOM      7  C   UNL     1      43.341   2.896  11.372  0.00  0.00    +0.000 A 
ATOM      8  N   UNL     1      43.391   4.142  11.876  0.00  0.00    +0.000 NA
BRANCH   5   9
ATOM      9  C   UNL     1      45.776   2.961   8.487  0.00  0.00    +0.000 A 
ATOM     10  C   UNL     1      46.176   3.894   7.505  0.00  0.00    +0.000 A 
ATOM     11  C   UNL     1      46.976   3.519   6.422  0.00  0.00    +0.000 A 
ATOM     12  C   UNL     1      47.376   2.199   6.292  0.00  0.00    +0.000 A 
ATOM     13  F   UNL     1      48.145   1.839   5.257  0.00  0.00    +0.000 F 
ATOM     14  C   UNL     1      46.991   1.247   7.225  0.00  0.00    +0.000 A 
ATOM     15  C   UNL     1      46.201   1.628   8.315  0.00  0.00    +0.000 A 
ENDBRANCH   5   9
ENDBRANCH   1   3
BRANCH   1  16
ATOM     16  C   UNL     1      45.273   6.458  13.030  0.00  0.00    +0.000 C 
BRANCH  16  17
ATOM     17  N   UNL     1      45.889   7.783  13.200  0.00  0.00    +0.000 N 
ATOM     18  H   UNL     1      45.289   8.552  12.903  0.00  0.00    +0.000 HD
BRANCH  17  22
ATOM     19  C   UNL     1      49.912   8.176  11.979  0.00  0.00    +0.000 A 
ATOM     20  C   UNL     1      48.971   9.115  11.554  0.00  0.00    +0.000 A 
ATOM     21  C   UNL     1      47.637   9.002  11.958  0.00  0.00    +0.000 A 
ATOM     22  C   UNL     1      47.218   7.973  12.813  0.00  0.00    +0.000 A 
ATOM     23  C   UNL     1      48.171   7.023  13.206  0.00  0.00    +0.000 A 
ATOM     24  C   UNL     1      49.504   7.116  12.790  0.00  0.00    +0.000 A 
BRANCH  19  26
ATOM     25  N   UNL     1      51.803   7.252  10.762  0.00  0.00    +0.000 N 
ATOM     26  C   UNL     1      51.332   8.260  11.557  0.00  0.00    +0.000 C 
ATOM     27  O   UNL     1      52.044   9.206  11.869  0.00  0.00    +0.000 OA
ATOM     28  H   UNL     1      52.739   7.374  10.392  0.00  0.00    +0.000 HD
ATOM     29  H   UNL     1      51.189   6.611  10.284  0.00  0.00    +0.000 HD
ENDBRANCH  19  26
ENDBRANCH  17  22
ENDBRANCH  16  17
ENDBRANCH   1  16
TORSDOF 6
ENDMDL
MODEL 5
REMARK VINA RESULT:    -7.723      4.154      7.755
REMARK INTER + INTRA:         -11.304
REMARK INTER:                 -10.409
REMARK INTRA:                  -0.895
REMARK UNBOUND:                -0.873
REMARK  Name = 
REMARK  6 active torsions:
REMARK  status: ('A' for Active; 'I' for Inactive)
REMARK    1  A    between atoms: C_2  and  C_4
REMARK    2  A    between atoms: C_7  and  N_8
REMARK    3  A    between atoms: N_8  and  C_9
REMARK    4  A    between atoms: C_9  and  C_10
REMARK    5  A    between atoms: C_10  and  C_12
REMARK    6  A    between atoms: C_14  and  C_15
REMARK                            x       y       z     vdW  Elec       q    Type
REMARK                         _______ _______ _______ _____ _____    ______ ____
ROOT
ATOM      1  C   UNL     1      44.896   6.290  12.430  0.00  0.00    +0.000 C 
ATOM      2  F   UNL     1      44.968   7.365  11.580  0.00  0.00    +0.000 F 
ENDROOT
BRANCH   1   3
ATOM      3  C   UNL     1      44.590   4.989  11.717  0.00  0.00    +0.000 A 
ATOM      4  C   UNL     1      45.284   4.629  10.561  0.00  0.00    +0.000 A 
ATOM      5  C   UNL     1      44.997   3.417   9.911  0.00  0.00    +0.000 A 
ATOM      6  C   UNL     1      43.998   2.617  10.481  0.00  0.00    +0.000 A 
ATOM      7  C   UNL     1      43.358   3.037  11.634  0.00  0.00    +0.000 A 
ATOM      8  N   UNL     1      43.630   4.198  12.258  0.00  0.00    +0.000 NA
BRANCH   5   9
ATOM      9  C   UNL     1      45.710   2.999   8.679  0.00  0.00    +0.000 A 
ATOM     10  C   UNL     1      46.062   3.935   7.683  0.00  0.00    +0.000 A 
ATOM     11  C   UNL     1      46.764   3.554   6.536  0.00  0.00    +0.000 A 
ATOM     12  C   UNL     1      47.111   2.225   6.357  0.00  0.00    +0.000 A 
ATOM     13  F   UNL     1      47.787   1.858   5.260  0.00  0.00    +0.000 F 
ATOM     14  C   UNL     1      46.769   1.269   7.304  0.00  0.00    +0.000 A 
ATOM     15  C   UNL     1      46.078   1.657   8.457  0.00  0.00    +0.000 A 
ENDBRANCH   5   9
ENDBRANCH   1   3
BRANCH   1  16
ATOM     16  C   UNL     1      46.242   6.175  13.161  0.00  0.00    +0.000 C 
BRANCH  16  17
ATOM     17  N   UNL     1      46.375   4.898  13.880  0.00  0.00    +0.000 N 
ATOM     18  H   UNL     1      45.487   4.419  14.027  0.00  0.00    +0.000 HD
BRANCH  17  22
ATOM     19  C   UNL     1      48.827   4.867  17.317  0.00  0.00    +0.000 A 
ATOM     20  C   UNL     1      47.943   3.810  17.096  0.00  0.00    +0.000 A 
ATOM     21  C   UNL     1      47.132   3.803  15.957  0.00  0.00    +0.000 A 
ATOM     22  C   UNL     1      47.203   4.829  15.004  0.00  0.00    +0.000 A 
ATOM     23  C   UNL     1      48.075   5.896  15.258  0.00  0.00    +0.000 A 
ATOM     24  C   UNL     1      48.876   5.923  16.406  0.00  0.00    +0.000 A 
BRANCH  19  26
ATOM     25  N   UNL     1      49.408   4.019  19.521  0.00  0.00    +0.000 N 
ATOM     26  C   UNL     1      49.691   4.910  18.523  0.00  0.00    +0.000 C 
ATOM     27  O   UNL     1      50.640   5.679  18.611  0.00  0.00    +0.000 OA
ATOM     28  H   UNL     1      50.067   3.984  20.290  0.00  0.00    +0.000 HD
ATOM     29  H   UNL     1      48.814   3.218  19.375  0.00  0.00    +0.000 HD
ENDBRANCH  19  26
ENDBRANCH  17  22
ENDBRANCH  16  17
ENDBRANCH   1  16
TORSDOF 6
ENDMDL
MODEL 6
REMARK VINA RESULT:    -7.277      3.717      7.752
REMARK INTER + INTRA:         -10.703
REMARK INTER:                  -9.338
REMARK INTRA:                  -1.365
REMARK UNBOUND:                -0.873
REMARK  Name = 
REMARK  6 active torsions:
REMARK  status: ('A' for Active; 'I' for Inactive)
REMARK    1  A    between atoms: C_2  and  C_4
REMARK    2  A    between atoms: C_7  and  N_8
REMARK    3  A    between atoms: N_8  and  C_9
REMARK    4  A    between atoms: C_9  and  C_10
REMARK    5  A    between atoms: C_10  and  C_12
REMARK    6  A    between atoms: C_14  and  C_15
REMARK                            x       y       z     vdW  Elec       q    Type
REMARK                         _______ _______ _______ _____ _____    ______ ____
ROOT
ATOM      1  C   UNL     1      49.264   8.333  12.211  0.00  0.00    +0.000 C 
ATOM      2  F   UNL     1      49.963   7.858  11.129  0.00  0.00    +0.000 F 
ENDROOT
BRANCH   1   3
ATOM      3  C   UNL     1      47.784   8.013  12.148  0.00  0.00    +0.000 A 
ATOM      4  C   UNL     1      47.330   6.861  11.504  0.00  0.00    +0.000 A 
ATOM      5  C   UNL     1      45.957   6.570  11.457  0.00  0.00    +0.000 A 
ATOM      6  C   UNL     1      45.097   7.486  12.079  0.00  0.00    +0.000 A 
ATOM      7  C   UNL     1      45.622   8.603  12.704  0.00  0.00    +0.000 A 
ATOM      8  N   UNL     1      46.937   8.885  12.750  0.00  0.00    +0.000 NA
BRANCH   5   9
ATOM      9  C   UNL     1      45.434   5.358  10.781  0.00  0.00    +0.000 A 
ATOM     10  C   UNL     1      45.596   5.165   9.393  0.00  0.00    +0.000 A 
ATOM     11  C   UNL     1      45.136   4.009   8.755  0.00  0.00    +0.000 A 
ATOM     12  C   UNL     1      44.489   3.033   9.494  0.00  0.00    +0.000 A 
ATOM     13  F   UNL     1      44.050   1.923   8.886  0.00  0.00    +0.000 F 
ATOM     14  C   UNL     1      44.292   3.190  10.859  0.00  0.00    +0.000 A 
ATOM     15  C   UNL     1      44.766   4.342  11.496  0.00  0.00    +0.000 A 
ENDBRANCH   5   9
ENDBRANCH   1   3
BRANCH   1  16
ATOM     16  C   UNL     1      49.874   7.712  13.476  0.00  0.00    +0.000 C 
BRANCH  16  17
ATOM     17  N   UNL     1      49.064   7.986  14.673  0.00  0.00    +0.000 N 
ATOM     18  H   UNL     1      49.383   8.797  15.204  0.00  0.00    +0.000 HD
BRANCH  17  22
ATOM     19  C   UNL     1      47.984   4.665  17.046  0.00  0.00    +0.000 A 
ATOM     20  C   UNL     1      48.826   5.642  17.577  0.00  0.00    +0.000 A 
ATOM     21  C   UNL     1      49.185   6.752  16.805  0.00  0.00    +0.000 A 
ATOM     22  C   UNL     1      48.692   6.926  15.505  0.00  0.00    +0.000 A 
ATOM     23  C   UNL     1      47.870   5.921  14.978  0.00  0.00    +0.000 A 
ATOM     24  C   UNL     1      47.523   4.796  15.735  0.00  0.00    +0.000 A 
BRANCH  19  26
ATOM     25  N   UNL     1      48.299   3.228  18.982  0.00  0.00    +0.000 N 
ATOM     26  C   UNL     1      47.596   3.469  17.834  0.00  0.00    +0.000 C 
ATOM     27  O   UNL     1      46.664   2.749  17.499  0.00  0.00    +0.000 OA
ATOM     28  H   UNL     1      47.958   2.474  19.566  0.00  0.00    +0.000 HD
ATOM     29  H   UNL     1      48.883   3.928  19.413  0.00  0.00    +0.000 HD
ENDBRANCH  19  26
ENDBRANCH  17  22
ENDBRANCH  16  17
ENDBRANCH   1  16
TORSDOF 6
ENDMDL
MODEL 7
REMARK VINA RESULT:    -6.876      4.754      8.146
REMARK INTER + INTRA:         -10.161
REMARK INTER:                  -9.457
REMARK INTRA:                  -0.704
REMARK UNBOUND:                -0.873
REMARK  Name = 
REMARK  6 active torsions:
REMARK  status: ('A' for Active; 'I' for Inactive)
REMARK    1  A    between atoms: C_2  and  C_4
REMARK    2  A    between atoms: C_7  and  N_8
REMARK    3  A    between atoms: N_8  and  C_9
REMARK    4  A    between atoms: C_9  and  C_10
REMARK    5  A    between atoms: C_10  and  C_12
REMARK    6  A    between atoms: C_14  and  C_15
REMARK                            x       y       z     vdW  Elec       q    Type
REMARK                         _______ _______ _______ _____ _____    ______ ____
ROOT
ATOM      1  C   UNL     1      48.305   7.077  14.730  0.00  0.00    +0.000 C 
ATOM      2  F   UNL     1      49.587   7.016  14.245  0.00  0.00    +0.000 F 
ENDROOT
BRANCH   1   3
ATOM      3  C   UNL     1      47.267   7.262  13.642  0.00  0.00    +0.000 A 
ATOM      4  C   UNL     1      46.878   6.190  12.837  0.00  0.00    +0.000 A 
ATOM      5  C   UNL     1      45.910   6.370  11.836  0.00  0.00    +0.000 A 
ATOM      6  C   UNL     1      45.376   7.659  11.700  0.00  0.00    +0.000 A 
ATOM      7  C   UNL     1      45.805   8.671  12.540  0.00  0.00    +0.000 A 
ATOM      8  N   UNL     1      46.734   8.502  13.499  0.00  0.00    +0.000 NA
BRANCH   5   9
ATOM      9  C   UNL     1      45.472   5.258  10.958  0.00  0.00    +0.000 A 
ATOM     10  C   UNL     1      44.844   4.110  11.488  0.00  0.00    +0.000 A 
ATOM     11  C   UNL     1      44.397   3.073  10.663  0.00  0.00    +0.000 A 
ATOM     12  C   UNL     1      44.587   3.159   9.294  0.00  0.00    +0.000 A 
ATOM     13  F   UNL     1      44.157   2.168   8.502  0.00  0.00    +0.000 F 
ATOM     14  C   UNL     1      45.216   4.262   8.733  0.00  0.00    +0.000 A 
ATOM     15  C   UNL     1      45.650   5.304   9.560  0.00  0.00    +0.000 A 
ENDBRANCH   5   9
ENDBRANCH   1   3
BRANCH   1  16
ATOM     16  C   UNL     1      48.026   5.775  15.495  0.00  0.00    +0.000 C 
BRANCH  16  17
ATOM     17  N   UNL     1      48.665   5.763  16.820  0.00  0.00    +0.000 N 
ATOM     18  H   UNL     1      48.993   6.680  17.123  0.00  0.00    +0.000 HD
BRANCH  17  22
ATOM     19  C   UNL     1      51.360   2.608  17.605  0.00  0.00    +0.000 A 
ATOM     20  C   UNL     1      51.824   3.924  17.613  0.00  0.00    +0.000 A 
ATOM     21  C   UNL     1      50.940   4.979  17.363  0.00  0.00    +0.000 A 
ATOM     22  C   UNL     1      49.577   4.750  17.130  0.00  0.00    +0.000 A 
ATOM     23  C   UNL     1      49.136   3.420  17.097  0.00  0.00    +0.000 A 
ATOM     24  C   UNL     1      50.016   2.356  17.324  0.00  0.00    +0.000 A 
BRANCH  19  26
ATOM     25  N   UNL     1      51.697   0.248  18.084  0.00  0.00    +0.000 N 
ATOM     26  C   UNL     1      52.275   1.466  17.852  0.00  0.00    +0.000 C 
ATOM     27  O   UNL     1      53.492   1.592  17.812  0.00  0.00    +0.000 OA
ATOM     28  H   UNL     1      52.328  -0.542  18.145  0.00  0.00    +0.000 HD
ATOM     29  H   UNL     1      50.730   0.061  17.871  0.00  0.00    +0.000 HD
ENDBRANCH  19  26
ENDBRANCH  17  22
ENDBRANCH  16  17
ENDBRANCH   1  16
TORSDOF 6
ENDMDL
MODEL 8
REMARK VINA RESULT:    -6.732      5.654      7.344
REMARK INTER + INTRA:          -9.967
REMARK INTER:                  -9.297
REMARK INTRA:                  -0.669
REMARK UNBOUND:                -0.873
REMARK  Name = 
REMARK  6 active torsions:
REMARK  status: ('A' for Active; 'I' for Inactive)
REMARK    1  A    between atoms: C_2  and  C_4
REMARK    2  A    between atoms: C_7  and  N_8
REMARK    3  A    between atoms: N_8  and  C_9
REMARK    4  A    between atoms: C_9  and  C_10
REMARK    5  A    between atoms: C_10  and  C_12
REMARK    6  A    between atoms: C_14  and  C_15
REMARK                            x       y       z     vdW  Elec       q    Type
REMARK                         _______ _______ _______ _____ _____    ______ ____
ROOT
ATOM      1  C   UNL     1      47.164   4.171  16.972  0.00  0.00    +0.000 C 
ATOM      2  F   UNL     1      46.693   3.025  17.561  0.00  0.00    +0.000 F 
ENDROOT
BRANCH   1   3
ATOM      3  C   UNL     1      48.572   4.527  17.406  0.00  0.00    +0.000 A 
ATOM      4  C   UNL     1      49.573   3.555  17.444  0.00  0.00    +0.000 A 
ATOM      5  C   UNL     1      50.876   3.896  17.840  0.00  0.00    +0.000 A 
ATOM      6  C   UNL     1      51.100   5.235  18.187  0.00  0.00    +0.000 A 
ATOM      7  C   UNL     1      50.059   6.144  18.117  0.00  0.00    +0.000 A 
ATOM      8  N   UNL     1      48.809   5.820  17.739  0.00  0.00    +0.000 NA
BRANCH   5   9
ATOM      9  C   UNL     1      51.968   2.893  17.896  0.00  0.00    +0.000 A 
ATOM     10  C   UNL     1      53.258   3.238  18.354  0.00  0.00    +0.000 A 
ATOM     11  C   UNL     1      54.281   2.290  18.442  0.00  0.00    +0.000 A 
ATOM     12  C   UNL     1      54.036   0.982  18.056  0.00  0.00    +0.000 A 
ATOM     13  F   UNL     1      55.015   0.072  18.143  0.00  0.00    +0.000 F 
ATOM     14  C   UNL     1      52.787   0.604  17.584  0.00  0.00    +0.000 A 
ATOM     15  C   UNL     1      51.761   1.553  17.510  0.00  0.00    +0.000 A 
ENDBRANCH   5   9
ENDBRANCH   1   3
BRANCH   1  16
ATOM     16  C   UNL     1      47.127   3.970  15.450  0.00  0.00    +0.000 C 
BRANCH  16  17
ATOM     17  N   UNL     1      46.720   5.191  14.739  0.00  0.00    +0.000 N 
ATOM     18  H   UNL     1      46.055   5.764  15.260  0.00  0.00    +0.000 HD
BRANCH  17  22
ATOM     19  C   UNL     1      45.579   4.903  10.684  0.00  0.00    +0.000 A 
ATOM     20  C   UNL     1      46.169   6.079  11.148  0.00  0.00    +0.000 A 
ATOM     21  C   UNL     1      46.560   6.185  12.487  0.00  0.00    +0.000 A 
ATOM     22  C   UNL     1      46.399   5.117  13.380  0.00  0.00    +0.000 A 
ATOM     23  C   UNL     1      45.778   3.954  12.903  0.00  0.00    +0.000 A 
ATOM     24  C   UNL     1      45.364   3.847  11.570  0.00  0.00    +0.000 A 
BRANCH  19  26
ATOM     25  N   UNL     1      43.833   4.423   9.060  0.00  0.00    +0.000 N 
ATOM     26  C   UNL     1      45.141   4.764   9.272  0.00  0.00    +0.000 C 
ATOM     27  O   UNL     1      45.898   4.983   8.336  0.00  0.00    +0.000 OA
ATOM     28  H   UNL     1      43.518   4.437   8.097  0.00  0.00    +0.000 HD
ATOM     29  H   UNL     1      43.135   4.490   9.784  0.00  0.00    +0.000 HD
ENDBRANCH  19  26
ENDBRANCH  17  22
ENDBRANCH  16  17
ENDBRANCH   1  16
TORSDOF 6
ENDMDL
MODEL 9
REMARK VINA RESULT:    -6.420      3.931      6.170
REMARK INTER + INTRA:          -9.545
REMARK INTER:                  -8.651
REMARK INTRA:                  -0.893
REMARK UNBOUND:                -0.873
REMARK  Name = 
REMARK  6 active torsions:
REMARK  status: ('A' for Active; 'I' for Inactive)
REMARK    1  A    between atoms: C_2  and  C_4
REMARK    2  A    between atoms: C_7  and  N_8
REMARK    3  A    between atoms: N_8  and  C_9
REMARK    4  A    between atoms: C_9  and  C_10
REMARK    5  A    between atoms: C_10  and  C_12
REMARK    6  A    between atoms: C_14  and  C_15
REMARK                            x       y       z     vdW  Elec       q    Type
REMARK                         _______ _______ _______ _____ _____    ______ ____
ROOT
ATOM      1  C   UNL     1      48.296   7.350  12.260  0.00  0.00    +0.000 C 
ATOM      2  F   UNL     1      48.945   7.716  11.108  0.00  0.00    +0.000 F 
ENDROOT
BRANCH   1   3
ATOM      3  C   UNL     1      49.193   7.378  13.481  0.00  0.00    +0.000 A 
ATOM      4  C   UNL     1      48.853   6.664  14.632  0.00  0.00    +0.000 A 
ATOM      5  C   UNL     1      49.694   6.691  15.756  0.00  0.00    +0.000 A 
ATOM      6  C   UNL     1      50.861   7.459  15.652  0.00  0.00    +0.000 A 
ATOM      7  C   UNL     1      51.135   8.133  14.475  0.00  0.00    +0.000 A 
ATOM      8  N   UNL     1      50.330   8.111  13.397  0.00  0.00    +0.000 NA
BRANCH   5   9
ATOM      9  C   UNL     1      49.368   5.948  16.998  0.00  0.00    +0.000 A 
ATOM     10  C   UNL     1      48.392   4.929  17.008  0.00  0.00    +0.000 A 
ATOM     11  C   UNL     1      48.104   4.202  18.167  0.00  0.00    +0.000 A 
ATOM     12  C   UNL     1      48.777   4.494  19.342  0.00  0.00    +0.000 A 
ATOM     13  F   UNL     1      48.506   3.797  20.452  0.00  0.00    +0.000 F 
ATOM     14  C   UNL     1      49.732   5.500  19.380  0.00  0.00    +0.000 A 
ATOM     15  C   UNL     1      50.027   6.217  18.215  0.00  0.00    +0.000 A 
ENDBRANCH   5   9
ENDBRANCH   1   3
BRANCH   1  16
ATOM     16  C   UNL     1      47.115   8.311  12.463  0.00  0.00    +0.000 C 
BRANCH  16  17
ATOM     17  N   UNL     1      46.010   7.683  13.204  0.00  0.00    +0.000 N 
ATOM     18  H   UNL     1      46.149   7.676  14.214  0.00  0.00    +0.000 HD
BRANCH  17  22
ATOM     19  C   UNL     1      44.467   4.080  11.633  0.00  0.00    +0.000 A 
ATOM     20  C   UNL     1      45.102   4.070  12.875  0.00  0.00    +0.000 A 
ATOM     21  C   UNL     1      45.611   5.257  13.411  0.00  0.00    +0.000 A 
ATOM     22  C   UNL     1      45.472   6.479  12.739  0.00  0.00    +0.000 A 
ATOM     23  C   UNL     1      44.856   6.465  11.480  0.00  0.00    +0.000 A 
ATOM     24  C   UNL     1      44.363   5.278  10.925  0.00  0.00    +0.000 A 
BRANCH  19  26
ATOM     25  N   UNL     1      44.584   2.344   9.934  0.00  0.00    +0.000 N 
ATOM     26  C   UNL     1      43.929   2.834  11.030  0.00  0.00    +0.000 C 
ATOM     27  O   UNL     1      42.969   2.246  11.511  0.00  0.00    +0.000 OA
ATOM     28  H   UNL     1      44.276   1.440   9.597  0.00  0.00    +0.000 HD
ATOM     29  H   UNL     1      45.509   2.651   9.677  0.00  0.00    +0.000 HD
ENDBRANCH  19  26
ENDBRANCH  17  22
ENDBRANCH  16  17
ENDBRANCH   1  16
TORSDOF 6
ENDMDL
