MODEL 1
REMARK VINA RESULT:    -9.060      0.000      0.000
REMARK INTER + INTRA:         -13.488
REMARK INTER:                 -12.238
REMARK INTRA:                  -1.250
REMARK UNBOUND:                -1.250
REMARK  Name = 
REMARK  7 active torsions:
REMARK  status: ('A' for Active; 'I' for Inactive)
REMARK    1  A    between atoms: C_1  and  C_2
REMARK    2  A    between atoms: C_4  and  C_5
REMARK    3  A    between atoms: C_10  and  N_11
REMARK    4  A    between atoms: N_11  and  C_12
REMARK    5  A    between atoms: C_12  and  C_13
REMARK    6  A    between atoms: C_18  and  C_19
REMARK    7  A    between atoms: C_23  and  C_24
REMARK                            x       y       z     vdW  Elec       q    Type
REMARK                         _______ _______ _______ _____ _____    ______ ____
ROOT
ATOM      1  C   UNL     1      45.033   5.432  12.025  0.00  0.00    +0.000 A 
ATOM      2  C   UNL     1      45.254   4.651  13.162  0.00  0.00    +0.000 A 
ATOM      3  C   UNL     1      46.383   4.871  13.947  0.00  0.00    +0.000 A 
ATOM      4  C   UNL     1      47.305   5.856  13.587  0.00  0.00    +0.000 A 
ATOM      5  F   UNL     1      48.372   6.023  14.385  0.00  0.00    +0.000 F 
ATOM      6  C   UNL     1      47.137   6.653  12.442  0.00  0.00    +0.000 A 
ATOM      7  C   UNL     1      45.979   6.412  11.673  0.00  0.00    +0.000 A 
ENDROOT
BRANCH   6   8
ATOM      8  C   UNL     1      48.080   7.728  12.053  0.00  0.00    +0.000 A 
ATOM      9  C   UNL     1      47.707   9.083  12.135  0.00  0.00    +0.000 A 
ATOM     10  C   UNL     1      48.605  10.113  11.844  0.00  0.00    +0.000 A 
ATOM     11  C   UNL     1      49.904   9.813  11.449  0.00  0.00    +0.000 A 
ATOM     12  C   UNL     1      50.315   8.479  11.342  0.00  0.00    +0.000 A 
ATOM     13  C   UNL     1      49.396   7.452  11.637  0.00  0.00    +0.000 A 
BRANCH  12  14
ATOM     14  C   UNL     1      51.728   8.132  10.945  0.00  0.00    +0.000 C 
ATOM     15  F   UNL     1      52.294   9.037  10.097  0.00  0.00    +0.000 F 
ATOM     16  F   UNL     1      52.566   8.058  12.017  0.00  0.00    +0.000 F 
ATOM     17  F   UNL     1      51.818   6.927  10.316  0.00  0.00    +0.000 F 
ENDBRANCH  12  14
ENDBRANCH   6   8
BRANCH   1  18
ATOM     18  C   UNL     1      43.754   5.301  11.235  0.00  0.00    +0.000 C 
BRANCH  18  19
ATOM     19  N   UNL     1      43.979   5.140   9.827  0.00  0.00    +0.000 N 
ATOM     20  H   UNL     1      43.523   5.766   9.176  0.00  0.00    +0.000 HD
BRANCH  19  27
ATOM     21  C   UNL     1      43.916   2.131  10.551  0.00  0.00    +0.000 C 
ATOM     22  C   UNL     1      44.754   2.808   9.507  0.00  0.00    +0.000 A 
ATOM     23  C   UNL     1      45.621   1.976   8.773  0.00  0.00    +0.000 A 
ATOM     24  C   UNL     1      46.447   2.487   7.779  0.00  0.00    +0.000 A 
ATOM     25  C   UNL     1      46.362   3.846   7.555  0.00  0.00    +0.000 A 
ATOM     26  N   UNL     1      45.537   4.684   8.245  0.00  0.00    +0.000 NA
ATOM     27  C   UNL     1      44.740   4.179   9.217  0.00  0.00    +0.000 A 
BRANCH  24  28
ATOM     28  C   UNL     1      47.338   1.554   7.047  0.00  0.00    +0.000 C 
ATOM     29  N   UNL     1      48.459   2.038   6.435  0.00  0.00    +0.000 N 
ATOM     30  O   UNL     1      47.086   0.353   6.985  0.00  0.00    +0.000 OA
ATOM     31  H   UNL     1      48.765   2.997   6.429  0.00  0.00    +0.000 HD
ATOM     32  H   UNL     1      49.033   1.357   5.953  0.00  0.00    +0.000 HD
ENDBRANCH  24  28
ENDBRANCH  19  27
ENDBRANCH  18  19
ENDBRANCH   1  18
TORSDOF 6
ENDMDL
MODEL 2
REMARK VINA RESULT:    -8.465      2.354      4.711
REMARK INTER + INTRA:         -12.684
REMARK INTER:                 -11.629
REMARK INTRA:                  -1.054
REMARK UNBOUND:                -1.250
REMARK  Name = 
REMARK  7 active torsions:
REMARK  status: ('A' for Active; 'I' for Inactive)
REMARK    1  A    between atoms: C_1  and  C_2
REMARK    2  A    between atoms: C_4  and  C_5
REMARK    3  A    between atoms: C_10  and  N_11
REMARK    4  A    between atoms: N_11  and  C_12
REMARK    5  A    between atoms: C_12  and  C_13
REMARK    6  A    between atoms: C_18  and  C_19
REMARK    7  A    between atoms: C_23  and  C_24
REMARK                            x       y       z     vdW  Elec       q    Type
REMARK                         _______ _______ _______ _____ _____    ______ ____
ROOT
ATOM      1  C   UNL     1      45.380   5.776  12.027  0.00  0.00    +0.000 A 
ATOM      2  C   UNL     1      46.234   6.664  11.367  0.00  0.00    +0.000 A 
ATOM      3  C   UNL     1      47.491   6.941  11.898  0.00  0.00    +0.000 A 
ATOM      4  C   UNL     1      47.891   6.351  13.099  0.00  0.00    +0.000 A 
ATOM      5  F   UNL     1      49.115   6.656  13.559  0.00  0.00    +0.000 F 
ATOM      6  C   UNL     1      47.059   5.469  13.809  0.00  0.00    +0.000 A 
ATOM      7  C   UNL     1      45.797   5.201  13.241  0.00  0.00    +0.000 A 
ENDROOT
BRANCH   6   8
ATOM      8  C   UNL     1      47.468   4.801  15.068  0.00  0.00    +0.000 A 
ATOM      9  C   UNL     1      47.517   3.397  15.160  0.00  0.00    +0.000 A 
ATOM     10  C   UNL     1      47.969   2.750  16.312  0.00  0.00    +0.000 A 
ATOM     11  C   UNL     1      48.377   3.494  17.414  0.00  0.00    +0.000 A 
ATOM     12  C   UNL     1      48.335   4.893  17.372  0.00  0.00    +0.000 A 
ATOM     13  C   UNL     1      47.873   5.530  16.203  0.00  0.00    +0.000 A 
BRANCH  12  14
ATOM     14  C   UNL     1      48.801   5.720  18.544  0.00  0.00    +0.000 C 
ATOM     15  F   UNL     1      47.832   6.529  19.058  0.00  0.00    +0.000 F 
ATOM     16  F   UNL     1      49.229   4.951  19.584  0.00  0.00    +0.000 F 
ATOM     17  F   UNL     1      49.842   6.540  18.230  0.00  0.00    +0.000 F 
ENDBRANCH  12  14
ENDBRANCH   6   8
BRANCH   1  18
ATOM     18  C   UNL     1      44.070   5.360  11.405  0.00  0.00    +0.000 C 
BRANCH  18  19
ATOM     19  N   UNL     1      44.156   5.185   9.984  0.00  0.00    +0.000 N 
ATOM     20  H   UNL     1      43.632   5.800   9.375  0.00  0.00    +0.000 HD
BRANCH  19  27
ATOM     21  C   UNL     1      43.928   2.145  10.523  0.00  0.00    +0.000 C 
ATOM     22  C   UNL     1      44.799   2.838   9.516  0.00  0.00    +0.000 A 
ATOM     23  C   UNL     1      45.616   2.006   8.727  0.00  0.00    +0.000 A 
ATOM     24  C   UNL     1      46.465   2.530   7.760  0.00  0.00    +0.000 A 
ATOM     25  C   UNL     1      46.455   3.903   7.620  0.00  0.00    +0.000 A 
ATOM     26  N   UNL     1      45.681   4.741   8.366  0.00  0.00    +0.000 NA
ATOM     27  C   UNL     1      44.859   4.223   9.310  0.00  0.00    +0.000 A 
BRANCH  24  28
ATOM     28  C   UNL     1      47.301   1.596   6.967  0.00  0.00    +0.000 C 
ATOM     29  N   UNL     1      48.320   2.091   6.204  0.00  0.00    +0.000 N 
ATOM     30  O   UNL     1      47.092   0.386   6.986  0.00  0.00    +0.000 OA
ATOM     31  H   UNL     1      48.584   3.059   6.121  0.00  0.00    +0.000 HD
ATOM     32  H   UNL     1      48.860   1.408   5.686  0.00  0.00    +0.000 HD
ENDBRANCH  24  28
ENDBRANCH  19  27
ENDBRANCH  18  19
ENDBRANCH   1  18
TORSDOF 6
ENDMDL
MODEL 3
REMARK VINA RESULT:    -8.000      2.003      2.488
REMARK INTER + INTRA:         -12.055
REMARK INTER:                 -10.826
REMARK INTRA:                  -1.230
REMARK UNBOUND:                -1.250
REMARK  Name = 
REMARK  7 active torsions:
REMARK  status: ('A' for Active; 'I' for Inactive)
REMARK    1  A    between atoms: C_1  and  C_2
REMARK    2  A    between atoms: C_4  and  C_5
REMARK    3  A    between atoms: C_10  and  N_11
REMARK    4  A    between atoms: N_11  and  C_12
REMARK    5  A    between atoms: C_12  and  C_13
REMARK    6  A    between atoms: C_18  and  C_19
REMARK    7  A    between atoms: C_23  and  C_24
REMARK                            x       y       z     vdW  Elec       q    Type
REMARK                         _______ _______ _______ _____ _____    ______ ____
ROOT
ATOM      1  C   UNL     1      45.520   5.913  11.710  0.00  0.00    +0.000 A 
ATOM      2  C   UNL     1      45.117   4.975  12.665  0.00  0.00    +0.000 A 
ATOM      3  C   UNL     1      45.926   4.717  13.768  0.00  0.00    +0.000 A 
ATOM      4  C   UNL     1      47.149   5.377  13.910  0.00  0.00    +0.000 A 
ATOM      5  F   UNL     1      47.883   5.087  14.997  0.00  0.00    +0.000 F 
ATOM      6  C   UNL     1      47.605   6.313  12.967  0.00  0.00    +0.000 A 
ATOM      7  C   UNL     1      46.759   6.559  11.866  0.00  0.00    +0.000 A 
ENDROOT
BRANCH   6   8
ATOM      8  C   UNL     1      48.882   7.054  13.108  0.00  0.00    +0.000 A 
ATOM      9  C   UNL     1      49.662   7.372  11.980  0.00  0.00    +0.000 A 
ATOM     10  C   UNL     1      50.829   8.133  12.083  0.00  0.00    +0.000 A 
ATOM     11  C   UNL     1      51.255   8.589  13.325  0.00  0.00    +0.000 A 
ATOM     12  C   UNL     1      50.517   8.286  14.476  0.00  0.00    +0.000 A 
ATOM     13  C   UNL     1      49.344   7.515  14.355  0.00  0.00    +0.000 A 
BRANCH  12  14
ATOM     14  C   UNL     1      50.945   8.795  15.830  0.00  0.00    +0.000 C 
ATOM     15  F   UNL     1      50.065   9.677  16.382  0.00  0.00    +0.000 F 
ATOM     16  F   UNL     1      51.084   7.792  16.742  0.00  0.00    +0.000 F 
ATOM     17  F   UNL     1      52.145   9.439  15.796  0.00  0.00    +0.000 F 
ENDBRANCH  12  14
ENDBRANCH   6   8
BRANCH   1  18
ATOM     18  C   UNL     1      44.602   6.305  10.578  0.00  0.00    +0.000 C 
BRANCH  18  19
ATOM     19  N   UNL     1      44.102   5.176   9.847  0.00  0.00    +0.000 N 
ATOM     20  H   UNL     1      43.104   5.022   9.793  0.00  0.00    +0.000 HD
BRANCH  19  27
ATOM     21  C   UNL     1      43.967   2.152  10.495  0.00  0.00    +0.000 C 
ATOM     22  C   UNL     1      44.820   2.835   9.467  0.00  0.00    +0.000 A 
ATOM     23  C   UNL     1      45.665   2.001   8.710  0.00  0.00    +0.000 A 
ATOM     24  C   UNL     1      46.501   2.516   7.727  0.00  0.00    +0.000 A 
ATOM     25  C   UNL     1      46.448   3.882   7.537  0.00  0.00    +0.000 A 
ATOM     26  N   UNL     1      45.646   4.722   8.250  0.00  0.00    +0.000 NA
ATOM     27  C   UNL     1      44.838   4.213   9.210  0.00  0.00    +0.000 A 
BRANCH  24  28
ATOM     28  C   UNL     1      47.368   1.580   6.970  0.00  0.00    +0.000 C 
ATOM     29  N   UNL     1      48.425   2.072   6.260  0.00  0.00    +0.000 N 
ATOM     30  O   UNL     1      47.151   0.371   6.974  0.00  0.00    +0.000 OA
ATOM     31  H   UNL     1      48.699   3.038   6.193  0.00  0.00    +0.000 HD
ATOM     32  H   UNL     1      48.986   1.388   5.765  0.00  0.00    +0.000 HD
ENDBRANCH  24  28
ENDBRANCH  19  27
ENDBRANCH  18  19
ENDBRANCH   1  18
TORSDOF 6
ENDMDL
MODEL 4
REMARK VINA RESULT:    -7.910      4.567      7.560
REMARK INTER + INTRA:         -11.934
REMARK INTER:                 -11.046
REMARK INTRA:                  -0.888
REMARK UNBOUND:                -1.250
REMARK  Name = 
REMARK  7 active torsions:
REMARK  status: ('A' for Active; 'I' for Inactive)
REMARK    1  A    between atoms: C_1  and  C_2
REMARK    2  A    between atoms: C_4  and  C_5
REMARK    3  A    between atoms: C_10  and  N_11
REMARK    4  A    between atoms: N_11  and  C_12
REMARK    5  A    between atoms: C_12  and  C_13
REMARK    6  A    between atoms: C_18  and  C_19
REMARK    7  A    between atoms: C_23  and  C_24
REMARK                            x       y       z     vdW  Elec       q    Type
REMARK                         _______ _______ _______ _____ _____    ______ ____
ROOT
ATOM      1  C   UNL     1      47.071   8.469  12.539  0.00  0.00    +0.000 A 
ATOM      2  C   UNL     1      46.167   9.535  12.512  0.00  0.00    +0.000 A 
ATOM      3  C   UNL     1      44.901   9.357  11.961  0.00  0.00    +0.000 A 
ATOM      4  C   UNL     1      44.540   8.122  11.418  0.00  0.00    +0.000 A 
ATOM      5  F   UNL     1      43.304   8.012  10.905  0.00  0.00    +0.000 F 
ATOM      6  C   UNL     1      45.420   7.027  11.405  0.00  0.00    +0.000 A 
ATOM      7  C   UNL     1      46.692   7.237  11.978  0.00  0.00    +0.000 A 
ENDROOT
BRANCH   6   8
ATOM      8  C   UNL     1      45.055   5.695  10.866  0.00  0.00    +0.000 A 
ATOM      9  C   UNL     1      44.045   4.922  11.471  0.00  0.00    +0.000 A 
ATOM     10  C   UNL     1      43.635   3.699  10.937  0.00  0.00    +0.000 A 
ATOM     11  C   UNL     1      44.235   3.207   9.782  0.00  0.00    +0.000 A 
ATOM     12  C   UNL     1      45.251   3.936   9.153  0.00  0.00    +0.000 A 
ATOM     13  C   UNL     1      45.655   5.167   9.707  0.00  0.00    +0.000 A 
BRANCH  12  14
ATOM     14  C   UNL     1      45.894   3.437   7.884  0.00  0.00    +0.000 C 
ATOM     15  F   UNL     1      46.872   4.259   7.409  0.00  0.00    +0.000 F 
ATOM     16  F   UNL     1      46.483   2.219   8.045  0.00  0.00    +0.000 F 
ATOM     17  F   UNL     1      45.004   3.290   6.864  0.00  0.00    +0.000 F 
ENDBRANCH  12  14
ENDBRANCH   6   8
BRANCH   1  18
ATOM     18  C   UNL     1      48.397   8.600  13.246  0.00  0.00    +0.000 C 
BRANCH  18  19
ATOM     19  N   UNL     1      48.976   7.333  13.591  0.00  0.00    +0.000 N 
ATOM     20  H   UNL     1      49.688   6.934  12.994  0.00  0.00    +0.000 HD
BRANCH  19  27
ATOM     21  C   UNL     1      49.944   7.796  16.494  0.00  0.00    +0.000 C 
ATOM     22  C   UNL     1      49.060   6.696  15.984  0.00  0.00    +0.000 A 
ATOM     23  C   UNL     1      48.624   5.758  16.939  0.00  0.00    +0.000 A 
ATOM     24  C   UNL     1      47.801   4.695  16.588  0.00  0.00    +0.000 A 
ATOM     25  C   UNL     1      47.438   4.619  15.258  0.00  0.00    +0.000 A 
ATOM     26  N   UNL     1      47.840   5.506  14.305  0.00  0.00    +0.000 NA
ATOM     27  C   UNL     1      48.647   6.536  14.654  0.00  0.00    +0.000 A 
BRANCH  24  28
ATOM     28  C   UNL     1      47.382   3.741  17.644  0.00  0.00    +0.000 C 
ATOM     29  N   UNL     1      47.987   3.788  18.867  0.00  0.00    +0.000 N 
ATOM     30  O   UNL     1      46.499   2.913  17.437  0.00  0.00    +0.000 OA
ATOM     31  H   UNL     1      48.712   4.428  19.148  0.00  0.00    +0.000 HD
ATOM     32  H   UNL     1      47.660   3.117  19.552  0.00  0.00    +0.000 HD
ENDBRANCH  24  28
ENDBRANCH  19  27
ENDBRANCH  18  19
ENDBRANCH   1  18
TORSDOF 6
ENDMDL
MODEL 5
REMARK VINA RESULT:    -7.795      2.370      3.242
REMARK INTER + INTRA:         -11.779
REMARK INTER:                 -10.539
REMARK INTRA:                  -1.240
REMARK UNBOUND:                -1.250
REMARK  Name = 
REMARK  7 active torsions:
REMARK  status: ('A' for Active; 'I' for Inactive)
REMARK    1  A    between atoms: C_1  and  C_2
REMARK    2  A    between atoms: C_4  and  C_5
REMARK    3  A    between atoms: C_10  and  N_11
REMARK    4  A    between atoms: N_11  and  C_12
REMARK    5  A    between atoms: C_12  and  C_13
REMARK    6  A    between atoms: C_18  and  C_19
REMARK    7  A    between atoms: C_23  and  C_24
REMARK                            x       y       z     vdW  Elec       q    Type
REMARK                         _______ _______ _______ _____ _____    ______ ____
ROOT
ATOM      1  C   UNL     1      44.531   4.164  12.019  0.00  0.00    +0.000 A 
ATOM      2  C   UNL     1      43.425   5.011  11.905  0.00  0.00    +0.000 A 
ATOM      3  C   UNL     1      43.583   6.385  12.075  0.00  0.00    +0.000 A 
ATOM      4  C   UNL     1      44.839   6.913  12.380  0.00  0.00    +0.000 A 
ATOM      5  F   UNL     1      44.928   8.245  12.529  0.00  0.00    +0.000 F 
ATOM      6  C   UNL     1      45.975   6.100  12.525  0.00  0.00    +0.000 A 
ATOM      7  C   UNL     1      45.785   4.715  12.338  0.00  0.00    +0.000 A 
ENDROOT
BRANCH   6   8
ATOM      8  C   UNL     1      47.328   6.635  12.816  0.00  0.00    +0.000 A 
ATOM      9  C   UNL     1      48.069   7.304  11.824  0.00  0.00    +0.000 A 
ATOM     10  C   UNL     1      49.312   7.879  12.097  0.00  0.00    +0.000 A 
ATOM     11  C   UNL     1      49.855   7.790  13.374  0.00  0.00    +0.000 A 
ATOM     12  C   UNL     1      49.158   7.123  14.389  0.00  0.00    +0.000 A 
ATOM     13  C   UNL     1      47.906   6.546  14.096  0.00  0.00    +0.000 A 
BRANCH  12  14
ATOM     14  C   UNL     1      49.714   7.041  15.789  0.00  0.00    +0.000 C 
ATOM     15  F   UNL     1      49.918   8.258  16.366  0.00  0.00    +0.000 F 
ATOM     16  F   UNL     1      48.889   6.364  16.636  0.00  0.00    +0.000 F 
ATOM     17  F   UNL     1      50.914   6.398  15.842  0.00  0.00    +0.000 F 
ENDBRANCH  12  14
ENDBRANCH   6   8
BRANCH   1  18
ATOM     18  C   UNL     1      44.409   2.692  11.711  0.00  0.00    +0.000 C 
BRANCH  18  19
ATOM     19  N   UNL     1      44.121   2.431  10.330  0.00  0.00    +0.000 N 
ATOM     20  H   UNL     1      43.193   2.130  10.064  0.00  0.00    +0.000 HD
BRANCH  19  27
ATOM     21  C   UNL     1      44.947   5.058   8.915  0.00  0.00    +0.000 C 
ATOM     22  C   UNL     1      45.396   3.662   8.597  0.00  0.00    +0.000 A 
ATOM     23  C   UNL     1      46.295   3.530   7.522  0.00  0.00    +0.000 A 
ATOM     24  C   UNL     1      46.782   2.288   7.133  0.00  0.00    +0.000 A 
ATOM     25  C   UNL     1      46.338   1.204   7.862  0.00  0.00    +0.000 A 
ATOM     26  N   UNL     1      45.468   1.291   8.907  0.00  0.00    +0.000 NA
ATOM     27  C   UNL     1      44.992   2.504   9.276  0.00  0.00    +0.000 A 
BRANCH  24  28
ATOM     28  C   UNL     1      47.724   2.221   5.989  0.00  0.00    +0.000 C 
ATOM     29  N   UNL     1      47.674   3.184   5.022  0.00  0.00    +0.000 N 
ATOM     30  O   UNL     1      48.549   1.315   5.898  0.00  0.00    +0.000 OA
ATOM     31  H   UNL     1      47.048   3.972   5.000  0.00  0.00    +0.000 HD
ATOM     32  H   UNL     1      48.342   3.092   4.266  0.00  0.00    +0.000 HD
ENDBRANCH  24  28
ENDBRANCH  19  27
ENDBRANCH  18  19
ENDBRANCH   1  18
TORSDOF 6
ENDMDL
MODEL 6
REMARK VINA RESULT:    -7.687      5.185      7.961
REMARK INTER + INTRA:         -11.633
REMARK INTER:                 -10.196
REMARK INTRA:                  -1.437
REMARK UNBOUND:                -1.250
REMARK  Name = 
REMARK  7 active torsions:
REMARK  status: ('A' for Active; 'I' for Inactive)
REMARK    1  A    between atoms: C_1  and  C_2
REMARK    2  A    between atoms: C_4  and  C_5
REMARK    3  A    between atoms: C_10  and  N_11
REMARK    4  A    between atoms: N_11  and  C_12
REMARK    5  A    between atoms: C_12  and  C_13
REMARK    6  A    between atoms: C_18  and  C_19
REMARK    7  A    between atoms: C_23  and  C_24
REMARK                            x       y       z     vdW  Elec       q    Type
REMARK                         _______ _______ _______ _____ _____    ______ ____
ROOT
ATOM      1  C   UNL     1      46.927   8.143  13.043  0.00  0.00    +0.000 A 
ATOM      2  C   UNL     1      46.094   9.256  12.901  0.00  0.00    +0.000 A 
ATOM      3  C   UNL     1      44.921   9.155  12.159  0.00  0.00    +0.000 A 
ATOM      4  C   UNL     1      44.585   7.949  11.539  0.00  0.00    +0.000 A 
ATOM      5  F   UNL     1      43.440   7.913  10.840  0.00  0.00    +0.000 F 
ATOM      6  C   UNL     1      45.401   6.809  11.637  0.00  0.00    +0.000 A 
ATOM      7  C   UNL     1      46.578   6.941  12.403  0.00  0.00    +0.000 A 
ENDROOT
BRANCH   6   8
ATOM      8  C   UNL     1      45.055   5.506  11.018  0.00  0.00    +0.000 A 
ATOM      9  C   UNL     1      44.077   4.671  11.590  0.00  0.00    +0.000 A 
ATOM     10  C   UNL     1      43.684   3.475  10.984  0.00  0.00    +0.000 A 
ATOM     11  C   UNL     1      44.271   3.075   9.788  0.00  0.00    +0.000 A 
ATOM     12  C   UNL     1      45.257   3.869   9.189  0.00  0.00    +0.000 A 
ATOM     13  C   UNL     1      45.644   5.071   9.816  0.00  0.00    +0.000 A 
BRANCH  12  14
ATOM     14  C   UNL     1      45.885   3.470   7.878  0.00  0.00    +0.000 C 
ATOM     15  F   UNL     1      44.984   3.322   6.865  0.00  0.00    +0.000 F 
ATOM     16  F   UNL     1      46.791   4.386   7.435  0.00  0.00    +0.000 F 
ATOM     17  F   UNL     1      46.556   2.287   7.953  0.00  0.00    +0.000 F 
ENDBRANCH  12  14
ENDBRANCH   6   8
BRANCH   1  18
ATOM     18  C   UNL     1      48.133   8.192  13.948  0.00  0.00    +0.000 C 
BRANCH  18  19
ATOM     19  N   UNL     1      48.664   6.893  14.245  0.00  0.00    +0.000 N 
ATOM     20  H   UNL     1      49.117   6.362  13.513  0.00  0.00    +0.000 HD
BRANCH  19  27
ATOM     21  C   UNL     1      46.934   4.379  14.767  0.00  0.00    +0.000 C 
ATOM     22  C   UNL     1      47.834   5.093  15.733  0.00  0.00    +0.000 A 
ATOM     23  C   UNL     1      47.894   4.559  17.035  0.00  0.00    +0.000 A 
ATOM     24  C   UNL     1      48.692   5.133  18.017  0.00  0.00    +0.000 A 
ATOM     25  C   UNL     1      49.419   6.244  17.640  0.00  0.00    +0.000 A 
ATOM     26  N   UNL     1      49.387   6.790  16.392  0.00  0.00    +0.000 NA
ATOM     27  C   UNL     1      48.601   6.228  15.441  0.00  0.00    +0.000 A 
BRANCH  24  28
ATOM     28  C   UNL     1      48.705   4.521  19.368  0.00  0.00    +0.000 C 
ATOM     29  N   UNL     1      48.340   3.214  19.516  0.00  0.00    +0.000 N 
ATOM     30  O   UNL     1      49.040   5.171  20.356  0.00  0.00    +0.000 OA
ATOM     31  H   UNL     1      48.057   2.589  18.779  0.00  0.00    +0.000 HD
ATOM     32  H   UNL     1      48.370   2.846  20.460  0.00  0.00    +0.000 HD
ENDBRANCH  24  28
ENDBRANCH  19  27
ENDBRANCH  18  19
ENDBRANCH   1  18
TORSDOF 6
ENDMDL
MODEL 7
REMARK VINA RESULT:    -7.473      1.593      2.248
REMARK INTER + INTRA:         -11.345
REMARK INTER:                 -10.136
REMARK INTRA:                  -1.209
REMARK UNBOUND:                -1.250
REMARK  Name = 
REMARK  7 active torsions:
REMARK  status: ('A' for Active; 'I' for Inactive)
REMARK    1  A    between atoms: C_1  and  C_2
REMARK    2  A    between atoms: C_4  and  C_5
REMARK    3  A    between atoms: C_10  and  N_11
REMARK    4  A    between atoms: N_11  and  C_12
REMARK    5  A    between atoms: C_12  and  C_13
REMARK    6  A    between atoms: C_18  and  C_19
REMARK    7  A    between atoms: C_23  and  C_24
REMARK                            x       y       z     vdW  Elec       q    Type
REMARK                         _______ _______ _______ _____ _____    ______ ____
ROOT
ATOM      1  C   UNL     1      45.549   6.884  11.782  0.00  0.00    +0.000 A 
ATOM      2  C   UNL     1      44.765   8.041  11.756  0.00  0.00    +0.000 A 
ATOM      3  C   UNL     1      45.358   9.286  11.946  0.00  0.00    +0.000 A 
ATOM      4  C   UNL     1      46.731   9.380  12.185  0.00  0.00    +0.000 A 
ATOM      5  F   UNL     1      47.244  10.608  12.359  0.00  0.00    +0.000 F 
ATOM      6  C   UNL     1      47.557   8.244  12.241  0.00  0.00    +0.000 A 
ATOM      7  C   UNL     1      46.928   6.999  12.034  0.00  0.00    +0.000 A 
ENDROOT
BRANCH   6   8
ATOM      8  C   UNL     1      49.022   8.314  12.459  0.00  0.00    +0.000 A 
ATOM      9  C   UNL     1      49.553   8.501  13.749  0.00  0.00    +0.000 A 
ATOM     10  C   UNL     1      50.930   8.495  13.986  0.00  0.00    +0.000 A 
ATOM     11  C   UNL     1      51.817   8.312  12.931  0.00  0.00    +0.000 A 
ATOM     12  C   UNL     1      51.334   8.134  11.629  0.00  0.00    +0.000 A 
ATOM     13  C   UNL     1      49.942   8.146  11.407  0.00  0.00    +0.000 A 
BRANCH  12  14
ATOM     14  C   UNL     1      52.277   7.904  10.475  0.00  0.00    +0.000 C 
ATOM     15  F   UNL     1      53.577   7.756  10.856  0.00  0.00    +0.000 F 
ATOM     16  F   UNL     1      51.969   6.780   9.769  0.00  0.00    +0.000 F 
ATOM     17  F   UNL     1      52.267   8.926   9.574  0.00  0.00    +0.000 F 
ENDBRANCH  12  14
ENDBRANCH   6   8
BRANCH   1  18
ATOM     18  C   UNL     1      44.952   5.540  11.448  0.00  0.00    +0.000 C 
BRANCH  18  19
ATOM     19  N   UNL     1      44.683   5.378  10.048  0.00  0.00    +0.000 N 
ATOM     20  H   UNL     1      43.925   5.898   9.625  0.00  0.00    +0.000 HD
BRANCH  19  27
ATOM     21  C   UNL     1      44.107   2.350   9.769  0.00  0.00    +0.000 C 
ATOM     22  C   UNL     1      45.109   3.169   9.011  0.00  0.00    +0.000 A 
ATOM     23  C   UNL     1      45.886   2.475   8.062  0.00  0.00    +0.000 A 
ATOM     24  C   UNL     1      46.847   3.126   7.298  0.00  0.00    +0.000 A 
ATOM     25  C   UNL     1      46.988   4.481   7.520  0.00  0.00    +0.000 A 
ATOM     26  N   UNL     1      46.257   5.186   8.428  0.00  0.00    +0.000 NA
ATOM     27  C   UNL     1      45.326   4.544   9.174  0.00  0.00    +0.000 A 
BRANCH  24  28
ATOM     28  C   UNL     1      47.632   2.333   6.320  0.00  0.00    +0.000 C 
ATOM     29  N   UNL     1      47.653   2.716   5.010  0.00  0.00    +0.000 N 
ATOM     30  O   UNL     1      48.264   1.340   6.671  0.00  0.00    +0.000 OA
ATOM     31  H   UNL     1      47.182   3.514   4.616  0.00  0.00    +0.000 HD
ATOM     32  H   UNL     1      48.208   2.142   4.386  0.00  0.00    +0.000 HD
ENDBRANCH  24  28
ENDBRANCH  19  27
ENDBRANCH  18  19
ENDBRANCH   1  18
TORSDOF 6
ENDMDL
MODEL 8
REMARK VINA RESULT:    -7.394      1.902      2.812
REMARK INTER + INTRA:         -11.238
REMARK INTER:                 -10.027
REMARK INTRA:                  -1.211
REMARK UNBOUND:                -1.250
REMARK  Name = 
REMARK  7 active torsions:
REMARK  status: ('A' for Active; 'I' for Inactive)
REMARK    1  A    between atoms: C_1  and  C_2
REMARK    2  A    between atoms: C_4  and  C_5
REMARK    3  A    between atoms: C_10  and  N_11
REMARK    4  A    between atoms: N_11  and  C_12
REMARK    5  A    between atoms: C_12  and  C_13
REMARK    6  A    between atoms: C_18  and  C_19
REMARK    7  A    between atoms: C_23  and  C_24
REMARK                            x       y       z     vdW  Elec       q    Type
REMARK                         _______ _______ _______ _____ _____    ______ ____
ROOT
ATOM      1  C   UNL     1      44.457   3.903  12.142  0.00  0.00    +0.000 A 
ATOM      2  C   UNL     1      43.349   4.734  11.956  0.00  0.00    +0.000 A 
ATOM      3  C   UNL     1      43.460   6.102  12.193  0.00  0.00    +0.000 A 
ATOM      4  C   UNL     1      44.670   6.641  12.635  0.00  0.00    +0.000 A 
ATOM      5  F   UNL     1      44.715   7.967  12.843  0.00  0.00    +0.000 F 
ATOM      6  C   UNL     1      45.805   5.843  12.855  0.00  0.00    +0.000 A 
ATOM      7  C   UNL     1      45.663   4.463  12.598  0.00  0.00    +0.000 A 
ENDROOT
BRANCH   6   8
ATOM      8  C   UNL     1      47.112   6.390  13.292  0.00  0.00    +0.000 A 
ATOM      9  C   UNL     1      47.720   5.949  14.483  0.00  0.00    +0.000 A 
ATOM     10  C   UNL     1      48.984   6.397  14.874  0.00  0.00    +0.000 A 
ATOM     11  C   UNL     1      49.673   7.312  14.087  0.00  0.00    +0.000 A 
ATOM     12  C   UNL     1      49.102   7.787  12.900  0.00  0.00    +0.000 A 
ATOM     13  C   UNL     1      47.825   7.328  12.521  0.00  0.00    +0.000 A 
BRANCH  12  14
ATOM     14  C   UNL     1      49.844   8.757  12.015  0.00  0.00    +0.000 C 
ATOM     15  F   UNL     1      51.043   8.283  11.573  0.00  0.00    +0.000 F 
ATOM     16  F   UNL     1      49.140   9.081  10.894  0.00  0.00    +0.000 F 
ATOM     17  F   UNL     1      50.118   9.937  12.638  0.00  0.00    +0.000 F 
ENDBRANCH  12  14
ENDBRANCH   6   8
BRANCH   1  18
ATOM     18  C   UNL     1      44.398   2.443  11.767  0.00  0.00    +0.000 C 
BRANCH  18  19
ATOM     19  N   UNL     1      44.090   2.232  10.382  0.00  0.00    +0.000 N 
ATOM     20  H   UNL     1      43.167   1.910  10.121  0.00  0.00    +0.000 HD
BRANCH  19  27
ATOM     21  C   UNL     1      44.688   4.929   8.983  0.00  0.00    +0.000 C 
ATOM     22  C   UNL     1      45.237   3.574   8.643  0.00  0.00    +0.000 A 
ATOM     23  C   UNL     1      46.127   3.522   7.552  0.00  0.00    +0.000 A 
ATOM     24  C   UNL     1      46.701   2.325   7.142  0.00  0.00    +0.000 A 
ATOM     25  C   UNL     1      46.353   1.203   7.866  0.00  0.00    +0.000 A 
ATOM     26  N   UNL     1      45.496   1.212   8.925  0.00  0.00    +0.000 NA
ATOM     27  C   UNL     1      44.935   2.383   9.315  0.00  0.00    +0.000 A 
BRANCH  24  28
ATOM     28  C   UNL     1      47.626   2.342   5.983  0.00  0.00    +0.000 C 
ATOM     29  N   UNL     1      47.480   3.302   5.022  0.00  0.00    +0.000 N 
ATOM     30  O   UNL     1      48.523   1.509   5.875  0.00  0.00    +0.000 OA
ATOM     31  H   UNL     1      46.789   4.034   5.014  0.00  0.00    +0.000 HD
ATOM     32  H   UNL     1      48.141   3.269   4.255  0.00  0.00    +0.000 HD
ENDBRANCH  24  28
ENDBRANCH  19  27
ENDBRANCH  18  19
ENDBRANCH   1  18
TORSDOF 6
ENDMDL
MODEL 9
REMARK VINA RESULT:    -6.597      5.693      8.952
REMARK INTER + INTRA:         -10.160
REMARK INTER:                  -8.978
REMARK INTRA:                  -1.182
REMARK UNBOUND:                -1.250
REMARK  Name = 
REMARK  7 active torsions:
REMARK  status: ('A' for Active; 'I' for Inactive)
REMARK    1  A    between atoms: C_1  and  C_2
REMARK    2  A    between atoms: C_4  and  C_5
REMARK    3  A    between atoms: C_10  and  N_11
REMARK    4  A    between atoms: N_11  and  C_12
REMARK    5  A    between atoms: C_12  and  C_13
REMARK    6  A    between atoms: C_18  and  C_19
REMARK    7  A    between atoms: C_23  and  C_24
REMARK                            x       y       z     vdW  Elec       q    Type
REMARK                         _______ _______ _______ _____ _____    ______ ____
ROOT
ATOM      1  C   UNL     1      47.301   8.208  12.539  0.00  0.00    +0.000 A 
ATOM      2  C   UNL     1      46.527   9.331  12.235  0.00  0.00    +0.000 A 
ATOM      3  C   UNL     1      45.226   9.170  11.764  0.00  0.00    +0.000 A 
ATOM      4  C   UNL     1      44.703   7.889  11.574  0.00  0.00    +0.000 A 
ATOM      5  F   UNL     1      43.442   7.799  11.121  0.00  0.00    +0.000 F 
ATOM      6  C   UNL     1      45.450   6.730  11.847  0.00  0.00    +0.000 A 
ATOM      7  C   UNL     1      46.760   6.927  12.332  0.00  0.00    +0.000 A 
ENDROOT
BRANCH   6   8
ATOM      8  C   UNL     1      44.911   5.358  11.688  0.00  0.00    +0.000 A 
ATOM      9  C   UNL     1      44.073   4.792  12.667  0.00  0.00    +0.000 A 
ATOM     10  C   UNL     1      43.496   3.531  12.503  0.00  0.00    +0.000 A 
ATOM     11  C   UNL     1      43.751   2.793  11.352  0.00  0.00    +0.000 A 
ATOM     12  C   UNL     1      44.587   3.312  10.356  0.00  0.00    +0.000 A 
ATOM     13  C   UNL     1      45.165   4.585  10.540  0.00  0.00    +0.000 A 
BRANCH  12  14
ATOM     14  C   UNL     1      44.854   2.542   9.087  0.00  0.00    +0.000 C 
ATOM     15  F   UNL     1      44.310   1.292   9.084  0.00  0.00    +0.000 F 
ATOM     16  F   UNL     1      44.349   3.166   7.985  0.00  0.00    +0.000 F 
ATOM     17  F   UNL     1      46.183   2.370   8.844  0.00  0.00    +0.000 F 
ENDBRANCH  12  14
ENDBRANCH   6   8
BRANCH   1  18
ATOM     18  C   UNL     1      48.662   8.358  13.173  0.00  0.00    +0.000 C 
BRANCH  18  19
ATOM     19  N   UNL     1      48.835   7.528  14.331  0.00  0.00    +0.000 N 
ATOM     20  H   UNL     1      49.107   6.561  14.212  0.00  0.00    +0.000 HD
BRANCH  19  27
ATOM     21  C   UNL     1      49.201   5.618  16.739  0.00  0.00    +0.000 C 
ATOM     22  C   UNL     1      48.780   7.057  16.763  0.00  0.00    +0.000 A 
ATOM     23  C   UNL     1      48.512   7.604  18.033  0.00  0.00    +0.000 A 
ATOM     24  C   UNL     1      48.114   8.927  18.184  0.00  0.00    +0.000 A 
ATOM     25  C   UNL     1      48.004   9.665  17.023  0.00  0.00    +0.000 A 
ATOM     26  N   UNL     1      48.252   9.173  15.777  0.00  0.00    +0.000 NA
ATOM     27  C   UNL     1      48.634   7.880  15.638  0.00  0.00    +0.000 A 
BRANCH  24  28
ATOM     28  C   UNL     1      47.845   9.436  19.551  0.00  0.00    +0.000 C 
ATOM     29  N   UNL     1      47.418   8.570  20.516  0.00  0.00    +0.000 N 
ATOM     30  O   UNL     1      48.003  10.622  19.828  0.00  0.00    +0.000 OA
ATOM     31  H   UNL     1      47.264   7.582  20.403  0.00  0.00    +0.000 HD
ATOM     32  H   UNL     1      47.253   8.971  21.432  0.00  0.00    +0.000 HD
ENDBRANCH  24  28
ENDBRANCH  19  27
ENDBRANCH  18  19
ENDBRANCH   1  18
TORSDOF 6
ENDMDL
