MODEL 1
REMARK VINA RESULT:    -8.327      0.000      0.000
REMARK INTER + INTRA:         -12.080
REMARK INTER:                 -11.248
REMARK INTRA:                  -0.832
REMARK UNBOUND:                -0.832
REMARK  Name = 
REMARK  6 active torsions:
REMARK  status: ('A' for Active; 'I' for Inactive)
REMARK    1  A    between atoms: C_2  and  C_25
REMARK    2  A    between atoms: N_3  and  C_4
REMARK    3  A    between atoms: C_4  and  C_5
REMARK    4  A    between atoms: C_8  and  C_9
REMARK    5  A    between atoms: C_9  and  N_10
REMARK    6  A    between atoms: C_11  and  C_13
REMARK                            x       y       z     vdW  Elec       q    Type
REMARK                         _______ _______ _______ _____ _____    ______ ____
ROOT
ATOM      1  C   UNL     1      44.962   4.669  12.256  0.00  0.00    +0.000 A 
ATOM      2  C   UNL     1      44.504   5.975  12.091  0.00  0.00    +0.000 A 
ATOM      3  C   UNL     1      45.273   7.029  12.582  0.00  0.00    +0.000 A 
ATOM      4  C   UNL     1      46.469   6.765  13.249  0.00  0.00    +0.000 A 
ATOM      5  C   UNL     1      46.848   5.432  13.366  0.00  0.00    +0.000 A 
ATOM      6  N   UNL     1      46.124   4.387  12.897  0.00  0.00    +0.000 NA
ENDROOT
BRANCH   1   7
ATOM      7  C   UNL     1      44.162   3.512  11.703  0.00  0.00    +0.000 C 
BRANCH   7  10
ATOM      8  O   UNL     1      44.152   4.364   9.029  0.00  0.00    +0.000 OA
ATOM      9  C   UNL     1      44.815   3.377   9.336  0.00  0.00    +0.000 C 
ATOM     10  N   UNL     1      44.823   2.838  10.607  0.00  0.00    +0.000 N 
ATOM     11  H   UNL     1      45.519   2.123  10.803  0.00  0.00    +0.000 HD
BRANCH   9  12
ATOM     12  C   UNL     1      45.679   2.685   8.325  0.00  0.00    +0.000 A 
ATOM     13  C   UNL     1      46.076   3.379   7.187  0.00  0.00    +0.000 A 
ATOM     14  C   UNL     1      46.859   2.719   6.247  0.00  0.00    +0.000 A 
ATOM     15  C   UNL     1      47.215   1.392   6.473  0.00  0.00    +0.000 A 
ATOM     16  C   UNL     1      46.778   0.781   7.639  0.00  0.00    +0.000 A 
ATOM     17  N   UNL     1      46.018   1.389   8.578  0.00  0.00    +0.000 NA
ENDBRANCH   9  12
ENDBRANCH   7  10
ENDBRANCH   1   7
BRANCH   4  18
ATOM     18  C   UNL     1      47.338   7.872  13.771  0.00  0.00    +0.000 C 
BRANCH  18  19
ATOM     19  N   UNL     1      47.901   7.522  15.053  0.00  0.00    +0.000 N 
ATOM     20  C   UNL     1      49.194   7.082  15.178  0.00  0.00    +0.000 C 
ATOM     21  O   UNL     1      49.957   7.016  14.217  0.00  0.00    +0.000 OA
ATOM     22  H   UNL     1      47.244   7.329  15.799  0.00  0.00    +0.000 HD
BRANCH  20  23
ATOM     23  C   UNL     1      49.639   6.760  16.540  0.00  0.00    +0.000 A 
ATOM     24  C   UNL     1      50.699   7.457  17.106  0.00  0.00    +0.000 A 
ATOM     25  S   UNL     1      51.023   7.013  18.722  0.00  0.00    +0.000 S 
ATOM     26  C   UNL     1      49.797   5.833  18.703  0.00  0.00    +0.000 A 
ATOM     27  N   UNL     1      49.548   5.064  19.796  0.00  0.00    +0.000 NA
ATOM     28  C   UNL     1      48.612   4.189  19.631  0.00  0.00    +0.000 A 
ATOM     29  N   UNL     1      47.903   4.013  18.471  0.00  0.00    +0.000 N 
ATOM     30  C   UNL     1      48.107   4.779  17.350  0.00  0.00    +0.000 A 
ATOM     31  O   UNL     1      47.439   4.612  16.334  0.00  0.00    +0.000 OA
ATOM     32  C   UNL     1      49.147   5.782  17.483  0.00  0.00    +0.000 A 
ATOM     33  H   UNL     1      47.182   3.310  18.407  0.00  0.00    +0.000 HD
ENDBRANCH  20  23
ENDBRANCH  18  19
ENDBRANCH   4  18
TORSDOF 6
ENDMDL
MODEL 2
REMARK VINA RESULT:    -8.001      1.257      1.475
REMARK INTER + INTRA:         -11.639
REMARK INTER:                 -10.617
REMARK INTRA:                  -1.023
REMARK UNBOUND:                -0.832
REMARK  Name = 
REMARK  6 active torsions:
REMARK  status: ('A' for Active; 'I' for Inactive)
REMARK    1  A    between atoms: C_2  and  C_25
REMARK    2  A    between atoms: N_3  and  C_4
REMARK    3  A    between atoms: C_4  and  C_5
REMARK    4  A    between atoms: C_8  and  C_9
REMARK    5  A    between atoms: C_9  and  N_10
REMARK    6  A    between atoms: C_11  and  C_13
REMARK                            x       y       z     vdW  Elec       q    Type
REMARK                         _______ _______ _______ _____ _____    ______ ____
ROOT
ATOM      1  C   UNL     1      45.357   6.418  11.531  0.00  0.00    +0.000 A 
ATOM      2  C   UNL     1      46.698   6.126  11.774  0.00  0.00    +0.000 A 
ATOM      3  C   UNL     1      47.438   6.972  12.598  0.00  0.00    +0.000 A 
ATOM      4  C   UNL     1      46.838   8.107  13.146  0.00  0.00    +0.000 A 
ATOM      5  C   UNL     1      45.496   8.318  12.851  0.00  0.00    +0.000 A 
ATOM      6  N   UNL     1      44.751   7.513  12.056  0.00  0.00    +0.000 NA
ENDROOT
BRANCH   1   7
ATOM      7  C   UNL     1      44.526   5.497  10.668  0.00  0.00    +0.000 C 
BRANCH   7  10
ATOM      8  O   UNL     1      43.880   2.898   9.829  0.00  0.00    +0.000 OA
ATOM      9  C   UNL     1      44.882   3.440   9.370  0.00  0.00    +0.000 C 
ATOM     10  N   UNL     1      45.322   4.683   9.777  0.00  0.00    +0.000 N 
ATOM     11  H   UNL     1      46.065   5.113   9.232  0.00  0.00    +0.000 HD
BRANCH   9  12
ATOM     12  C   UNL     1      45.704   2.766   8.312  0.00  0.00    +0.000 A 
ATOM     13  C   UNL     1      46.033   3.472   7.160  0.00  0.00    +0.000 A 
ATOM     14  C   UNL     1      46.777   2.828   6.178  0.00  0.00    +0.000 A 
ATOM     15  C   UNL     1      47.163   1.506   6.378  0.00  0.00    +0.000 A 
ATOM     16  C   UNL     1      46.795   0.883   7.560  0.00  0.00    +0.000 A 
ATOM     17  N   UNL     1      46.075   1.474   8.541  0.00  0.00    +0.000 NA
ENDBRANCH   9  12
ENDBRANCH   7  10
ENDBRANCH   1   7
BRANCH   4  18
ATOM     18  C   UNL     1      47.592   9.030  14.057  0.00  0.00    +0.000 C 
BRANCH  18  19
ATOM     19  N   UNL     1      47.907   8.377  15.304  0.00  0.00    +0.000 N 
ATOM     20  C   UNL     1      49.196   8.061  15.649  0.00  0.00    +0.000 C 
ATOM     21  O   UNL     1      50.155   8.366  14.943  0.00  0.00    +0.000 OA
ATOM     22  H   UNL     1      47.145   7.902  15.772  0.00  0.00    +0.000 HD
BRANCH  20  23
ATOM     23  C   UNL     1      49.375   7.398  16.948  0.00  0.00    +0.000 A 
ATOM     24  C   UNL     1      49.992   8.074  17.992  0.00  0.00    +0.000 A 
ATOM     25  S   UNL     1      50.036   7.186  19.449  0.00  0.00    +0.000 S 
ATOM     26  C   UNL     1      49.285   5.844  18.719  0.00  0.00    +0.000 A 
ATOM     27  N   UNL     1      49.032   4.712  19.428  0.00  0.00    +0.000 NA
ATOM     28  C   UNL     1      48.488   3.763  18.742  0.00  0.00    +0.000 A 
ATOM     29  N   UNL     1      48.174   3.844  17.410  0.00  0.00    +0.000 N 
ATOM     30  C   UNL     1      48.394   4.973  16.660  0.00  0.00    +0.000 A 
ATOM     31  O   UNL     1      48.079   5.022  15.474  0.00  0.00    +0.000 OA
ATOM     32  C   UNL     1      49.001   6.073  17.385  0.00  0.00    +0.000 A 
ATOM     33  H   UNL     1      47.748   3.065  16.930  0.00  0.00    +0.000 HD
ENDBRANCH  20  23
ENDBRANCH  18  19
ENDBRANCH   4  18
TORSDOF 6
ENDMDL
MODEL 3
REMARK VINA RESULT:    -7.410      3.106      8.880
REMARK INTER + INTRA:         -10.841
REMARK INTER:                  -9.850
REMARK INTRA:                  -0.991
REMARK UNBOUND:                -0.832
REMARK  Name = 
REMARK  6 active torsions:
REMARK  status: ('A' for Active; 'I' for Inactive)
REMARK    1  A    between atoms: C_2  and  C_25
REMARK    2  A    between atoms: N_3  and  C_4
REMARK    3  A    between atoms: C_4  and  C_5
REMARK    4  A    between atoms: C_8  and  C_9
REMARK    5  A    between atoms: C_9  and  N_10
REMARK    6  A    between atoms: C_11  and  C_13
REMARK                            x       y       z     vdW  Elec       q    Type
REMARK                         _______ _______ _______ _____ _____    ______ ____
ROOT
ATOM      1  C   UNL     1      49.424   7.730  15.432  0.00  0.00    +0.000 A 
ATOM      2  C   UNL     1      48.609   8.846  15.250  0.00  0.00    +0.000 A 
ATOM      3  C   UNL     1      47.811   8.924  14.111  0.00  0.00    +0.000 A 
ATOM      4  C   UNL     1      47.854   7.903  13.160  0.00  0.00    +0.000 A 
ATOM      5  C   UNL     1      48.695   6.827  13.426  0.00  0.00    +0.000 A 
ATOM      6  N   UNL     1      49.480   6.723  14.525  0.00  0.00    +0.000 NA
ENDROOT
BRANCH   1   7
ATOM      7  C   UNL     1      50.273   7.608  16.676  0.00  0.00    +0.000 C 
BRANCH   7  10
ATOM      8  O   UNL     1      49.355   5.638  18.452  0.00  0.00    +0.000 OA
ATOM      9  C   UNL     1      50.283   5.370  17.694  0.00  0.00    +0.000 C 
ATOM     10  N   UNL     1      50.852   6.293  16.840  0.00  0.00    +0.000 N 
ATOM     11  H   UNL     1      51.504   5.940  16.144  0.00  0.00    +0.000 HD
BRANCH   9  12
ATOM     12  C   UNL     1      50.863   3.988  17.648  0.00  0.00    +0.000 A 
ATOM     13  C   UNL     1      52.138   3.772  18.161  0.00  0.00    +0.000 A 
ATOM     14  C   UNL     1      52.672   2.491  18.093  0.00  0.00    +0.000 A 
ATOM     15  C   UNL     1      51.920   1.473  17.514  0.00  0.00    +0.000 A 
ATOM     16  C   UNL     1      50.655   1.779  17.033  0.00  0.00    +0.000 A 
ATOM     17  N   UNL     1      50.099   3.010  17.083  0.00  0.00    +0.000 NA
ENDBRANCH   9  12
ENDBRANCH   7  10
ENDBRANCH   1   7
BRANCH   4  18
ATOM     18  C   UNL     1      46.993   7.937  11.932  0.00  0.00    +0.000 C 
BRANCH  18  19
ATOM     19  N   UNL     1      46.427   6.637  11.665  0.00  0.00    +0.000 N 
ATOM     20  C   UNL     1      45.072   6.431  11.634  0.00  0.00    +0.000 C 
ATOM     21  O   UNL     1      44.269   7.350  11.775  0.00  0.00    +0.000 OA
ATOM     22  H   UNL     1      47.041   5.840  11.795  0.00  0.00    +0.000 HD
BRANCH  20  23
ATOM     23  C   UNL     1      44.632   5.059  11.351  0.00  0.00    +0.000 A 
ATOM     24  C   UNL     1      43.908   4.352  12.302  0.00  0.00    +0.000 A 
ATOM     25  S   UNL     1      43.405   2.810  11.772  0.00  0.00    +0.000 S 
ATOM     26  C   UNL     1      44.188   3.008  10.275  0.00  0.00    +0.000 A 
ATOM     27  N   UNL     1      44.158   2.027   9.333  0.00  0.00    +0.000 NA
ATOM     28  C   UNL     1      44.819   2.299   8.258  0.00  0.00    +0.000 A 
ATOM     29  N   UNL     1      45.509   3.463   8.039  0.00  0.00    +0.000 N 
ATOM     30  C   UNL     1      45.551   4.488   8.952  0.00  0.00    +0.000 A 
ATOM     31  O   UNL     1      46.158   5.528   8.715  0.00  0.00    +0.000 OA
ATOM     32  C   UNL     1      44.819   4.235  10.179  0.00  0.00    +0.000 A 
ATOM     33  H   UNL     1      46.006   3.615   7.174  0.00  0.00    +0.000 HD
ENDBRANCH  20  23
ENDBRANCH  18  19
ENDBRANCH   4  18
TORSDOF 6
ENDMDL
MODEL 4
REMARK VINA RESULT:    -7.407      5.052      9.457
REMARK INTER + INTRA:         -10.837
REMARK INTER:                 -10.011
REMARK INTRA:                  -0.826
REMARK UNBOUND:                -0.832
REMARK  Name = 
REMARK  6 active torsions:
REMARK  status: ('A' for Active; 'I' for Inactive)
REMARK    1  A    between atoms: C_2  and  C_25
REMARK    2  A    between atoms: N_3  and  C_4
REMARK    3  A    between atoms: C_4  and  C_5
REMARK    4  A    between atoms: C_8  and  C_9
REMARK    5  A    between atoms: C_9  and  N_10
REMARK    6  A    between atoms: C_11  and  C_13
REMARK                            x       y       z     vdW  Elec       q    Type
REMARK                         _______ _______ _______ _____ _____    ______ ____
ROOT
ATOM      1  C   UNL     1      51.365   3.322  17.544  0.00  0.00    +0.000 A 
ATOM      2  C   UNL     1      50.682   4.520  17.745  0.00  0.00    +0.000 A 
ATOM      3  C   UNL     1      49.303   4.557  17.542  0.00  0.00    +0.000 A 
ATOM      4  C   UNL     1      48.633   3.409  17.118  0.00  0.00    +0.000 A 
ATOM      5  C   UNL     1      49.395   2.259  16.944  0.00  0.00    +0.000 A 
ATOM      6  N   UNL     1      50.734   2.192  17.136  0.00  0.00    +0.000 NA
ENDROOT
BRANCH   1   7
ATOM      7  C   UNL     1      52.854   3.249  17.791  0.00  0.00    +0.000 C 
BRANCH   7  10
ATOM      8  O   UNL     1      54.185   1.642  19.666  0.00  0.00    +0.000 OA
ATOM      9  C   UNL     1      53.987   1.200  18.538  0.00  0.00    +0.000 C 
ATOM     10  N   UNL     1      53.409   1.940  17.527  0.00  0.00    +0.000 N 
ATOM     11  H   UNL     1      53.144   1.443  16.681  0.00  0.00    +0.000 HD
BRANCH   9  12
ATOM     12  C   UNL     1      54.366  -0.208  18.186  0.00  0.00    +0.000 A 
ATOM     13  C   UNL     1      54.792  -0.490  16.893  0.00  0.00    +0.000 A 
ATOM     14  C   UNL     1      55.119  -1.803  16.574  0.00  0.00    +0.000 A 
ATOM     15  C   UNL     1      55.008  -2.786  17.553  0.00  0.00    +0.000 A 
ATOM     16  C   UNL     1      54.580  -2.412  18.818  0.00  0.00    +0.000 A 
ATOM     17  N   UNL     1      54.254  -1.147  19.169  0.00  0.00    +0.000 NA
ENDBRANCH   9  12
ENDBRANCH   7  10
ENDBRANCH   1   7
BRANCH   4  18
ATOM     18  C   UNL     1      47.147   3.400  16.910  0.00  0.00    +0.000 C 
BRANCH  18  19
ATOM     19  N   UNL     1      46.758   4.391  15.937  0.00  0.00    +0.000 N 
ATOM     20  C   UNL     1      46.878   4.167  14.590  0.00  0.00    +0.000 C 
ATOM     21  O   UNL     1      47.268   3.093  14.138  0.00  0.00    +0.000 OA
ATOM     22  H   UNL     1      46.676   5.345  16.269  0.00  0.00    +0.000 HD
BRANCH  20  23
ATOM     23  C   UNL     1      46.444   5.261  13.710  0.00  0.00    +0.000 A 
ATOM     24  C   UNL     1      47.280   6.349  13.493  0.00  0.00    +0.000 A 
ATOM     25  S   UNL     1      46.654   7.480  12.379  0.00  0.00    +0.000 S 
ATOM     26  C   UNL     1      45.218   6.585  12.192  0.00  0.00    +0.000 A 
ATOM     27  N   UNL     1      44.228   7.015  11.365  0.00  0.00    +0.000 NA
ATOM     28  C   UNL     1      43.183   6.255  11.344  0.00  0.00    +0.000 A 
ATOM     29  N   UNL     1      43.040   5.105  12.075  0.00  0.00    +0.000 N 
ATOM     30  C   UNL     1      44.020   4.623  12.907  0.00  0.00    +0.000 A 
ATOM     31  O   UNL     1      43.870   3.576  13.530  0.00  0.00    +0.000 OA
ATOM     32  C   UNL     1      45.219   5.438  12.965  0.00  0.00    +0.000 A 
ATOM     33  H   UNL     1      42.196   4.554  12.013  0.00  0.00    +0.000 HD
ENDBRANCH  20  23
ENDBRANCH  18  19
ENDBRANCH   4  18
TORSDOF 6
ENDMDL
MODEL 5
REMARK VINA RESULT:    -7.359      2.834      4.189
REMARK INTER + INTRA:         -10.772
REMARK INTER:                  -9.921
REMARK INTRA:                  -0.852
REMARK UNBOUND:                -0.832
REMARK  Name = 
REMARK  6 active torsions:
REMARK  status: ('A' for Active; 'I' for Inactive)
REMARK    1  A    between atoms: C_2  and  C_25
REMARK    2  A    between atoms: N_3  and  C_4
REMARK    3  A    between atoms: C_4  and  C_5
REMARK    4  A    between atoms: C_8  and  C_9
REMARK    5  A    between atoms: C_9  and  N_10
REMARK    6  A    between atoms: C_11  and  C_13
REMARK                            x       y       z     vdW  Elec       q    Type
REMARK                         _______ _______ _______ _____ _____    ______ ____
ROOT
ATOM      1  C   UNL     1      44.995   3.812  12.260  0.00  0.00    +0.000 A 
ATOM      2  C   UNL     1      44.871   5.193  12.405  0.00  0.00    +0.000 A 
ATOM      3  C   UNL     1      45.747   5.867  13.253  0.00  0.00    +0.000 A 
ATOM      4  C   UNL     1      46.716   5.153  13.961  0.00  0.00    +0.000 A 
ATOM      5  C   UNL     1      46.767   3.779  13.753  0.00  0.00    +0.000 A 
ATOM      6  N   UNL     1      45.931   3.097  12.934  0.00  0.00    +0.000 NA
ENDROOT
BRANCH   1   7
ATOM      7  C   UNL     1      44.077   3.064  11.320  0.00  0.00    +0.000 C 
BRANCH   7  10
ATOM      8  O   UNL     1      44.511   4.406   8.894  0.00  0.00    +0.000 OA
ATOM      9  C   UNL     1      44.987   3.285   9.047  0.00  0.00    +0.000 C 
ATOM     10  N   UNL     1      44.765   2.517  10.172  0.00  0.00    +0.000 N 
ATOM     11  H   UNL     1      45.325   1.674  10.276  0.00  0.00    +0.000 HD
BRANCH   9  12
ATOM     12  C   UNL     1      45.861   2.670   7.995  0.00  0.00    +0.000 A 
ATOM     13  C   UNL     1      46.148   3.397   6.845  0.00  0.00    +0.000 A 
ATOM     14  C   UNL     1      46.943   2.807   5.868  0.00  0.00    +0.000 A 
ATOM     15  C   UNL     1      47.419   1.516   6.072  0.00  0.00    +0.000 A 
ATOM     16  C   UNL     1      47.087   0.868   7.252  0.00  0.00    +0.000 A 
ATOM     17  N   UNL     1      46.321   1.407   8.227  0.00  0.00    +0.000 NA
ENDBRANCH   9  12
ENDBRANCH   7  10
ENDBRANCH   1   7
BRANCH   4  18
ATOM     18  C   UNL     1      47.694   5.844  14.865  0.00  0.00    +0.000 C 
BRANCH  18  19
ATOM     19  N   UNL     1      48.595   6.676  14.107  0.00  0.00    +0.000 N 
ATOM     20  C   UNL     1      49.017   7.895  14.574  0.00  0.00    +0.000 C 
ATOM     21  O   UNL     1      48.697   8.317  15.682  0.00  0.00    +0.000 OA
ATOM     22  H   UNL     1      48.670   6.479  13.116  0.00  0.00    +0.000 HD
BRANCH  20  23
ATOM     23  C   UNL     1      49.935   8.640  13.700  0.00  0.00    +0.000 A 
ATOM     24  C   UNL     1      49.434   9.378  12.637  0.00  0.00    +0.000 A 
ATOM     25  S   UNL     1      50.630  10.247  11.784  0.00  0.00    +0.000 S 
ATOM     26  C   UNL     1      51.867   9.620  12.770  0.00  0.00    +0.000 A 
ATOM     27  N   UNL     1      53.167   9.962  12.565  0.00  0.00    +0.000 NA
ATOM     28  C   UNL     1      54.002   9.389  13.366  0.00  0.00    +0.000 A 
ATOM     29  N   UNL     1      53.655   8.504  14.353  0.00  0.00    +0.000 N 
ATOM     30  C   UNL     1      52.355   8.144  14.608  0.00  0.00    +0.000 A 
ATOM     31  O   UNL     1      52.075   7.367  15.516  0.00  0.00    +0.000 OA
ATOM     32  C   UNL     1      51.373   8.765  13.738  0.00  0.00    +0.000 A 
ATOM     33  H   UNL     1      54.358   8.090  14.948  0.00  0.00    +0.000 HD
ENDBRANCH  20  23
ENDBRANCH  18  19
ENDBRANCH   4  18
TORSDOF 6
ENDMDL
MODEL 6
REMARK VINA RESULT:    -7.066      1.947      2.530
REMARK INTER + INTRA:         -10.376
REMARK INTER:                  -9.611
REMARK INTRA:                  -0.765
REMARK UNBOUND:                -0.832
REMARK  Name = 
REMARK  6 active torsions:
REMARK  status: ('A' for Active; 'I' for Inactive)
REMARK    1  A    between atoms: C_2  and  C_25
REMARK    2  A    between atoms: N_3  and  C_4
REMARK    3  A    between atoms: C_4  and  C_5
REMARK    4  A    between atoms: C_8  and  C_9
REMARK    5  A    between atoms: C_9  and  N_10
REMARK    6  A    between atoms: C_11  and  C_13
REMARK                            x       y       z     vdW  Elec       q    Type
REMARK                         _______ _______ _______ _____ _____    ______ ____
ROOT
ATOM      1  C   UNL     1      45.317   6.503  11.558  0.00  0.00    +0.000 A 
ATOM      2  C   UNL     1      45.133   7.862  11.805  0.00  0.00    +0.000 A 
ATOM      3  C   UNL     1      45.944   8.496  12.746  0.00  0.00    +0.000 A 
ATOM      4  C   UNL     1      46.905   7.762  13.442  0.00  0.00    +0.000 A 
ATOM      5  C   UNL     1      47.019   6.412  13.130  0.00  0.00    +0.000 A 
ATOM      6  N   UNL     1      46.248   5.770  12.219  0.00  0.00    +0.000 NA
ENDROOT
BRANCH   1   7
ATOM      7  C   UNL     1      44.473   5.802  10.519  0.00  0.00    +0.000 C 
BRANCH   7  10
ATOM      8  O   UNL     1      44.285   3.036  10.083  0.00  0.00    +0.000 OA
ATOM      9  C   UNL     1      45.041   3.699   9.379  0.00  0.00    +0.000 C 
ATOM     10  N   UNL     1      45.258   5.049   9.565  0.00  0.00    +0.000 N 
ATOM     11  H   UNL     1      45.775   5.540   8.841  0.00  0.00    +0.000 HD
BRANCH   9  12
ATOM     12  C   UNL     1      45.788   3.065   8.244  0.00  0.00    +0.000 A 
ATOM     13  C   UNL     1      46.183   1.736   8.353  0.00  0.00    +0.000 A 
ATOM     14  C   UNL     1      46.894   1.167   7.302  0.00  0.00    +0.000 A 
ATOM     15  C   UNL     1      47.187   1.943   6.184  0.00  0.00    +0.000 A 
ATOM     16  C   UNL     1      46.748   3.258   6.160  0.00  0.00    +0.000 A 
ATOM     17  N   UNL     1      46.053   3.847   7.159  0.00  0.00    +0.000 NA
ENDBRANCH   9  12
ENDBRANCH   7  10
ENDBRANCH   1   7
BRANCH   4  18
ATOM     18  C   UNL     1      47.813   8.411  14.445  0.00  0.00    +0.000 C 
BRANCH  18  19
ATOM     19  N   UNL     1      48.289   7.446  15.406  0.00  0.00    +0.000 N 
ATOM     20  C   UNL     1      49.088   7.810  16.459  0.00  0.00    +0.000 C 
ATOM     21  O   UNL     1      49.394   8.980  16.673  0.00  0.00    +0.000 OA
ATOM     22  H   UNL     1      48.266   6.474  15.122  0.00  0.00    +0.000 HD
BRANCH  20  23
ATOM     23  C   UNL     1      49.502   6.727  17.362  0.00  0.00    +0.000 A 
ATOM     24  C   UNL     1      48.616   6.241  18.314  0.00  0.00    +0.000 A 
ATOM     25  S   UNL     1      49.232   4.929  19.215  0.00  0.00    +0.000 S 
ATOM     26  C   UNL     1      50.727   5.003  18.405  0.00  0.00    +0.000 A 
ATOM     27  N   UNL     1      51.733   4.141  18.712  0.00  0.00    +0.000 NA
ATOM     28  C   UNL     1      52.820   4.330  18.041  0.00  0.00    +0.000 A 
ATOM     29  N   UNL     1      52.993   5.303  17.092  0.00  0.00    +0.000 N 
ATOM     30  C   UNL     1      52.000   6.182  16.737  0.00  0.00    +0.000 A 
ATOM     31  O   UNL     1      52.179   7.028  15.865  0.00  0.00    +0.000 OA
ATOM     32  C   UNL     1      50.753   6.010  17.458  0.00  0.00    +0.000 A 
ATOM     33  H   UNL     1      53.870   5.398  16.602  0.00  0.00    +0.000 HD
ENDBRANCH  20  23
ENDBRANCH  18  19
ENDBRANCH   4  18
TORSDOF 6
ENDMDL
MODEL 7
REMARK VINA RESULT:    -6.832      5.221      9.599
REMARK INTER + INTRA:         -10.061
REMARK INTER:                  -9.082
REMARK INTRA:                  -0.979
REMARK UNBOUND:                -0.832
REMARK  Name = 
REMARK  6 active torsions:
REMARK  status: ('A' for Active; 'I' for Inactive)
REMARK    1  A    between atoms: C_2  and  C_25
REMARK    2  A    between atoms: N_3  and  C_4
REMARK    3  A    between atoms: C_4  and  C_5
REMARK    4  A    between atoms: C_8  and  C_9
REMARK    5  A    between atoms: C_9  and  N_10
REMARK    6  A    between atoms: C_11  and  C_13
REMARK                            x       y       z     vdW  Elec       q    Type
REMARK                         _______ _______ _______ _____ _____    ______ ____
ROOT
ATOM      1  C   UNL     1      51.253   2.665  17.683  0.00  0.00    +0.000 A 
ATOM      2  C   UNL     1      50.436   1.759  17.009  0.00  0.00    +0.000 A 
ATOM      3  C   UNL     1      49.108   2.100  16.759  0.00  0.00    +0.000 A 
ATOM      4  C   UNL     1      48.609   3.325  17.204  0.00  0.00    +0.000 A 
ATOM      5  C   UNL     1      49.497   4.166  17.866  0.00  0.00    +0.000 A 
ATOM      6  N   UNL     1      50.792   3.864  18.121  0.00  0.00    +0.000 NA
ENDROOT
BRANCH   1   7
ATOM      7  C   UNL     1      52.705   2.332  17.936  0.00  0.00    +0.000 C 
BRANCH   7  10
ATOM      8  O   UNL     1      55.153   0.981  17.693  0.00  0.00    +0.000 OA
ATOM      9  C   UNL     1      54.183   0.378  18.144  0.00  0.00    +0.000 C 
ATOM     10  N   UNL     1      52.922   0.933  18.231  0.00  0.00    +0.000 N 
ATOM     11  H   UNL     1      52.224   0.416  18.759  0.00  0.00    +0.000 HD
BRANCH   9  12
ATOM     12  C   UNL     1      54.317  -1.030  18.642  0.00  0.00    +0.000 A 
ATOM     13  C   UNL     1      55.498  -1.723  18.402  0.00  0.00    +0.000 A 
ATOM     14  C   UNL     1      55.600  -3.035  18.851  0.00  0.00    +0.000 A 
ATOM     15  C   UNL     1      54.522  -3.608  19.519  0.00  0.00    +0.000 A 
ATOM     16  C   UNL     1      53.385  -2.839  19.719  0.00  0.00    +0.000 A 
ATOM     17  N   UNL     1      53.247  -1.561  19.302  0.00  0.00    +0.000 NA
ENDBRANCH   9  12
ENDBRANCH   7  10
ENDBRANCH   1   7
BRANCH   4  18
ATOM     18  C   UNL     1      47.193   3.740  16.935  0.00  0.00    +0.000 C 
BRANCH  18  19
ATOM     19  N   UNL     1      47.135   4.697  15.856  0.00  0.00    +0.000 N 
ATOM     20  C   UNL     1      47.159   4.306  14.542  0.00  0.00    +0.000 C 
ATOM     21  O   UNL     1      47.174   3.123  14.213  0.00  0.00    +0.000 OA
ATOM     22  H   UNL     1      47.371   5.655  16.087  0.00  0.00    +0.000 HD
BRANCH  20  23
ATOM     23  C   UNL     1      47.093   5.383  13.545  0.00  0.00    +0.000 A 
ATOM     24  C   UNL     1      46.131   5.345  12.545  0.00  0.00    +0.000 A 
ATOM     25  S   UNL     1      46.144   6.717  11.530  0.00  0.00    +0.000 S 
ATOM     26  C   UNL     1      47.475   7.383  12.356  0.00  0.00    +0.000 A 
ATOM     27  N   UNL     1      48.008   8.576  11.978  0.00  0.00    +0.000 NA
ATOM     28  C   UNL     1      49.032   8.947  12.672  0.00  0.00    +0.000 A 
ATOM     29  N   UNL     1      49.572   8.232  13.709  0.00  0.00    +0.000 N 
ATOM     30  C   UNL     1      49.056   7.034  14.137  0.00  0.00    +0.000 A 
ATOM     31  O   UNL     1      49.548   6.430  15.086  0.00  0.00    +0.000 OA
ATOM     32  C   UNL     1      47.899   6.573  13.393  0.00  0.00    +0.000 A 
ATOM     33  H   UNL     1      50.375   8.578  14.213  0.00  0.00    +0.000 HD
ENDBRANCH  20  23
ENDBRANCH  18  19
ENDBRANCH   4  18
TORSDOF 6
ENDMDL
MODEL 8
REMARK VINA RESULT:    -6.683      3.735      5.258
REMARK INTER + INTRA:          -9.859
REMARK INTER:                  -8.759
REMARK INTRA:                  -1.101
REMARK UNBOUND:                -0.832
REMARK  Name = 
REMARK  6 active torsions:
REMARK  status: ('A' for Active; 'I' for Inactive)
REMARK    1  A    between atoms: C_2  and  C_25
REMARK    2  A    between atoms: N_3  and  C_4
REMARK    3  A    between atoms: C_4  and  C_5
REMARK    4  A    between atoms: C_8  and  C_9
REMARK    5  A    between atoms: C_9  and  N_10
REMARK    6  A    between atoms: C_11  and  C_13
REMARK                            x       y       z     vdW  Elec       q    Type
REMARK                         _______ _______ _______ _____ _____    ______ ____
ROOT
ATOM      1  C   UNL     1      45.810   6.597  12.786  0.00  0.00    +0.000 A 
ATOM      2  C   UNL     1      47.072   6.139  13.160  0.00  0.00    +0.000 A 
ATOM      3  C   UNL     1      48.007   7.051  13.646  0.00  0.00    +0.000 A 
ATOM      4  C   UNL     1      47.680   8.406  13.727  0.00  0.00    +0.000 A 
ATOM      5  C   UNL     1      46.397   8.771  13.333  0.00  0.00    +0.000 A 
ATOM      6  N   UNL     1      45.467   7.908  12.861  0.00  0.00    +0.000 NA
ENDROOT
BRANCH   1   7
ATOM      7  C   UNL     1      44.768   5.621  12.289  0.00  0.00    +0.000 C 
BRANCH   7  10
ATOM      8  O   UNL     1      43.404   4.872   9.954  0.00  0.00    +0.000 OA
ATOM      9  C   UNL     1      44.550   4.468  10.129  0.00  0.00    +0.000 C 
ATOM     10  N   UNL     1      45.272   4.719  11.278  0.00  0.00    +0.000 N 
ATOM     11  H   UNL     1      46.260   4.480  11.266  0.00  0.00    +0.000 HD
BRANCH   9  12
ATOM     12  C   UNL     1      45.249   3.659   9.078  0.00  0.00    +0.000 A 
ATOM     13  C   UNL     1      45.317   2.278   9.220  0.00  0.00    +0.000 A 
ATOM     14  C   UNL     1      45.988   1.543   8.248  0.00  0.00    +0.000 A 
ATOM     15  C   UNL     1      46.568   2.211   7.174  0.00  0.00    +0.000 A 
ATOM     16  C   UNL     1      46.446   3.591   7.111  0.00  0.00    +0.000 A 
ATOM     17  N   UNL     1      45.800   4.341   8.033  0.00  0.00    +0.000 NA
ENDBRANCH   9  12
ENDBRANCH   7  10
ENDBRANCH   1   7
BRANCH   4  18
ATOM     18  C   UNL     1      48.649   9.416  14.265  0.00  0.00    +0.000 C 
BRANCH  18  19
ATOM     19  N   UNL     1      49.873   9.412  13.502  0.00  0.00    +0.000 N 
ATOM     20  C   UNL     1      51.034   8.878  14.000  0.00  0.00    +0.000 C 
ATOM     21  O   UNL     1      51.080   8.325  15.097  0.00  0.00    +0.000 OA
ATOM     22  H   UNL     1      49.928  10.064  12.728  0.00  0.00    +0.000 HD
BRANCH  20  23
ATOM     23  C   UNL     1      52.206   8.940  13.117  0.00  0.00    +0.000 A 
ATOM     24  C   UNL     1      53.355   9.598  13.535  0.00  0.00    +0.000 A 
ATOM     25  S   UNL     1      54.645   9.496  12.422  0.00  0.00    +0.000 S 
ATOM     26  C   UNL     1      53.694   8.619  11.316  0.00  0.00    +0.000 A 
ATOM     27  N   UNL     1      54.202   8.216  10.121  0.00  0.00    +0.000 NA
ATOM     28  C   UNL     1      53.362   7.587   9.368  0.00  0.00    +0.000 A 
ATOM     29  N   UNL     1      52.059   7.325   9.703  0.00  0.00    +0.000 N 
ATOM     30  C   UNL     1      51.509   7.696  10.905  0.00  0.00    +0.000 A 
ATOM     31  O   UNL     1      50.345   7.425  11.184  0.00  0.00    +0.000 OA
ATOM     32  C   UNL     1      52.414   8.403  11.792  0.00  0.00    +0.000 A 
ATOM     33  H   UNL     1      51.452   6.827   9.068  0.00  0.00    +0.000 HD
ENDBRANCH  20  23
ENDBRANCH  18  19
ENDBRANCH   4  18
TORSDOF 6
ENDMDL
MODEL 9
REMARK VINA RESULT:    -6.287      1.585      2.660
REMARK INTER + INTRA:          -9.325
REMARK INTER:                  -8.248
REMARK INTRA:                  -1.077
REMARK UNBOUND:                -0.832
REMARK  Name = 
REMARK  6 active torsions:
REMARK  status: ('A' for Active; 'I' for Inactive)
REMARK    1  A    between atoms: C_2  and  C_25
REMARK    2  A    between atoms: N_3  and  C_4
REMARK    3  A    between atoms: C_4  and  C_5
REMARK    4  A    between atoms: C_8  and  C_9
REMARK    5  A    between atoms: C_9  and  N_10
REMARK    6  A    between atoms: C_11  and  C_13
REMARK                            x       y       z     vdW  Elec       q    Type
REMARK                         _______ _______ _______ _____ _____    ______ ____
ROOT
ATOM      1  C   UNL     1      46.744   7.403  13.038  0.00  0.00    +0.000 A 
ATOM      2  C   UNL     1      47.815   6.521  13.170  0.00  0.00    +0.000 A 
ATOM      3  C   UNL     1      48.949   6.933  13.868  0.00  0.00    +0.000 A 
ATOM      4  C   UNL     1      49.008   8.221  14.401  0.00  0.00    +0.000 A 
ATOM      5  C   UNL     1      47.892   9.031  14.222  0.00  0.00    +0.000 A 
ATOM      6  N   UNL     1      46.776   8.659  13.552  0.00  0.00    +0.000 NA
ENDROOT
BRANCH   1   7
ATOM      7  C   UNL     1      45.490   6.968  12.315  0.00  0.00    +0.000 C 
BRANCH   7  10
ATOM      8  O   UNL     1      43.485   5.349  11.203  0.00  0.00    +0.000 OA
ATOM      9  C   UNL     1      44.651   5.169  10.864  0.00  0.00    +0.000 C 
ATOM     10  N   UNL     1      45.713   5.862  11.410  0.00  0.00    +0.000 N 
ATOM     11  H   UNL     1      46.617   5.757  10.957  0.00  0.00    +0.000 HD
BRANCH   9  12
ATOM     12  C   UNL     1      44.998   4.163   9.807  0.00  0.00    +0.000 A 
ATOM     13  C   UNL     1      45.671   4.586   8.666  0.00  0.00    +0.000 A 
ATOM     14  C   UNL     1      45.967   3.646   7.685  0.00  0.00    +0.000 A 
ATOM     15  C   UNL     1      45.580   2.323   7.875  0.00  0.00    +0.000 A 
ATOM     16  C   UNL     1      44.917   1.991   9.047  0.00  0.00    +0.000 A 
ATOM     17  N   UNL     1      44.613   2.873  10.026  0.00  0.00    +0.000 NA
ENDBRANCH   9  12
ENDBRANCH   7  10
ENDBRANCH   1   7
BRANCH   4  18
ATOM     18  C   UNL     1      50.200   8.694  15.179  0.00  0.00    +0.000 C 
BRANCH  18  19
ATOM     19  N   UNL     1      50.270   8.038  16.462  0.00  0.00    +0.000 N 
ATOM     20  C   UNL     1      51.209   7.076  16.731  0.00  0.00    +0.000 C 
ATOM     21  O   UNL     1      52.075   6.762  15.918  0.00  0.00    +0.000 OA
ATOM     22  H   UNL     1      49.442   8.090  17.044  0.00  0.00    +0.000 HD
BRANCH  20  23
ATOM     23  C   UNL     1      51.168   6.489  18.078  0.00  0.00    +0.000 A 
ATOM     24  C   UNL     1      52.282   6.566  18.903  0.00  0.00    +0.000 A 
ATOM     25  S   UNL     1      52.028   5.912  20.458  0.00  0.00    +0.000 S 
ATOM     26  C   UNL     1      50.438   5.449  20.064  0.00  0.00    +0.000 A 
ATOM     27  N   UNL     1      49.649   4.813  20.970  0.00  0.00    +0.000 NA
ATOM     28  C   UNL     1      48.479   4.493  20.528  0.00  0.00    +0.000 A 
ATOM     29  N   UNL     1      48.027   4.751  19.260  0.00  0.00    +0.000 N 
ATOM     30  C   UNL     1      48.781   5.407  18.319  0.00  0.00    +0.000 A 
ATOM     31  O   UNL     1      48.337   5.644  17.199  0.00  0.00    +0.000 OA
ATOM     32  C   UNL     1      50.106   5.794  18.767  0.00  0.00    +0.000 A 
ATOM     33  H   UNL     1      47.098   4.475  18.975  0.00  0.00    +0.000 HD
ENDBRANCH  20  23
ENDBRANCH  18  19
ENDBRANCH   4  18
TORSDOF 6
ENDMDL
