MODEL 1
REMARK VINA RESULT:    -7.673      0.000      0.000
REMARK INTER + INTRA:         -10.911
REMARK INTER:                 -10.140
REMARK INTRA:                  -0.772
REMARK UNBOUND:                -0.772
REMARK  Name = 
REMARK  6 active torsions:
REMARK  status: ('A' for Active; 'I' for Inactive)
REMARK    1  A    between atoms: C_2  and  C_18
REMARK    2  A    between atoms: N_3  and  C_4
REMARK    3  A    between atoms: C_4  and  C_5
REMARK    4  A    between atoms: C_8  and  C_9
REMARK    5  A    between atoms: C_9  and  N_10
REMARK    6  A    between atoms: C_13  and  O_14
REMARK                            x       y       z     vdW  Elec       q    Type
REMARK                         _______ _______ _______ _____ _____    ______ ____
ROOT
ATOM      1  O   UNL     1      47.947   7.200  12.559  0.00  0.00    +0.000 OA
ATOM      2  C   UNL     1      47.407   6.792  13.584  0.00  0.00    +0.000 C 
ATOM      3  N   UNL     1      46.062   6.535  13.651  0.00  0.00    +0.000 N 
ATOM      4  H   UNL     1      45.634   6.375  14.556  0.00  0.00    +0.000 HD
ENDROOT
BRANCH   2   5
ATOM      5  C   UNL     1      48.182   6.498  14.796  0.00  0.00    +0.000 A 
ATOM      6  C   UNL     1      49.147   7.395  15.236  0.00  0.00    +0.000 A 
ATOM      7  S   UNL     1      49.975   6.875  16.634  0.00  0.00    +0.000 S 
ATOM      8  C   UNL     1      49.039   5.457  16.730  0.00  0.00    +0.000 A 
ATOM      9  N   UNL     1      49.224   4.561  17.737  0.00  0.00    +0.000 NA
ATOM     10  C   UNL     1      48.410   3.559  17.716  0.00  0.00    +0.000 A 
ATOM     11  N   UNL     1      47.437   3.361  16.772  0.00  0.00    +0.000 N 
ATOM     12  C   UNL     1      47.272   4.193  15.691  0.00  0.00    +0.000 A 
ATOM     13  O   UNL     1      46.491   3.911  14.788  0.00  0.00    +0.000 OA
ATOM     14  C   UNL     1      48.125   5.367  15.695  0.00  0.00    +0.000 A 
ATOM     15  H   UNL     1      46.851   2.541  16.798  0.00  0.00    +0.000 HD
ENDBRANCH   2   5
BRANCH   3  16
ATOM     16  C   UNL     1      45.160   6.826  12.563  0.00  0.00    +0.000 C 
BRANCH  16  17
ATOM     17  C   UNL     1      45.150   5.720  11.550  0.00  0.00    +0.000 A 
ATOM     18  C   UNL     1      44.610   4.463  11.832  0.00  0.00    +0.000 A 
ATOM     19  C   UNL     1      44.629   3.465  10.859  0.00  0.00    +0.000 A 
ATOM     20  C   UNL     1      45.197   3.749   9.618  0.00  0.00    +0.000 A 
ATOM     21  N   UNL     1      45.702   4.972   9.313  0.00  0.00    +0.000 NA
ATOM     22  C   UNL     1      45.657   5.924  10.273  0.00  0.00    +0.000 A 
BRANCH  20  23
ATOM     23  C   UNL     1      45.280   2.682   8.540  0.00  0.00    +0.000 C 
BRANCH  23  24
ATOM     24  N   UNL     1      46.449   2.787   7.644  0.00  0.00    +0.000 NA
ATOM     25  C   UNL     1      46.061   3.349   6.339  0.00  0.00    +0.000 C 
ATOM     26  C   UNL     1      46.950   2.674   5.293  0.00  0.00    +0.000 C 
ATOM     27  C   UNL     1      47.866   1.767   6.098  0.00  0.00    +0.000 C 
ATOM     28  C   UNL     1      47.043   1.467   7.348  0.00  0.00    +0.000 C 
BRANCH  27  29
ATOM     29  O   UNL     1      49.052   2.487   6.441  0.00  0.00    +0.000 OA
ATOM     30  H   UNL     1      48.737   3.301   6.881  0.00  0.00    +0.000 HD
ENDBRANCH  27  29
ENDBRANCH  23  24
ENDBRANCH  20  23
ENDBRANCH  16  17
ENDBRANCH   3  16
TORSDOF 6
ENDMDL
MODEL 2
REMARK VINA RESULT:    -7.194      4.197      8.947
REMARK INTER + INTRA:         -10.279
REMARK INTER:                  -9.763
REMARK INTRA:                  -0.516
REMARK UNBOUND:                -0.772
REMARK  Name = 
REMARK  6 active torsions:
REMARK  status: ('A' for Active; 'I' for Inactive)
REMARK    1  A    between atoms: C_2  and  C_18
REMARK    2  A    between atoms: N_3  and  C_4
REMARK    3  A    between atoms: C_4  and  C_5
REMARK    4  A    between atoms: C_8  and  C_9
REMARK    5  A    between atoms: C_9  and  N_10
REMARK    6  A    between atoms: C_13  and  O_14
REMARK                            x       y       z     vdW  Elec       q    Type
REMARK                         _______ _______ _______ _____ _____    ______ ____
ROOT
ATOM      1  O   UNL     1      47.217   3.053  14.159  0.00  0.00    +0.000 OA
ATOM      2  C   UNL     1      46.842   4.139  14.590  0.00  0.00    +0.000 C 
ATOM      3  N   UNL     1      46.792   4.417  15.932  0.00  0.00    +0.000 N 
ATOM      4  H   UNL     1      46.310   5.252  16.245  0.00  0.00    +0.000 HD
ENDROOT
BRANCH   2   5
ATOM      5  C   UNL     1      46.475   5.238  13.689  0.00  0.00    +0.000 A 
ATOM      6  C   UNL     1      47.388   6.251  13.423  0.00  0.00    +0.000 A 
ATOM      7  S   UNL     1      46.783   7.462  12.387  0.00  0.00    +0.000 S 
ATOM      8  C   UNL     1      45.295   6.652  12.216  0.00  0.00    +0.000 A 
ATOM      9  N   UNL     1      44.311   7.153  11.421  0.00  0.00    +0.000 NA
ATOM     10  C   UNL     1      43.259   6.409  11.342  0.00  0.00    +0.000 A 
ATOM     11  N   UNL     1      43.093   5.217  11.997  0.00  0.00    +0.000 N 
ATOM     12  C   UNL     1      44.023   4.717  12.876  0.00  0.00    +0.000 A 
ATOM     13  O   UNL     1      43.784   3.724  13.555  0.00  0.00    +0.000 OA
ATOM     14  C   UNL     1      45.251   5.486  12.960  0.00  0.00    +0.000 A 
ATOM     15  H   UNL     1      42.233   4.697  11.914  0.00  0.00    +0.000 HD
ENDBRANCH   2   5
BRANCH   3  16
ATOM     16  C   UNL     1      47.068   3.424  16.942  0.00  0.00    +0.000 C 
BRANCH  16  17
ATOM     17  C   UNL     1      48.542   3.279  17.177  0.00  0.00    +0.000 A 
ATOM     18  C   UNL     1      49.283   4.252  17.851  0.00  0.00    +0.000 A 
ATOM     19  C   UNL     1      50.653   4.074  18.041  0.00  0.00    +0.000 A 
ATOM     20  C   UNL     1      51.254   2.919  17.543  0.00  0.00    +0.000 A 
ATOM     21  N   UNL     1      50.548   1.948  16.909  0.00  0.00    +0.000 NA
ATOM     22  C   UNL     1      49.219   2.142  16.752  0.00  0.00    +0.000 A 
BRANCH  20  23
ATOM     23  C   UNL     1      52.750   2.700  17.687  0.00  0.00    +0.000 C 
BRANCH  23  24
ATOM     24  N   UNL     1      53.139   1.415  18.302  0.00  0.00    +0.000 NA
ATOM     25  C   UNL     1      54.326   1.581  19.159  0.00  0.00    +0.000 C 
ATOM     26  C   UNL     1      55.131   0.286  19.042  0.00  0.00    +0.000 C 
ATOM     27  C   UNL     1      54.300  -0.600  18.130  0.00  0.00    +0.000 C 
ATOM     28  C   UNL     1      53.516   0.406  17.291  0.00  0.00    +0.000 C 
BRANCH  27  29
ATOM     29  O   UNL     1      53.411  -1.387  18.926  0.00  0.00    +0.000 OA
ATOM     30  H   UNL     1      52.834  -1.846  18.284  0.00  0.00    +0.000 HD
ENDBRANCH  27  29
ENDBRANCH  23  24
ENDBRANCH  20  23
ENDBRANCH  16  17
ENDBRANCH   3  16
TORSDOF 6
ENDMDL
MODEL 3
REMARK VINA RESULT:    -6.997      3.821      5.992
REMARK INTER + INTRA:         -10.019
REMARK INTER:                  -9.051
REMARK INTRA:                  -0.967
REMARK UNBOUND:                -0.772
REMARK  Name = 
REMARK  6 active torsions:
REMARK  status: ('A' for Active; 'I' for Inactive)
REMARK    1  A    between atoms: C_2  and  C_18
REMARK    2  A    between atoms: N_3  and  C_4
REMARK    3  A    between atoms: C_4  and  C_5
REMARK    4  A    between atoms: C_8  and  C_9
REMARK    5  A    between atoms: C_9  and  N_10
REMARK    6  A    between atoms: C_13  and  O_14
REMARK                            x       y       z     vdW  Elec       q    Type
REMARK                         _______ _______ _______ _____ _____    ______ ____
ROOT
ATOM      1  O   UNL     1      51.629   6.172  16.573  0.00  0.00    +0.000 OA
ATOM      2  C   UNL     1      51.328   5.306  17.390  0.00  0.00    +0.000 C 
ATOM      3  N   UNL     1      50.051   5.164  17.870  0.00  0.00    +0.000 N 
ATOM      4  H   UNL     1      49.889   4.560  18.668  0.00  0.00    +0.000 HD
ENDROOT
BRANCH   2   5
ATOM      5  C   UNL     1      52.310   4.324  17.865  0.00  0.00    +0.000 A 
ATOM      6  C   UNL     1      53.496   4.755  18.446  0.00  0.00    +0.000 A 
ATOM      7  S   UNL     1      54.534   3.481  18.905  0.00  0.00    +0.000 S 
ATOM      8  C   UNL     1      53.414   2.307  18.390  0.00  0.00    +0.000 A 
ATOM      9  N   UNL     1      53.677   0.980  18.526  0.00  0.00    +0.000 NA
ATOM     10  C   UNL     1      52.719   0.204  18.144  0.00  0.00    +0.000 A 
ATOM     11  N   UNL     1      51.526   0.632  17.623  0.00  0.00    +0.000 N 
ATOM     12  C   UNL     1      51.253   1.958  17.388  0.00  0.00    +0.000 A 
ATOM     13  O   UNL     1      50.238   2.299  16.788  0.00  0.00    +0.000 OA
ATOM     14  C   UNL     1      52.275   2.878  17.851  0.00  0.00    +0.000 A 
ATOM     15  H   UNL     1      50.829  -0.029  17.317  0.00  0.00    +0.000 HD
ENDBRANCH   2   5
BRANCH   3  16
ATOM     16  C   UNL     1      48.990   6.084  17.541  0.00  0.00    +0.000 C 
BRANCH  16  17
ATOM     17  C   UNL     1      48.253   5.650  16.309  0.00  0.00    +0.000 A 
ATOM     18  C   UNL     1      48.322   6.370  15.113  0.00  0.00    +0.000 A 
ATOM     19  C   UNL     1      47.613   5.930  13.996  0.00  0.00    +0.000 A 
ATOM     20  C   UNL     1      46.842   4.774  14.104  0.00  0.00    +0.000 A 
ATOM     21  N   UNL     1      46.783   4.044  15.248  0.00  0.00    +0.000 NA
ATOM     22  C   UNL     1      47.491   4.488  16.310  0.00  0.00    +0.000 A 
BRANCH  20  23
ATOM     23  C   UNL     1      46.018   4.278  12.928  0.00  0.00    +0.000 C 
BRANCH  23  24
ATOM     24  N   UNL     1      44.936   5.185  12.494  0.00  0.00    +0.000 NA
ATOM     25  C   UNL     1      43.647   4.783  13.083  0.00  0.00    +0.000 C 
ATOM     26  C   UNL     1      42.574   5.106  12.042  0.00  0.00    +0.000 C 
ATOM     27  C   UNL     1      43.336   5.746  10.894  0.00  0.00    +0.000 C 
ATOM     28  C   UNL     1      44.734   5.149  11.031  0.00  0.00    +0.000 C 
BRANCH  27  29
ATOM     29  O   UNL     1      43.376   7.162  11.091  0.00  0.00    +0.000 OA
ATOM     30  H   UNL     1      43.461   7.281  12.058  0.00  0.00    +0.000 HD
ENDBRANCH  27  29
ENDBRANCH  23  24
ENDBRANCH  20  23
ENDBRANCH  16  17
ENDBRANCH   3  16
TORSDOF 6
ENDMDL
MODEL 4
REMARK VINA RESULT:    -6.712      3.862      8.149
REMARK INTER + INTRA:          -9.642
REMARK INTER:                  -8.823
REMARK INTRA:                  -0.820
REMARK UNBOUND:                -0.772
REMARK  Name = 
REMARK  6 active torsions:
REMARK  status: ('A' for Active; 'I' for Inactive)
REMARK    1  A    between atoms: C_2  and  C_18
REMARK    2  A    between atoms: N_3  and  C_4
REMARK    3  A    between atoms: C_4  and  C_5
REMARK    4  A    between atoms: C_8  and  C_9
REMARK    5  A    between atoms: C_9  and  N_10
REMARK    6  A    between atoms: C_13  and  O_14
REMARK                            x       y       z     vdW  Elec       q    Type
REMARK                         _______ _______ _______ _____ _____    ______ ____
ROOT
ATOM      1  O   UNL     1      48.014   6.978  11.785  0.00  0.00    +0.000 OA
ATOM      2  C   UNL     1      47.079   6.916  12.579  0.00  0.00    +0.000 C 
ATOM      3  N   UNL     1      47.186   7.361  13.871  0.00  0.00    +0.000 N 
ATOM      4  H   UNL     1      46.455   7.127  14.535  0.00  0.00    +0.000 HD
ENDROOT
BRANCH   2   5
ATOM      5  C   UNL     1      45.761   6.412  12.175  0.00  0.00    +0.000 A 
ATOM      6  C   UNL     1      44.843   7.269  11.583  0.00  0.00    +0.000 A 
ATOM      7  S   UNL     1      43.353   6.525  11.213  0.00  0.00    +0.000 S 
ATOM      8  C   UNL     1      43.899   5.018  11.785  0.00  0.00    +0.000 A 
ATOM      9  N   UNL     1      43.102   3.917  11.733  0.00  0.00    +0.000 NA
ATOM     10  C   UNL     1      43.663   2.832  12.151  0.00  0.00    +0.000 A 
ATOM     11  N   UNL     1      44.943   2.748  12.632  0.00  0.00    +0.000 N 
ATOM     12  C   UNL     1      45.753   3.848  12.783  0.00  0.00    +0.000 A 
ATOM     13  O   UNL     1      46.838   3.763  13.350  0.00  0.00    +0.000 OA
ATOM     14  C   UNL     1      45.191   5.087  12.276  0.00  0.00    +0.000 A 
ATOM     15  H   UNL     1      45.312   1.872  12.969  0.00  0.00    +0.000 HD
ENDBRANCH   2   5
BRANCH   3  16
ATOM     16  C   UNL     1      48.429   7.831  14.432  0.00  0.00    +0.000 C 
BRANCH  16  17
ATOM     17  C   UNL     1      48.991   6.849  15.416  0.00  0.00    +0.000 A 
ATOM     18  C   UNL     1      50.253   7.018  15.991  0.00  0.00    +0.000 A 
ATOM     19  C   UNL     1      50.735   6.075  16.897  0.00  0.00    +0.000 A 
ATOM     20  C   UNL     1      49.939   4.973  17.205  0.00  0.00    +0.000 A 
ATOM     21  N   UNL     1      48.699   4.802  16.678  0.00  0.00    +0.000 NA
ATOM     22  C   UNL     1      48.253   5.741  15.813  0.00  0.00    +0.000 A 
BRANCH  20  23
ATOM     23  C   UNL     1      50.438   3.896  18.152  0.00  0.00    +0.000 C 
BRANCH  23  24
ATOM     24  N   UNL     1      51.623   3.149  17.685  0.00  0.00    +0.000 NA
ATOM     25  C   UNL     1      51.265   1.764  17.332  0.00  0.00    +0.000 C 
ATOM     26  C   UNL     1      52.472   0.897  17.698  0.00  0.00    +0.000 C 
ATOM     27  C   UNL     1      53.508   1.882  18.210  0.00  0.00    +0.000 C 
ATOM     28  C   UNL     1      52.659   3.038  18.731  0.00  0.00    +0.000 C 
BRANCH  27  29
ATOM     29  O   UNL     1      54.323   2.313  17.118  0.00  0.00    +0.000 OA
ATOM     30  H   UNL     1      55.138   2.662  17.531  0.00  0.00    +0.000 HD
ENDBRANCH  27  29
ENDBRANCH  23  24
ENDBRANCH  20  23
ENDBRANCH  16  17
ENDBRANCH   3  16
TORSDOF 6
ENDMDL
MODEL 5
REMARK VINA RESULT:    -6.682      2.940      9.081
REMARK INTER + INTRA:          -9.602
REMARK INTER:                  -8.810
REMARK INTRA:                  -0.792
REMARK UNBOUND:                -0.772
REMARK  Name = 
REMARK  6 active torsions:
REMARK  status: ('A' for Active; 'I' for Inactive)
REMARK    1  A    between atoms: C_2  and  C_18
REMARK    2  A    between atoms: N_3  and  C_4
REMARK    3  A    between atoms: C_4  and  C_5
REMARK    4  A    between atoms: C_8  and  C_9
REMARK    5  A    between atoms: C_9  and  N_10
REMARK    6  A    between atoms: C_13  and  O_14
REMARK                            x       y       z     vdW  Elec       q    Type
REMARK                         _______ _______ _______ _____ _____    ______ ____
ROOT
ATOM      1  O   UNL     1      44.631   7.335  12.065  0.00  0.00    +0.000 OA
ATOM      2  C   UNL     1      45.338   6.343  11.916  0.00  0.00    +0.000 C 
ATOM      3  N   UNL     1      46.684   6.357  12.182  0.00  0.00    +0.000 N 
ATOM      4  H   UNL     1      47.254   5.576  11.876  0.00  0.00    +0.000 HD
ENDROOT
BRANCH   2   5
ATOM      5  C   UNL     1      44.776   5.054  11.497  0.00  0.00    +0.000 A 
ATOM      6  C   UNL     1      43.974   4.331  12.371  0.00  0.00    +0.000 A 
ATOM      7  S   UNL     1      43.438   2.842  11.733  0.00  0.00    +0.000 S 
ATOM      8  C   UNL     1      44.216   3.133  10.248  0.00  0.00    +0.000 A 
ATOM      9  N   UNL     1      44.133   2.240   9.225  0.00  0.00    +0.000 NA
ATOM     10  C   UNL     1      44.726   2.614   8.141  0.00  0.00    +0.000 A 
ATOM     11  N   UNL     1      45.409   3.792   7.989  0.00  0.00    +0.000 N 
ATOM     12  C   UNL     1      45.592   4.682   9.019  0.00  0.00    +0.000 A 
ATOM     13  O   UNL     1      46.328   5.655   8.893  0.00  0.00    +0.000 OA
ATOM     14  C   UNL     1      44.898   4.338  10.247  0.00  0.00    +0.000 A 
ATOM     15  H   UNL     1      45.874   4.011   7.121  0.00  0.00    +0.000 HD
ENDBRANCH   2   5
BRANCH   3  16
ATOM     16  C   UNL     1      47.391   7.559  12.548  0.00  0.00    +0.000 C 
BRANCH  16  17
ATOM     17  C   UNL     1      47.963   7.457  13.931  0.00  0.00    +0.000 A 
ATOM     18  C   UNL     1      48.177   8.585  14.728  0.00  0.00    +0.000 A 
ATOM     19  C   UNL     1      48.716   8.440  16.006  0.00  0.00    +0.000 A 
ATOM     20  C   UNL     1      49.035   7.161  16.458  0.00  0.00    +0.000 A 
ATOM     21  N   UNL     1      48.810   6.049  15.710  0.00  0.00    +0.000 NA
ATOM     22  C   UNL     1      48.274   6.220  14.481  0.00  0.00    +0.000 A 
BRANCH  20  23
ATOM     23  C   UNL     1      49.665   6.955  17.824  0.00  0.00    +0.000 C 
BRANCH  23  24
ATOM     24  N   UNL     1      49.000   5.947  18.675  0.00  0.00    +0.000 NA
ATOM     25  C   UNL     1      47.796   6.509  19.311  0.00  0.00    +0.000 C 
ATOM     26  C   UNL     1      47.687   5.854  20.689  0.00  0.00    +0.000 C 
ATOM     27  C   UNL     1      48.851   4.879  20.742  0.00  0.00    +0.000 C 
ATOM     28  C   UNL     1      49.865   5.500  19.786  0.00  0.00    +0.000 C 
BRANCH  27  29
ATOM     29  O   UNL     1      48.418   3.607  20.254  0.00  0.00    +0.000 OA
ATOM     30  H   UNL     1      47.729   3.315  20.884  0.00  0.00    +0.000 HD
ENDBRANCH  27  29
ENDBRANCH  23  24
ENDBRANCH  20  23
ENDBRANCH  16  17
ENDBRANCH   3  16
TORSDOF 6
ENDMDL
MODEL 6
REMARK VINA RESULT:    -6.611      3.667      8.677
REMARK INTER + INTRA:          -9.508
REMARK INTER:                  -8.758
REMARK INTRA:                  -0.750
REMARK UNBOUND:                -0.772
REMARK  Name = 
REMARK  6 active torsions:
REMARK  status: ('A' for Active; 'I' for Inactive)
REMARK    1  A    between atoms: C_2  and  C_18
REMARK    2  A    between atoms: N_3  and  C_4
REMARK    3  A    between atoms: C_4  and  C_5
REMARK    4  A    between atoms: C_8  and  C_9
REMARK    5  A    between atoms: C_9  and  N_10
REMARK    6  A    between atoms: C_13  and  O_14
REMARK                            x       y       z     vdW  Elec       q    Type
REMARK                         _______ _______ _______ _____ _____    ______ ____
ROOT
ATOM      1  O   UNL     1      45.079   8.023  11.491  0.00  0.00    +0.000 OA
ATOM      2  C   UNL     1      45.815   7.043  11.429  0.00  0.00    +0.000 C 
ATOM      3  N   UNL     1      47.069   7.032  11.984  0.00  0.00    +0.000 N 
ATOM      4  H   UNL     1      47.704   6.275  11.755  0.00  0.00    +0.000 HD
ENDROOT
BRANCH   2   5
ATOM      5  C   UNL     1      45.375   5.790  10.804  0.00  0.00    +0.000 A 
ATOM      6  C   UNL     1      45.691   5.530   9.476  0.00  0.00    +0.000 A 
ATOM      7  S   UNL     1      45.069   4.048   8.904  0.00  0.00    +0.000 S 
ATOM      8  C   UNL     1      44.399   3.677  10.424  0.00  0.00    +0.000 A 
ATOM      9  N   UNL     1      43.734   2.509  10.631  0.00  0.00    +0.000 NA
ATOM     10  C   UNL     1      43.325   2.335  11.843  0.00  0.00    +0.000 A 
ATOM     11  N   UNL     1      43.506   3.229  12.865  0.00  0.00    +0.000 N 
ATOM     12  C   UNL     1      44.095   4.457  12.682  0.00  0.00    +0.000 A 
ATOM     13  O   UNL     1      44.112   5.292  13.581  0.00  0.00    +0.000 OA
ATOM     14  C   UNL     1      44.623   4.682  11.349  0.00  0.00    +0.000 A 
ATOM     15  H   UNL     1      43.137   3.043  13.785  0.00  0.00    +0.000 HD
ENDBRANCH   2   5
BRANCH   3  16
ATOM     16  C   UNL     1      47.664   8.202  12.583  0.00  0.00    +0.000 C 
BRANCH  16  17
ATOM     17  C   UNL     1      48.212   7.900  13.946  0.00  0.00    +0.000 A 
ATOM     18  C   UNL     1      48.288   8.872  14.946  0.00  0.00    +0.000 A 
ATOM     19  C   UNL     1      48.812   8.544  16.196  0.00  0.00    +0.000 A 
ATOM     20  C   UNL     1      49.256   7.241  16.416  0.00  0.00    +0.000 A 
ATOM     21  N   UNL     1      49.167   6.273  15.467  0.00  0.00    +0.000 NA
ATOM     22  C   UNL     1      48.641   6.618  14.269  0.00  0.00    +0.000 A 
BRANCH  20  23
ATOM     23  C   UNL     1      49.874   6.846  17.745  0.00  0.00    +0.000 C 
BRANCH  23  24
ATOM     24  N   UNL     1      49.108   5.849  18.521  0.00  0.00    +0.000 NA
ATOM     25  C   UNL     1      47.846   6.425  19.015  0.00  0.00    +0.000 C 
ATOM     26  C   UNL     1      47.576   5.778  20.374  0.00  0.00    +0.000 C 
ATOM     27  C   UNL     1      48.717   4.794  20.562  0.00  0.00    +0.000 C 
ATOM     28  C   UNL     1      49.839   5.400  19.723  0.00  0.00    +0.000 C 
BRANCH  27  29
ATOM     29  O   UNL     1      48.330   3.522  20.035  0.00  0.00    +0.000 OA
ATOM     30  H   UNL     1      49.168   3.083  19.790  0.00  0.00    +0.000 HD
ENDBRANCH  27  29
ENDBRANCH  23  24
ENDBRANCH  20  23
ENDBRANCH  16  17
ENDBRANCH   3  16
TORSDOF 6
ENDMDL
MODEL 7
REMARK VINA RESULT:    -6.584      4.146      9.100
REMARK INTER + INTRA:          -9.473
REMARK INTER:                  -8.749
REMARK INTRA:                  -0.724
REMARK UNBOUND:                -0.772
REMARK  Name = 
REMARK  6 active torsions:
REMARK  status: ('A' for Active; 'I' for Inactive)
REMARK    1  A    between atoms: C_2  and  C_18
REMARK    2  A    between atoms: N_3  and  C_4
REMARK    3  A    between atoms: C_4  and  C_5
REMARK    4  A    between atoms: C_8  and  C_9
REMARK    5  A    between atoms: C_9  and  N_10
REMARK    6  A    between atoms: C_13  and  O_14
REMARK                            x       y       z     vdW  Elec       q    Type
REMARK                         _______ _______ _______ _____ _____    ______ ____
ROOT
ATOM      1  O   UNL     1      47.311   3.055  14.069  0.00  0.00    +0.000 OA
ATOM      2  C   UNL     1      46.869   4.119  14.491  0.00  0.00    +0.000 C 
ATOM      3  N   UNL     1      46.798   4.403  15.830  0.00  0.00    +0.000 N 
ATOM      4  H   UNL     1      46.265   5.210  16.135  0.00  0.00    +0.000 HD
ENDROOT
BRANCH   2   5
ATOM      5  C   UNL     1      46.439   5.187  13.580  0.00  0.00    +0.000 A 
ATOM      6  C   UNL     1      47.312   6.221  13.265  0.00  0.00    +0.000 A 
ATOM      7  S   UNL     1      46.635   7.392  12.224  0.00  0.00    +0.000 S 
ATOM      8  C   UNL     1      45.170   6.533  12.118  0.00  0.00    +0.000 A 
ATOM      9  N   UNL     1      44.145   6.987  11.346  0.00  0.00    +0.000 NA
ATOM     10  C   UNL     1      43.115   6.210  11.317  0.00  0.00    +0.000 A 
ATOM     11  N   UNL     1      43.007   5.027  12.001  0.00  0.00    +0.000 N 
ATOM     12  C   UNL     1      43.981   4.574  12.858  0.00  0.00    +0.000 A 
ATOM     13  O   UNL     1      43.794   3.589  13.565  0.00  0.00    +0.000 OA
ATOM     14  C   UNL     1      45.186   5.383  12.886  0.00  0.00    +0.000 A 
ATOM     15  H   UNL     1      42.161   4.480  11.956  0.00  0.00    +0.000 HD
ENDBRANCH   2   5
BRANCH   3  16
ATOM     16  C   UNL     1      47.130   3.437  16.848  0.00  0.00    +0.000 C 
BRANCH  16  17
ATOM     17  C   UNL     1      48.599   3.443  17.150  0.00  0.00    +0.000 A 
ATOM     18  C   UNL     1      49.391   2.303  16.993  0.00  0.00    +0.000 A 
ATOM     19  C   UNL     1      50.751   2.357  17.291  0.00  0.00    +0.000 A 
ATOM     20  C   UNL     1      51.291   3.557  17.749  0.00  0.00    +0.000 A 
ATOM     21  N   UNL     1      50.545   4.685  17.882  0.00  0.00    +0.000 NA
ATOM     22  C   UNL     1      49.232   4.606  17.572  0.00  0.00    +0.000 A 
BRANCH  20  23
ATOM     23  C   UNL     1      52.758   3.654  18.128  0.00  0.00    +0.000 C 
BRANCH  23  24
ATOM     24  N   UNL     1      53.287   5.029  18.241  0.00  0.00    +0.000 NA
ATOM     25  C   UNL     1      54.076   5.387  17.049  0.00  0.00    +0.000 C 
ATOM     26  C   UNL     1      55.204   6.300  17.532  0.00  0.00    +0.000 C 
ATOM     27  C   UNL     1      54.955   6.458  19.022  0.00  0.00    +0.000 C 
ATOM     28  C   UNL     1      54.208   5.178  19.386  0.00  0.00    +0.000 C 
BRANCH  27  29
ATOM     29  O   UNL     1      54.123   7.601  19.239  0.00  0.00    +0.000 OA
ATOM     30  H   UNL     1      54.633   8.175  19.843  0.00  0.00    +0.000 HD
ENDBRANCH  27  29
ENDBRANCH  23  24
ENDBRANCH  20  23
ENDBRANCH  16  17
ENDBRANCH   3  16
TORSDOF 6
ENDMDL
MODEL 8
REMARK VINA RESULT:    -6.555      4.311      7.221
REMARK INTER + INTRA:          -9.435
REMARK INTER:                  -8.626
REMARK INTRA:                  -0.809
REMARK UNBOUND:                -0.772
REMARK  Name = 
REMARK  6 active torsions:
REMARK  status: ('A' for Active; 'I' for Inactive)
REMARK    1  A    between atoms: C_2  and  C_18
REMARK    2  A    between atoms: N_3  and  C_4
REMARK    3  A    between atoms: C_4  and  C_5
REMARK    4  A    between atoms: C_8  and  C_9
REMARK    5  A    between atoms: C_9  and  N_10
REMARK    6  A    between atoms: C_13  and  O_14
REMARK                            x       y       z     vdW  Elec       q    Type
REMARK                         _______ _______ _______ _____ _____    ______ ____
ROOT
ATOM      1  O   UNL     1      44.309   7.589  11.248  0.00  0.00    +0.000 OA
ATOM      2  C   UNL     1      44.848   6.635  11.802  0.00  0.00    +0.000 C 
ATOM      3  N   UNL     1      45.787   6.796  12.788  0.00  0.00    +0.000 N 
ATOM      4  H   UNL     1      46.331   5.995  13.087  0.00  0.00    +0.000 HD
ENDROOT
BRANCH   2   5
ATOM      5  C   UNL     1      44.478   5.251  11.482  0.00  0.00    +0.000 A 
ATOM      6  C   UNL     1      43.677   4.528  12.358  0.00  0.00    +0.000 A 
ATOM      7  S   UNL     1      43.377   2.929  11.846  0.00  0.00    +0.000 S 
ATOM      8  C   UNL     1      44.266   3.160  10.413  0.00  0.00    +0.000 A 
ATOM      9  N   UNL     1      44.387   2.164   9.494  0.00  0.00    +0.000 NA
ATOM     10  C   UNL     1      45.042   2.495   8.432  0.00  0.00    +0.000 A 
ATOM     11  N   UNL     1      45.601   3.726   8.210  0.00  0.00    +0.000 N 
ATOM     12  C   UNL     1      45.578   4.732   9.145  0.00  0.00    +0.000 A 
ATOM     13  O   UNL     1      46.211   5.769   8.976  0.00  0.00    +0.000 OA
ATOM     14  C   UNL     1      44.806   4.432  10.337  0.00  0.00    +0.000 A 
ATOM     15  H   UNL     1      46.125   3.911   7.368  0.00  0.00    +0.000 HD
ENDBRANCH   2   5
BRANCH   3  16
ATOM     16  C   UNL     1      46.294   8.090  13.174  0.00  0.00    +0.000 C 
BRANCH  16  17
ATOM     17  C   UNL     1      47.639   8.354  12.565  0.00  0.00    +0.000 A 
ATOM     18  C   UNL     1      48.045   9.639  12.197  0.00  0.00    +0.000 A 
ATOM     19  C   UNL     1      49.304   9.833  11.628  0.00  0.00    +0.000 A 
ATOM     20  C   UNL     1      50.131   8.728  11.436  0.00  0.00    +0.000 A 
ATOM     21  N   UNL     1      49.766   7.474  11.812  0.00  0.00    +0.000 NA
ATOM     22  C   UNL     1      48.546   7.319  12.373  0.00  0.00    +0.000 A 
BRANCH  20  23
ATOM     23  C   UNL     1      51.492   8.881  10.781  0.00  0.00    +0.000 C 
BRANCH  23  24
ATOM     24  N   UNL     1      52.366   7.694  10.866  0.00  0.00    +0.000 NA
ATOM     25  C   UNL     1      53.689   8.053  11.404  0.00  0.00    +0.000 C 
ATOM     26  C   UNL     1      54.703   7.145  10.706  0.00  0.00    +0.000 C 
ATOM     27  C   UNL     1      53.862   6.249   9.813  0.00  0.00    +0.000 C 
ATOM     28  C   UNL     1      52.624   7.097   9.539  0.00  0.00    +0.000 C 
BRANCH  27  29
ATOM     29  O   UNL     1      53.509   5.067  10.537  0.00  0.00    +0.000 OA
ATOM     30  H   UNL     1      54.233   4.435  10.359  0.00  0.00    +0.000 HD
ENDBRANCH  27  29
ENDBRANCH  23  24
ENDBRANCH  20  23
ENDBRANCH  16  17
ENDBRANCH   3  16
TORSDOF 6
ENDMDL
MODEL 9
REMARK VINA RESULT:    -6.116      4.019      8.179
REMARK INTER + INTRA:          -8.854
REMARK INTER:                  -8.112
REMARK INTRA:                  -0.741
REMARK UNBOUND:                -0.772
REMARK  Name = 
REMARK  6 active torsions:
REMARK  status: ('A' for Active; 'I' for Inactive)
REMARK    1  A    between atoms: C_2  and  C_18
REMARK    2  A    between atoms: N_3  and  C_4
REMARK    3  A    between atoms: C_4  and  C_5
REMARK    4  A    between atoms: C_8  and  C_9
REMARK    5  A    between atoms: C_9  and  N_10
REMARK    6  A    between atoms: C_13  and  O_14
REMARK                            x       y       z     vdW  Elec       q    Type
REMARK                         _______ _______ _______ _____ _____    ______ ____
ROOT
ATOM      1  O   UNL     1      47.914   7.802  11.861  0.00  0.00    +0.000 OA
ATOM      2  C   UNL     1      46.942   7.710  12.606  0.00  0.00    +0.000 C 
ATOM      3  N   UNL     1      46.876   8.369  13.807  0.00  0.00    +0.000 N 
ATOM      4  H   UNL     1      46.143   8.124  14.463  0.00  0.00    +0.000 HD
ENDROOT
BRANCH   2   5
ATOM      5  C   UNL     1      45.757   6.931  12.229  0.00  0.00    +0.000 A 
ATOM      6  C   UNL     1      44.697   7.552  11.581  0.00  0.00    +0.000 A 
ATOM      7  S   UNL     1      43.390   6.506  11.252  0.00  0.00    +0.000 S 
ATOM      8  C   UNL     1      44.214   5.175  11.920  0.00  0.00    +0.000 A 
ATOM      9  N   UNL     1      43.651   3.937  11.934  0.00  0.00    +0.000 NA
ATOM     10  C   UNL     1      44.407   3.012  12.422  0.00  0.00    +0.000 A 
ATOM     11  N   UNL     1      45.671   3.213  12.912  0.00  0.00    +0.000 N 
ATOM     12  C   UNL     1      46.245   4.459  12.997  0.00  0.00    +0.000 A 
ATOM     13  O   UNL     1      47.316   4.625  13.572  0.00  0.00    +0.000 OA
ATOM     14  C   UNL     1      45.458   5.528  12.411  0.00  0.00    +0.000 A 
ATOM     15  H   UNL     1      46.200   2.450  13.305  0.00  0.00    +0.000 HD
ENDBRANCH   2   5
BRANCH   3  16
ATOM     16  C   UNL     1      47.981   9.127  14.340  0.00  0.00    +0.000 C 
BRANCH  16  17
ATOM     17  C   UNL     1      48.738   8.342  15.369  0.00  0.00    +0.000 A 
ATOM     18  C   UNL     1      49.681   7.374  15.015  0.00  0.00    +0.000 A 
ATOM     19  C   UNL     1      50.356   6.666  16.008  0.00  0.00    +0.000 A 
ATOM     20  C   UNL     1      50.064   6.940  17.343  0.00  0.00    +0.000 A 
ATOM     21  N   UNL     1      49.170   7.895  17.710  0.00  0.00    +0.000 NA
ATOM     22  C   UNL     1      48.542   8.576  16.725  0.00  0.00    +0.000 A 
BRANCH  20  23
ATOM     23  C   UNL     1      50.740   6.165  18.460  0.00  0.00    +0.000 C 
BRANCH  23  24
ATOM     24  N   UNL     1      50.121   4.864  18.785  0.00  0.00    +0.000 NA
ATOM     25  C   UNL     1      50.700   3.787  17.964  0.00  0.00    +0.000 C 
ATOM     26  C   UNL     1      49.571   2.792  17.693  0.00  0.00    +0.000 C 
ATOM     27  C   UNL     1      48.378   3.354  18.447  0.00  0.00    +0.000 C 
ATOM     28  C   UNL     1      48.672   4.850  18.496  0.00  0.00    +0.000 C 
BRANCH  27  29
ATOM     29  O   UNL     1      48.359   2.804  19.767  0.00  0.00    +0.000 OA
ATOM     30  H   UNL     1      49.164   2.251  19.823  0.00  0.00    +0.000 HD
ENDBRANCH  27  29
ENDBRANCH  23  24
ENDBRANCH  20  23
ENDBRANCH  16  17
ENDBRANCH   3  16
TORSDOF 6
ENDMDL
