MODEL 1
REMARK VINA RESULT:    -8.352      0.000      0.000
REMARK INTER + INTRA:         -13.852
REMARK INTER:                 -12.990
REMARK INTRA:                  -0.862
REMARK UNBOUND:                -0.862
REMARK  Name = 
REMARK  10 active torsions:
REMARK  status: ('A' for Active; 'I' for Inactive)
REMARK    1  A    between atoms: N_1  and  C_2
REMARK    2  A    between atoms: C_2  and  C_3
REMARK    3  A    between atoms: C_3  and  N_4
REMARK    4  A    between atoms: C_3  and  C_20
REMARK    5  A    between atoms: N_4  and  C_5
REMARK    6  A    between atoms: C_5  and  C_6
REMARK    7  A    between atoms: C_9  and  C_10
REMARK    8  A    between atoms: C_10  and  N_11
REMARK    9  A    between atoms: N_11  and  C_12
REMARK   10  A    between atoms: C_12  and  C_13
REMARK                            x       y       z     vdW  Elec       q    Type
REMARK                         _______ _______ _______ _____ _____    ______ ____
ROOT
ATOM      1  N   UNL     1      48.095   6.071  16.200  0.00  0.00    +0.000 NA
ATOM      2  H   UNL     1      48.578   6.696  16.843  0.00  0.00    +0.000 HD
ENDROOT
BRANCH   1   3
ATOM      3  C   UNL     1      48.259   4.694  16.719  0.00  0.00    +0.000 C 
BRANCH   3   4
ATOM      4  C   UNL     1      49.646   4.601  17.348  0.00  0.00    +0.000 A 
ATOM      5  C   UNL     1      50.283   5.622  18.041  0.00  0.00    +0.000 A 
ATOM      6  S   UNL     1      51.806   5.175  18.667  0.00  0.00    +0.000 S 
ATOM      7  C   UNL     1      51.652   3.591  18.066  0.00  0.00    +0.000 A 
ATOM      8  N   UNL     1      52.608   2.651  18.300  0.00  0.00    +0.000 NA
ATOM      9  C   UNL     1      52.337   1.488  17.810  0.00  0.00    +0.000 A 
ATOM     10  N   UNL     1      51.210   1.182  17.089  0.00  0.00    +0.000 N 
ATOM     11  C   UNL     1      50.227   2.103  16.803  0.00  0.00    +0.000 A 
ATOM     12  O   UNL     1      49.245   1.812  16.127  0.00  0.00    +0.000 OA
ATOM     13  C   UNL     1      50.472   3.417  17.367  0.00  0.00    +0.000 A 
ATOM     14  H   UNL     1      51.067   0.251  16.717  0.00  0.00    +0.000 HD
ENDBRANCH   3   4
BRANCH   3  15
ATOM     15  C   UNL     1      47.156   4.285  17.749  0.00  0.00    +0.000 C 
BRANCH  15  16
ATOM     16  N   UNL     1      46.712   2.889  17.621  0.00  0.00    +0.000 NA
ATOM     17  H   UNL     1      45.746   2.855  17.309  0.00  0.00    +0.000 HD
ATOM     18  H   UNL     1      46.758   2.459  18.547  0.00  0.00    +0.000 HD
ENDBRANCH  15  16
ENDBRANCH   3  15
ENDBRANCH   1   3
BRANCH   1  19
ATOM     19  C   UNL     1      48.673   6.253  14.870  0.00  0.00    +0.000 C 
BRANCH  19  20
ATOM     20  C   UNL     1      47.637   6.029  13.790  0.00  0.00    +0.000 A 
ATOM     21  C   UNL     1      46.673   5.020  13.918  0.00  0.00    +0.000 A 
ATOM     22  C   UNL     1      45.720   4.815  12.919  0.00  0.00    +0.000 A 
ATOM     23  C   UNL     1      45.692   5.630  11.779  0.00  0.00    +0.000 A 
ATOM     24  C   UNL     1      46.649   6.643  11.651  0.00  0.00    +0.000 A 
ATOM     25  C   UNL     1      47.614   6.838  12.645  0.00  0.00    +0.000 A 
BRANCH  23  26
ATOM     26  C   UNL     1      44.650   5.410  10.708  0.00  0.00    +0.000 C 
BRANCH  26  27
ATOM     27  N   UNL     1      45.283   5.077   9.434  0.00  0.00    +0.000 NA
ATOM     28  H   UNL     1      46.272   4.892   9.602  0.00  0.00    +0.000 HD
BRANCH  27  29
ATOM     29  C   UNL     1      44.687   3.888   8.840  0.00  0.00    +0.000 C 
BRANCH  29  30
ATOM     30  C   UNL     1      45.739   3.158   8.082  0.00  0.00    +0.000 A 
ATOM     31  C   UNL     1      46.618   3.580   7.103  0.00  0.00    +0.000 A 
ATOM     32  C   UNL     1      47.405   2.465   6.725  0.00  0.00    +0.000 A 
ATOM     33  C   UNL     1      46.986   1.392   7.478  0.00  0.00    +0.000 A 
ATOM     34  N   UNL     1      45.973   1.819   8.294  0.00  0.00    +0.000 N 
ATOM     35  H   UNL     1      45.441   1.244   8.935  0.00  0.00    +0.000 HD
ENDBRANCH  29  30
ENDBRANCH  27  29
ENDBRANCH  26  27
ENDBRANCH  23  26
ENDBRANCH  19  20
ENDBRANCH   1  19
TORSDOF 10
ENDMDL
MODEL 2
REMARK VINA RESULT:    -7.542      1.581      1.997
REMARK INTER + INTRA:         -12.592
REMARK INTER:                 -11.822
REMARK INTRA:                  -0.769
REMARK UNBOUND:                -0.862
REMARK  Name = 
REMARK  10 active torsions:
REMARK  status: ('A' for Active; 'I' for Inactive)
REMARK    1  A    between atoms: N_1  and  C_2
REMARK    2  A    between atoms: C_2  and  C_3
REMARK    3  A    between atoms: C_3  and  N_4
REMARK    4  A    between atoms: C_3  and  C_20
REMARK    5  A    between atoms: N_4  and  C_5
REMARK    6  A    between atoms: C_5  and  C_6
REMARK    7  A    between atoms: C_9  and  C_10
REMARK    8  A    between atoms: C_10  and  N_11
REMARK    9  A    between atoms: N_11  and  C_12
REMARK   10  A    between atoms: C_12  and  C_13
REMARK                            x       y       z     vdW  Elec       q    Type
REMARK                         _______ _______ _______ _____ _____    ______ ____
ROOT
ATOM      1  N   UNL     1      47.303   5.092  15.956  0.00  0.00    +0.000 NA
ATOM      2  H   UNL     1      46.983   5.782  16.634  0.00  0.00    +0.000 HD
ENDROOT
BRANCH   1   3
ATOM      3  C   UNL     1      48.326   4.259  16.627  0.00  0.00    +0.000 C 
BRANCH   3   4
ATOM      4  C   UNL     1      48.787   5.009  17.873  0.00  0.00    +0.000 A 
ATOM      5  C   UNL     1      48.046   5.964  18.555  0.00  0.00    +0.000 A 
ATOM      6  S   UNL     1      48.829   6.574  19.943  0.00  0.00    +0.000 S 
ATOM      7  C   UNL     1      50.171   5.556  19.702  0.00  0.00    +0.000 A 
ATOM      8  N   UNL     1      51.209   5.537  20.581  0.00  0.00    +0.000 NA
ATOM      9  C   UNL     1      52.139   4.692  20.284  0.00  0.00    +0.000 A 
ATOM     10  N   UNL     1      52.138   3.880  19.178  0.00  0.00    +0.000 N 
ATOM     11  C   UNL     1      51.124   3.880  18.246  0.00  0.00    +0.000 A 
ATOM     12  O   UNL     1      51.164   3.167  17.247  0.00  0.00    +0.000 OA
ATOM     13  C   UNL     1      50.038   4.789  18.559  0.00  0.00    +0.000 A 
ATOM     14  H   UNL     1      52.909   3.249  18.995  0.00  0.00    +0.000 HD
ENDBRANCH   3   4
BRANCH   3  15
ATOM     15  C   UNL     1      47.813   2.830  17.000  0.00  0.00    +0.000 C 
BRANCH  15  16
ATOM     16  N   UNL     1      46.506   2.825  17.675  0.00  0.00    +0.000 NA
ATOM     17  H   UNL     1      46.391   1.968  18.209  0.00  0.00    +0.000 HD
ATOM     18  H   UNL     1      45.781   2.844  16.955  0.00  0.00    +0.000 HD
ENDBRANCH  15  16
ENDBRANCH   3  15
ENDBRANCH   1   3
BRANCH   1  19
ATOM     19  C   UNL     1      47.822   5.808  14.791  0.00  0.00    +0.000 C 
BRANCH  19  20
ATOM     20  C   UNL     1      46.956   5.568  13.574  0.00  0.00    +0.000 A 
ATOM     21  C   UNL     1      46.139   4.432  13.487  0.00  0.00    +0.000 A 
ATOM     22  C   UNL     1      45.343   4.214  12.361  0.00  0.00    +0.000 A 
ATOM     23  C   UNL     1      45.325   5.137  11.307  0.00  0.00    +0.000 A 
ATOM     24  C   UNL     1      46.135   6.275  11.394  0.00  0.00    +0.000 A 
ATOM     25  C   UNL     1      46.945   6.486  12.515  0.00  0.00    +0.000 A 
BRANCH  23  26
ATOM     26  C   UNL     1      44.451   4.899  10.098  0.00  0.00    +0.000 C 
BRANCH  26  27
ATOM     27  N   UNL     1      45.259   4.840   8.882  0.00  0.00    +0.000 NA
ATOM     28  H   UNL     1      46.230   4.666   9.146  0.00  0.00    +0.000 HD
BRANCH  27  29
ATOM     29  C   UNL     1      44.820   3.763   8.005  0.00  0.00    +0.000 C 
BRANCH  29  30
ATOM     30  C   UNL     1      46.012   2.975   7.588  0.00  0.00    +0.000 A 
ATOM     31  C   UNL     1      46.398   1.680   7.877  0.00  0.00    +0.000 A 
ATOM     32  C   UNL     1      47.627   1.442   7.214  0.00  0.00    +0.000 A 
ATOM     33  C   UNL     1      47.961   2.596   6.542  0.00  0.00    +0.000 A 
ATOM     34  N   UNL     1      46.981   3.521   6.778  0.00  0.00    +0.000 N 
ATOM     35  H   UNL     1      46.971   4.477   6.446  0.00  0.00    +0.000 HD
ENDBRANCH  29  30
ENDBRANCH  27  29
ENDBRANCH  26  27
ENDBRANCH  23  26
ENDBRANCH  19  20
ENDBRANCH   1  19
TORSDOF 10
ENDMDL
MODEL 3
REMARK VINA RESULT:    -7.510      1.705      2.316
REMARK INTER + INTRA:         -12.542
REMARK INTER:                 -11.416
REMARK INTRA:                  -1.126
REMARK UNBOUND:                -0.862
REMARK  Name = 
REMARK  10 active torsions:
REMARK  status: ('A' for Active; 'I' for Inactive)
REMARK    1  A    between atoms: N_1  and  C_2
REMARK    2  A    between atoms: C_2  and  C_3
REMARK    3  A    between atoms: C_3  and  N_4
REMARK    4  A    between atoms: C_3  and  C_20
REMARK    5  A    between atoms: N_4  and  C_5
REMARK    6  A    between atoms: C_5  and  C_6
REMARK    7  A    between atoms: C_9  and  C_10
REMARK    8  A    between atoms: C_10  and  N_11
REMARK    9  A    between atoms: N_11  and  C_12
REMARK   10  A    between atoms: C_12  and  C_13
REMARK                            x       y       z     vdW  Elec       q    Type
REMARK                         _______ _______ _______ _____ _____    ______ ____
ROOT
ATOM      1  N   UNL     1      48.174   6.057  15.081  0.00  0.00    +0.000 NA
ATOM      2  H   UNL     1      47.201   5.916  15.347  0.00  0.00    +0.000 HD
ENDROOT
BRANCH   1   3
ATOM      3  C   UNL     1      48.761   7.011  16.049  0.00  0.00    +0.000 C 
BRANCH   3   4
ATOM      4  C   UNL     1      50.214   6.606  16.274  0.00  0.00    +0.000 A 
ATOM      5  C   UNL     1      51.322   7.312  15.825  0.00  0.00    +0.000 A 
ATOM      6  S   UNL     1      52.809   6.617  16.292  0.00  0.00    +0.000 S 
ATOM      7  C   UNL     1      52.024   5.368  17.141  0.00  0.00    +0.000 A 
ATOM      8  N   UNL     1      52.730   4.434  17.834  0.00  0.00    +0.000 NA
ATOM      9  C   UNL     1      51.998   3.570  18.453  0.00  0.00    +0.000 A 
ATOM     10  N   UNL     1      50.626   3.541  18.428  0.00  0.00    +0.000 N 
ATOM     11  C   UNL     1      49.867   4.448  17.722  0.00  0.00    +0.000 A 
ATOM     12  O   UNL     1      48.642   4.379  17.688  0.00  0.00    +0.000 OA
ATOM     13  C   UNL     1      50.649   5.461  17.039  0.00  0.00    +0.000 A 
ATOM     14  H   UNL     1      50.112   2.823  18.924  0.00  0.00    +0.000 HD
ENDBRANCH   3   4
BRANCH   3  15
ATOM     15  C   UNL     1      48.667   8.501  15.584  0.00  0.00    +0.000 C 
BRANCH  15  16
ATOM     16  N   UNL     1      47.628   9.276  16.278  0.00  0.00    +0.000 NA
ATOM     17  H   UNL     1      47.846   9.346  17.268  0.00  0.00    +0.000 HD
ATOM     18  H   UNL     1      46.745   8.769  16.188  0.00  0.00    +0.000 HD
ENDBRANCH  15  16
ENDBRANCH   3  15
ENDBRANCH   1   3
BRANCH   1  19
ATOM     19  C   UNL     1      48.200   6.549  13.705  0.00  0.00    +0.000 C 
BRANCH  19  20
ATOM     20  C   UNL     1      47.060   5.969  12.897  0.00  0.00    +0.000 A 
ATOM     21  C   UNL     1      46.311   4.889  13.385  0.00  0.00    +0.000 A 
ATOM     22  C   UNL     1      45.260   4.356  12.637  0.00  0.00    +0.000 A 
ATOM     23  C   UNL     1      44.917   4.903  11.393  0.00  0.00    +0.000 A 
ATOM     24  C   UNL     1      45.659   5.985  10.906  0.00  0.00    +0.000 A 
ATOM     25  C   UNL     1      46.722   6.510  11.648  0.00  0.00    +0.000 A 
BRANCH  23  26
ATOM     26  C   UNL     1      43.772   4.327  10.595  0.00  0.00    +0.000 C 
BRANCH  26  27
ATOM     27  N   UNL     1      44.207   3.985   9.243  0.00  0.00    +0.000 NA
ATOM     28  H   UNL     1      45.036   4.537   9.020  0.00  0.00    +0.000 HD
BRANCH  27  29
ATOM     29  C   UNL     1      44.553   2.574   9.138  0.00  0.00    +0.000 C 
BRANCH  29  30
ATOM     30  C   UNL     1      45.688   2.433   8.186  0.00  0.00    +0.000 A 
ATOM     31  C   UNL     1      46.242   3.324   7.287  0.00  0.00    +0.000 A 
ATOM     32  C   UNL     1      47.308   2.662   6.630  0.00  0.00    +0.000 A 
ATOM     33  C   UNL     1      47.375   1.385   7.141  0.00  0.00    +0.000 A 
ATOM     34  N   UNL     1      46.387   1.253   8.079  0.00  0.00    +0.000 N 
ATOM     35  H   UNL     1      46.167   0.413   8.598  0.00  0.00    +0.000 HD
ENDBRANCH  29  30
ENDBRANCH  27  29
ENDBRANCH  26  27
ENDBRANCH  23  26
ENDBRANCH  19  20
ENDBRANCH   1  19
TORSDOF 10
ENDMDL
MODEL 4
REMARK VINA RESULT:    -7.460      1.990      2.325
REMARK INTER + INTRA:         -12.465
REMARK INTER:                 -11.195
REMARK INTRA:                  -1.270
REMARK UNBOUND:                -0.862
REMARK  Name = 
REMARK  10 active torsions:
REMARK  status: ('A' for Active; 'I' for Inactive)
REMARK    1  A    between atoms: N_1  and  C_2
REMARK    2  A    between atoms: C_2  and  C_3
REMARK    3  A    between atoms: C_3  and  N_4
REMARK    4  A    between atoms: C_3  and  C_20
REMARK    5  A    between atoms: N_4  and  C_5
REMARK    6  A    between atoms: C_5  and  C_6
REMARK    7  A    between atoms: C_9  and  C_10
REMARK    8  A    between atoms: C_10  and  N_11
REMARK    9  A    between atoms: N_11  and  C_12
REMARK   10  A    between atoms: C_12  and  C_13
REMARK                            x       y       z     vdW  Elec       q    Type
REMARK                         _______ _______ _______ _____ _____    ______ ____
ROOT
ATOM      1  N   UNL     1      48.842   6.265  16.753  0.00  0.00    +0.000 NA
ATOM      2  H   UNL     1      49.465   6.693  17.436  0.00  0.00    +0.000 HD
ENDROOT
BRANCH   1   3
ATOM      3  C   UNL     1      48.832   4.809  17.020  0.00  0.00    +0.000 C 
BRANCH   3   4
ATOM      4  C   UNL     1      50.166   4.450  17.669  0.00  0.00    +0.000 A 
ATOM      5  C   UNL     1      50.908   5.285  18.493  0.00  0.00    +0.000 A 
ATOM      6  S   UNL     1      52.328   4.559  19.100  0.00  0.00    +0.000 S 
ATOM      7  C   UNL     1      51.981   3.091  18.313  0.00  0.00    +0.000 A 
ATOM      8  N   UNL     1      52.788   2.005  18.460  0.00  0.00    +0.000 NA
ATOM      9  C   UNL     1      52.380   0.954  17.829  0.00  0.00    +0.000 A 
ATOM     10  N   UNL     1      51.253   0.895  17.049  0.00  0.00    +0.000 N 
ATOM     11  C   UNL     1      50.419   1.972  16.849  0.00  0.00    +0.000 A 
ATOM     12  O   UNL     1      49.435   1.902  16.119  0.00  0.00    +0.000 OA
ATOM     13  C   UNL     1      50.819   3.166  17.570  0.00  0.00    +0.000 A 
ATOM     14  H   UNL     1      50.999   0.041  16.567  0.00  0.00    +0.000 HD
ENDBRANCH   3   4
BRANCH   3  15
ATOM     15  C   UNL     1      47.638   4.352  17.921  0.00  0.00    +0.000 C 
BRANCH  15  16
ATOM     16  N   UNL     1      46.831   3.272  17.334  0.00  0.00    +0.000 NA
ATOM     17  H   UNL     1      46.743   3.406  16.331  0.00  0.00    +0.000 HD
ATOM     18  H   UNL     1      45.895   3.324  17.740  0.00  0.00    +0.000 HD
ENDBRANCH  15  16
ENDBRANCH   3  15
ENDBRANCH   1   3
BRANCH   1  19
ATOM     19  C   UNL     1      49.335   6.599  15.418  0.00  0.00    +0.000 C 
BRANCH  19  20
ATOM     20  C   UNL     1      48.190   6.793  14.448  0.00  0.00    +0.000 A 
ATOM     21  C   UNL     1      47.474   5.694  13.953  0.00  0.00    +0.000 A 
ATOM     22  C   UNL     1      46.419   5.877  13.057  0.00  0.00    +0.000 A 
ATOM     23  C   UNL     1      46.039   7.164  12.653  0.00  0.00    +0.000 A 
ATOM     24  C   UNL     1      46.748   8.264  13.150  0.00  0.00    +0.000 A 
ATOM     25  C   UNL     1      47.815   8.080  14.036  0.00  0.00    +0.000 A 
BRANCH  23  26
ATOM     26  C   UNL     1      44.890   7.354  11.692  0.00  0.00    +0.000 C 
BRANCH  26  27
ATOM     27  N   UNL     1      43.680   6.712  12.202  0.00  0.00    +0.000 NA
ATOM     28  H   UNL     1      43.099   7.423  12.649  0.00  0.00    +0.000 HD
BRANCH  27  29
ATOM     29  C   UNL     1      42.911   6.099  11.127  0.00  0.00    +0.000 C 
BRANCH  29  30
ATOM     30  C   UNL     1      43.404   4.710  10.924  0.00  0.00    +0.000 A 
ATOM     31  C   UNL     1      44.275   4.176   9.994  0.00  0.00    +0.000 A 
ATOM     32  C   UNL     1      44.390   2.790  10.261  0.00  0.00    +0.000 A 
ATOM     33  C   UNL     1      43.585   2.512  11.342  0.00  0.00    +0.000 A 
ATOM     34  N   UNL     1      42.987   3.679  11.735  0.00  0.00    +0.000 N 
ATOM     35  H   UNL     1      42.312   3.781  12.482  0.00  0.00    +0.000 HD
ENDBRANCH  29  30
ENDBRANCH  27  29
ENDBRANCH  26  27
ENDBRANCH  23  26
ENDBRANCH  19  20
ENDBRANCH   1  19
TORSDOF 10
ENDMDL
MODEL 5
REMARK VINA RESULT:    -7.170      3.019      4.021
REMARK INTER + INTRA:         -12.014
REMARK INTER:                 -10.856
REMARK INTRA:                  -1.157
REMARK UNBOUND:                -0.862
REMARK  Name = 
REMARK  10 active torsions:
REMARK  status: ('A' for Active; 'I' for Inactive)
REMARK    1  A    between atoms: N_1  and  C_2
REMARK    2  A    between atoms: C_2  and  C_3
REMARK    3  A    between atoms: C_3  and  N_4
REMARK    4  A    between atoms: C_3  and  C_20
REMARK    5  A    between atoms: N_4  and  C_5
REMARK    6  A    between atoms: C_5  and  C_6
REMARK    7  A    between atoms: C_9  and  C_10
REMARK    8  A    between atoms: C_10  and  N_11
REMARK    9  A    between atoms: N_11  and  C_12
REMARK   10  A    between atoms: C_12  and  C_13
REMARK                            x       y       z     vdW  Elec       q    Type
REMARK                         _______ _______ _______ _____ _____    ______ ____
ROOT
ATOM      1  N   UNL     1      48.617   6.409  14.038  0.00  0.00    +0.000 NA
ATOM      2  H   UNL     1      48.233   5.500  14.292  0.00  0.00    +0.000 HD
ENDROOT
BRANCH   1   3
ATOM      3  C   UNL     1      49.045   7.070  15.291  0.00  0.00    +0.000 C 
BRANCH   3   4
ATOM      4  C   UNL     1      48.553   6.216  16.455  0.00  0.00    +0.000 A 
ATOM      5  C   UNL     1      48.342   4.844  16.411  0.00  0.00    +0.000 A 
ATOM      6  S   UNL     1      47.842   4.182  17.902  0.00  0.00    +0.000 S 
ATOM      7  C   UNL     1      47.925   5.699  18.668  0.00  0.00    +0.000 A 
ATOM      8  N   UNL     1      47.665   5.833  19.997  0.00  0.00    +0.000 NA
ATOM      9  C   UNL     1      47.799   7.038  20.443  0.00  0.00    +0.000 A 
ATOM     10  N   UNL     1      48.149   8.123  19.680  0.00  0.00    +0.000 N 
ATOM     11  C   UNL     1      48.398   8.044  18.328  0.00  0.00    +0.000 A 
ATOM     12  O   UNL     1      48.676   9.037  17.662  0.00  0.00    +0.000 OA
ATOM     13  C   UNL     1      48.294   6.701  17.790  0.00  0.00    +0.000 A 
ATOM     14  H   UNL     1      48.221   9.046  20.091  0.00  0.00    +0.000 HD
ENDBRANCH   3   4
BRANCH   3  15
ATOM     15  C   UNL     1      50.592   7.287  15.379  0.00  0.00    +0.000 C 
BRANCH  15  16
ATOM     16  N   UNL     1      51.221   7.606  14.088  0.00  0.00    +0.000 NA
ATOM     17  H   UNL     1      50.575   8.127  13.503  0.00  0.00    +0.000 HD
ATOM     18  H   UNL     1      51.431   6.725  13.615  0.00  0.00    +0.000 HD
ENDBRANCH  15  16
ENDBRANCH   3  15
ENDBRANCH   1   3
BRANCH   1  19
ATOM     19  C   UNL     1      47.582   7.154  13.323  0.00  0.00    +0.000 C 
BRANCH  19  20
ATOM     20  C   UNL     1      46.565   6.219  12.707  0.00  0.00    +0.000 A 
ATOM     21  C   UNL     1      46.136   6.395  11.384  0.00  0.00    +0.000 A 
ATOM     22  C   UNL     1      45.196   5.530  10.819  0.00  0.00    +0.000 A 
ATOM     23  C   UNL     1      44.681   4.455  11.555  0.00  0.00    +0.000 A 
ATOM     24  C   UNL     1      45.112   4.272  12.874  0.00  0.00    +0.000 A 
ATOM     25  C   UNL     1      46.042   5.147  13.445  0.00  0.00    +0.000 A 
BRANCH  23  26
ATOM     26  C   UNL     1      43.673   3.517  10.933  0.00  0.00    +0.000 C 
BRANCH  26  27
ATOM     27  N   UNL     1      43.974   3.302   9.519  0.00  0.00    +0.000 NA
ATOM     28  H   UNL     1      44.549   4.078   9.188  0.00  0.00    +0.000 HD
BRANCH  27  29
ATOM     29  C   UNL     1      44.714   2.064   9.317  0.00  0.00    +0.000 C 
BRANCH  29  30
ATOM     30  C   UNL     1      45.748   2.294   8.271  0.00  0.00    +0.000 A 
ATOM     31  C   UNL     1      46.056   3.413   7.522  0.00  0.00    +0.000 A 
ATOM     32  C   UNL     1      47.136   3.074   6.670  0.00  0.00    +0.000 A 
ATOM     33  C   UNL     1      47.457   1.759   6.918  0.00  0.00    +0.000 A 
ATOM     34  N   UNL     1      46.608   1.292   7.885  0.00  0.00    +0.000 N 
ATOM     35  H   UNL     1      46.579   0.348   8.247  0.00  0.00    +0.000 HD
ENDBRANCH  29  30
ENDBRANCH  27  29
ENDBRANCH  26  27
ENDBRANCH  23  26
ENDBRANCH  19  20
ENDBRANCH   1  19
TORSDOF 10
ENDMDL
MODEL 6
REMARK VINA RESULT:    -7.123      3.118      8.863
REMARK INTER + INTRA:         -11.940
REMARK INTER:                 -10.861
REMARK INTRA:                  -1.079
REMARK UNBOUND:                -0.862
REMARK  Name = 
REMARK  10 active torsions:
REMARK  status: ('A' for Active; 'I' for Inactive)
REMARK    1  A    between atoms: N_1  and  C_2
REMARK    2  A    between atoms: C_2  and  C_3
REMARK    3  A    between atoms: C_3  and  N_4
REMARK    4  A    between atoms: C_3  and  C_20
REMARK    5  A    between atoms: N_4  and  C_5
REMARK    6  A    between atoms: C_5  and  C_6
REMARK    7  A    between atoms: C_9  and  C_10
REMARK    8  A    between atoms: C_10  and  N_11
REMARK    9  A    between atoms: N_11  and  C_12
REMARK   10  A    between atoms: C_12  and  C_13
REMARK                            x       y       z     vdW  Elec       q    Type
REMARK                         _______ _______ _______ _____ _____    ______ ____
ROOT
ATOM      1  N   UNL     1      46.769   6.514  11.378  0.00  0.00    +0.000 NA
ATOM      2  H   UNL     1      47.353   6.839  10.609  0.00  0.00    +0.000 HD
ENDROOT
BRANCH   1   3
ATOM      3  C   UNL     1      45.362   6.598  10.926  0.00  0.00    +0.000 C 
BRANCH   3   4
ATOM      4  C   UNL     1      44.774   5.191  10.985  0.00  0.00    +0.000 A 
ATOM      5  C   UNL     1      43.958   4.705  11.998  0.00  0.00    +0.000 A 
ATOM      6  S   UNL     1      43.423   3.106  11.736  0.00  0.00    +0.000 S 
ATOM      7  C   UNL     1      44.233   3.020  10.242  0.00  0.00    +0.000 A 
ATOM      8  N   UNL     1      44.145   1.914   9.454  0.00  0.00    +0.000 NA
ATOM      9  C   UNL     1      44.785   2.008   8.337  0.00  0.00    +0.000 A 
ATOM     10  N   UNL     1      45.523   3.096   7.944  0.00  0.00    +0.000 N 
ATOM     11  C   UNL     1      45.664   4.228   8.715  0.00  0.00    +0.000 A 
ATOM     12  O   UNL     1      46.358   5.174   8.355  0.00  0.00    +0.000 OA
ATOM     13  C   UNL     1      44.930   4.181   9.965  0.00  0.00    +0.000 A 
ATOM     14  H   UNL     1      46.016   3.097   7.059  0.00  0.00    +0.000 HD
ENDBRANCH   3   4
BRANCH   3  15
ATOM     15  C   UNL     1      44.499   7.594  11.766  0.00  0.00    +0.000 C 
BRANCH  15  16
ATOM     16  N   UNL     1      43.364   8.168  11.027  0.00  0.00    +0.000 NA
ATOM     17  H   UNL     1      42.488   7.848  11.427  0.00  0.00    +0.000 HD
ATOM     18  H   UNL     1      43.412   7.827  10.065  0.00  0.00    +0.000 HD
ENDBRANCH  15  16
ENDBRANCH   3  15
ENDBRANCH   1   3
BRANCH   1  19
ATOM     19  C   UNL     1      47.046   7.352  12.544  0.00  0.00    +0.000 C 
BRANCH  19  20
ATOM     20  C   UNL     1      47.398   6.508  13.749  0.00  0.00    +0.000 A 
ATOM     21  C   UNL     1      48.288   6.983  14.723  0.00  0.00    +0.000 A 
ATOM     22  C   UNL     1      48.611   6.201  15.833  0.00  0.00    +0.000 A 
ATOM     23  C   UNL     1      48.035   4.936  16.010  0.00  0.00    +0.000 A 
ATOM     24  C   UNL     1      47.141   4.462  15.043  0.00  0.00    +0.000 A 
ATOM     25  C   UNL     1      46.828   5.239  13.923  0.00  0.00    +0.000 A 
BRANCH  23  26
ATOM     26  C   UNL     1      48.381   4.102  17.220  0.00  0.00    +0.000 C 
BRANCH  26  27
ATOM     27  N   UNL     1      49.795   3.730  17.202  0.00  0.00    +0.000 NA
ATOM     28  H   UNL     1      50.211   3.995  18.096  0.00  0.00    +0.000 HD
BRANCH  27  29
ATOM     29  C   UNL     1      49.963   2.294  17.024  0.00  0.00    +0.000 C 
BRANCH  29  30
ATOM     30  C   UNL     1      51.354   1.929  17.407  0.00  0.00    +0.000 A 
ATOM     31  C   UNL     1      52.428   2.705  17.797  0.00  0.00    +0.000 A 
ATOM     32  C   UNL     1      53.518   1.835  18.045  0.00  0.00    +0.000 A 
ATOM     33  C   UNL     1      53.084   0.552  17.796  0.00  0.00    +0.000 A 
ATOM     34  N   UNL     1      51.773   0.618  17.406  0.00  0.00    +0.000 N 
ATOM     35  H   UNL     1      51.197  -0.163  17.121  0.00  0.00    +0.000 HD
ENDBRANCH  29  30
ENDBRANCH  27  29
ENDBRANCH  26  27
ENDBRANCH  23  26
ENDBRANCH  19  20
ENDBRANCH   1  19
TORSDOF 10
ENDMDL
MODEL 7
REMARK VINA RESULT:    -6.976      2.497      3.637
REMARK INTER + INTRA:         -11.711
REMARK INTER:                 -10.902
REMARK INTRA:                  -0.809
REMARK UNBOUND:                -0.862
REMARK  Name = 
REMARK  10 active torsions:
REMARK  status: ('A' for Active; 'I' for Inactive)
REMARK    1  A    between atoms: N_1  and  C_2
REMARK    2  A    between atoms: C_2  and  C_3
REMARK    3  A    between atoms: C_3  and  N_4
REMARK    4  A    between atoms: C_3  and  C_20
REMARK    5  A    between atoms: N_4  and  C_5
REMARK    6  A    between atoms: C_5  and  C_6
REMARK    7  A    between atoms: C_9  and  C_10
REMARK    8  A    between atoms: C_10  and  N_11
REMARK    9  A    between atoms: N_11  and  C_12
REMARK   10  A    between atoms: C_12  and  C_13
REMARK                            x       y       z     vdW  Elec       q    Type
REMARK                         _______ _______ _______ _____ _____    ______ ____
ROOT
ATOM      1  N   UNL     1      48.470   6.564  14.539  0.00  0.00    +0.000 NA
ATOM      2  H   UNL     1      47.526   6.648  14.912  0.00  0.00    +0.000 HD
ENDROOT
BRANCH   1   3
ATOM      3  C   UNL     1      49.276   7.652  15.137  0.00  0.00    +0.000 C 
BRANCH   3   4
ATOM      4  C   UNL     1      48.752   7.892  16.550  0.00  0.00    +0.000 A 
ATOM      5  C   UNL     1      48.278   9.104  17.035  0.00  0.00    +0.000 A 
ATOM      6  S   UNL     1      47.713   9.021  18.643  0.00  0.00    +0.000 S 
ATOM      7  C   UNL     1      48.047   7.355  18.735  0.00  0.00    +0.000 A 
ATOM      8  N   UNL     1      47.746   6.636  19.850  0.00  0.00    +0.000 NA
ATOM      9  C   UNL     1      48.027   5.379  19.761  0.00  0.00    +0.000 A 
ATOM     10  N   UNL     1      48.600   4.778  18.668  0.00  0.00    +0.000 N 
ATOM     11  C   UNL     1      48.947   5.466  17.526  0.00  0.00    +0.000 A 
ATOM     12  O   UNL     1      49.490   4.911  16.576  0.00  0.00    +0.000 OA
ATOM     13  C   UNL     1      48.615   6.878  17.569  0.00  0.00    +0.000 A 
ATOM     14  H   UNL     1      48.811   3.787  18.670  0.00  0.00    +0.000 HD
ENDBRANCH   3   4
BRANCH   3  15
ATOM     15  C   UNL     1      50.809   7.345  15.161  0.00  0.00    +0.000 C 
BRANCH  15  16
ATOM     16  N   UNL     1      51.549   7.925  14.030  0.00  0.00    +0.000 NA
ATOM     17  H   UNL     1      51.375   8.924  13.973  0.00  0.00    +0.000 HD
ATOM     18  H   UNL     1      51.197   7.496  13.172  0.00  0.00    +0.000 HD
ENDBRANCH  15  16
ENDBRANCH   3  15
ENDBRANCH   1   3
BRANCH   1  19
ATOM     19  C   UNL     1      48.391   6.646  13.082  0.00  0.00    +0.000 C 
BRANCH  19  20
ATOM     20  C   UNL     1      47.150   5.951  12.564  0.00  0.00    +0.000 A 
ATOM     21  C   UNL     1      46.541   6.364  11.371  0.00  0.00    +0.000 A 
ATOM     22  C   UNL     1      45.396   5.722  10.897  0.00  0.00    +0.000 A 
ATOM     23  C   UNL     1      44.846   4.636  11.591  0.00  0.00    +0.000 A 
ATOM     24  C   UNL     1      45.455   4.217  12.780  0.00  0.00    +0.000 A 
ATOM     25  C   UNL     1      46.594   4.870  13.263  0.00  0.00    +0.000 A 
BRANCH  23  26
ATOM     26  C   UNL     1      43.613   3.939  11.066  0.00  0.00    +0.000 C 
BRANCH  26  27
ATOM     27  N   UNL     1      43.800   3.543   9.672  0.00  0.00    +0.000 NA
ATOM     28  H   UNL     1      44.340   4.269   9.198  0.00  0.00    +0.000 HD
BRANCH  27  29
ATOM     29  C   UNL     1      44.532   2.287   9.571  0.00  0.00    +0.000 C 
BRANCH  29  30
ATOM     30  C   UNL     1      45.568   2.426   8.511  0.00  0.00    +0.000 A 
ATOM     31  C   UNL     1      45.948   3.508   7.741  0.00  0.00    +0.000 A 
ATOM     32  C   UNL     1      46.990   3.078   6.883  0.00  0.00    +0.000 A 
ATOM     33  C   UNL     1      47.217   1.746   7.149  0.00  0.00    +0.000 A 
ATOM     34  N   UNL     1      46.348   1.358   8.132  0.00  0.00    +0.000 N 
ATOM     35  H   UNL     1      46.254   0.423   8.509  0.00  0.00    +0.000 HD
ENDBRANCH  29  30
ENDBRANCH  27  29
ENDBRANCH  26  27
ENDBRANCH  23  26
ENDBRANCH  19  20
ENDBRANCH   1  19
TORSDOF 10
ENDMDL
MODEL 8
REMARK VINA RESULT:    -6.841      2.369      3.036
REMARK INTER + INTRA:         -11.502
REMARK INTER:                 -10.544
REMARK INTRA:                  -0.958
REMARK UNBOUND:                -0.862
REMARK  Name = 
REMARK  10 active torsions:
REMARK  status: ('A' for Active; 'I' for Inactive)
REMARK    1  A    between atoms: N_1  and  C_2
REMARK    2  A    between atoms: C_2  and  C_3
REMARK    3  A    between atoms: C_3  and  N_4
REMARK    4  A    between atoms: C_3  and  C_20
REMARK    5  A    between atoms: N_4  and  C_5
REMARK    6  A    between atoms: C_5  and  C_6
REMARK    7  A    between atoms: C_9  and  C_10
REMARK    8  A    between atoms: C_10  and  N_11
REMARK    9  A    between atoms: N_11  and  C_12
REMARK   10  A    between atoms: C_12  and  C_13
REMARK                            x       y       z     vdW  Elec       q    Type
REMARK                         _______ _______ _______ _____ _____    ______ ____
ROOT
ATOM      1  N   UNL     1      48.536   5.848  15.023  0.00  0.00    +0.000 NA
ATOM      2  H   UNL     1      49.394   5.309  15.121  0.00  0.00    +0.000 HD
ENDROOT
BRANCH   1   3
ATOM      3  C   UNL     1      48.460   6.768  16.179  0.00  0.00    +0.000 C 
BRANCH   3   4
ATOM      4  C   UNL     1      49.507   6.321  17.195  0.00  0.00    +0.000 A 
ATOM      5  C   UNL     1      50.879   6.477  17.054  0.00  0.00    +0.000 A 
ATOM      6  S   UNL     1      51.772   5.918  18.396  0.00  0.00    +0.000 S 
ATOM      7  C   UNL     1      50.353   5.481  19.229  0.00  0.00    +0.000 A 
ATOM      8  N   UNL     1      50.404   4.975  20.490  0.00  0.00    +0.000 NA
ATOM      9  C   UNL     1      49.247   4.720  21.005  0.00  0.00    +0.000 A 
ATOM     10  N   UNL     1      48.046   4.905  20.367  0.00  0.00    +0.000 N 
ATOM     11  C   UNL     1      47.943   5.391  19.082  0.00  0.00    +0.000 A 
ATOM     12  O   UNL     1      46.858   5.514  18.523  0.00  0.00    +0.000 OA
ATOM     13  C   UNL     1      49.219   5.725  18.478  0.00  0.00    +0.000 A 
ATOM     14  H   UNL     1      47.173   4.669  20.824  0.00  0.00    +0.000 HD
ENDBRANCH   3   4
BRANCH   3  15
ATOM     15  C   UNL     1      48.670   8.268  15.792  0.00  0.00    +0.000 C 
BRANCH  15  16
ATOM     16  N   UNL     1      47.514   8.875  15.114  0.00  0.00    +0.000 NA
ATOM     17  H   UNL     1      46.728   8.231  15.119  0.00  0.00    +0.000 HD
ATOM     18  H   UNL     1      47.775   9.044  14.140  0.00  0.00    +0.000 HD
ENDBRANCH  15  16
ENDBRANCH   3  15
ENDBRANCH   1   3
BRANCH   1  19
ATOM     19  C   UNL     1      47.416   4.910  14.963  0.00  0.00    +0.000 C 
BRANCH  19  20
ATOM     20  C   UNL     1      46.665   5.041  13.656  0.00  0.00    +0.000 A 
ATOM     21  C   UNL     1      46.925   6.105  12.782  0.00  0.00    +0.000 A 
ATOM     22  C   UNL     1      46.229   6.223  11.578  0.00  0.00    +0.000 A 
ATOM     23  C   UNL     1      45.273   5.268  11.207  0.00  0.00    +0.000 A 
ATOM     24  C   UNL     1      45.016   4.200  12.074  0.00  0.00    +0.000 A 
ATOM     25  C   UNL     1      45.702   4.089  13.288  0.00  0.00    +0.000 A 
BRANCH  23  26
ATOM     26  C   UNL     1      44.533   5.396   9.896  0.00  0.00    +0.000 C 
BRANCH  26  27
ATOM     27  N   UNL     1      45.344   4.885   8.794  0.00  0.00    +0.000 NA
ATOM     28  H   UNL     1      46.313   4.814   9.109  0.00  0.00    +0.000 HD
BRANCH  27  29
ATOM     29  C   UNL     1      44.899   3.561   8.378  0.00  0.00    +0.000 C 
BRANCH  29  30
ATOM     30  C   UNL     1      46.058   2.833   7.793  0.00  0.00    +0.000 A 
ATOM     31  C   UNL     1      46.423   1.502   7.848  0.00  0.00    +0.000 A 
ATOM     32  C   UNL     1      47.623   1.356   7.110  0.00  0.00    +0.000 A 
ATOM     33  C   UNL     1      47.962   2.599   6.626  0.00  0.00    +0.000 A 
ATOM     34  N   UNL     1      47.011   3.490   7.048  0.00  0.00    +0.000 N 
ATOM     35  H   UNL     1      47.013   4.487   6.880  0.00  0.00    +0.000 HD
ENDBRANCH  29  30
ENDBRANCH  27  29
ENDBRANCH  26  27
ENDBRANCH  23  26
ENDBRANCH  19  20
ENDBRANCH   1  19
TORSDOF 10
ENDMDL
MODEL 9
REMARK VINA RESULT:    -6.641      3.429      8.620
REMARK INTER + INTRA:         -11.191
REMARK INTER:                  -9.963
REMARK INTRA:                  -1.228
REMARK UNBOUND:                -0.862
REMARK  Name = 
REMARK  10 active torsions:
REMARK  status: ('A' for Active; 'I' for Inactive)
REMARK    1  A    between atoms: N_1  and  C_2
REMARK    2  A    between atoms: C_2  and  C_3
REMARK    3  A    between atoms: C_3  and  N_4
REMARK    4  A    between atoms: C_3  and  C_20
REMARK    5  A    between atoms: N_4  and  C_5
REMARK    6  A    between atoms: C_5  and  C_6
REMARK    7  A    between atoms: C_9  and  C_10
REMARK    8  A    between atoms: C_10  and  N_11
REMARK    9  A    between atoms: N_11  and  C_12
REMARK   10  A    between atoms: C_12  and  C_13
REMARK                            x       y       z     vdW  Elec       q    Type
REMARK                         _______ _______ _______ _____ _____    ______ ____
ROOT
ATOM      1  N   UNL     1      47.116   6.704  11.831  0.00  0.00    +0.000 NA
ATOM      2  H   UNL     1      47.726   6.226  11.170  0.00  0.00    +0.000 HD
ENDROOT
BRANCH   1   3
ATOM      3  C   UNL     1      45.777   6.795  11.207  0.00  0.00    +0.000 C 
BRANCH   3   4
ATOM      4  C   UNL     1      45.098   5.439  11.372  0.00  0.00    +0.000 A 
ATOM      5  C   UNL     1      44.422   5.013  12.508  0.00  0.00    +0.000 A 
ATOM      6  S   UNL     1      43.728   3.462  12.347  0.00  0.00    +0.000 S 
ATOM      7  C   UNL     1      44.277   3.321  10.743  0.00  0.00    +0.000 A 
ATOM      8  N   UNL     1      43.976   2.229   9.989  0.00  0.00    +0.000 NA
ATOM      9  C   UNL     1      44.433   2.278   8.782  0.00  0.00    +0.000 A 
ATOM     10  N   UNL     1      45.180   3.306   8.266  0.00  0.00    +0.000 N 
ATOM     11  C   UNL     1      45.532   4.420   8.996  0.00  0.00    +0.000 A 
ATOM     12  O   UNL     1      46.230   5.311   8.520  0.00  0.00    +0.000 OA
ATOM     13  C   UNL     1      45.008   4.425  10.349  0.00  0.00    +0.000 A 
ATOM     14  H   UNL     1      45.522   3.274   7.313  0.00  0.00    +0.000 HD
ENDBRANCH   3   4
BRANCH   3  15
ATOM     15  C   UNL     1      44.890   7.934  11.808  0.00  0.00    +0.000 C 
BRANCH  15  16
ATOM     16  N   UNL     1      43.643   8.171  11.065  0.00  0.00    +0.000 NA
ATOM     17  H   UNL     1      42.841   7.933  11.642  0.00  0.00    +0.000 HD
ATOM     18  H   UNL     1      43.640   7.551  10.252  0.00  0.00    +0.000 HD
ENDBRANCH  15  16
ENDBRANCH   3  15
ENDBRANCH   1   3
BRANCH   1  19
ATOM     19  C   UNL     1      47.702   8.012  12.122  0.00  0.00    +0.000 C 
BRANCH  19  20
ATOM     20  C   UNL     1      48.287   8.048  13.517  0.00  0.00    +0.000 A 
ATOM     21  C   UNL     1      47.740   8.879  14.505  0.00  0.00    +0.000 A 
ATOM     22  C   UNL     1      48.284   8.910  15.790  0.00  0.00    +0.000 A 
ATOM     23  C   UNL     1      49.372   8.095  16.127  0.00  0.00    +0.000 A 
ATOM     24  C   UNL     1      49.917   7.259  15.145  0.00  0.00    +0.000 A 
ATOM     25  C   UNL     1      49.382   7.238  13.852  0.00  0.00    +0.000 A 
BRANCH  23  26
ATOM     26  C   UNL     1      49.947   8.126  17.523  0.00  0.00    +0.000 C 
BRANCH  26  27
ATOM     27  N   UNL     1      50.014   6.778  18.083  0.00  0.00    +0.000 NA
ATOM     28  H   UNL     1      50.658   6.787  18.875  0.00  0.00    +0.000 HD
BRANCH  27  29
ATOM     29  C   UNL     1      48.709   6.336  18.557  0.00  0.00    +0.000 C 
BRANCH  29  30
ATOM     30  C   UNL     1      48.438   4.981  18.004  0.00  0.00    +0.000 A 
ATOM     31  C   UNL     1      49.272   4.052  17.412  0.00  0.00    +0.000 A 
ATOM     32  C   UNL     1      48.484   2.925  17.070  0.00  0.00    +0.000 A 
ATOM     33  C   UNL     1      47.191   3.196  17.458  0.00  0.00    +0.000 A 
ATOM     34  N   UNL     1      47.171   4.444  18.019  0.00  0.00    +0.000 N 
ATOM     35  H   UNL     1      46.353   4.930  18.362  0.00  0.00    +0.000 HD
ENDBRANCH  29  30
ENDBRANCH  27  29
ENDBRANCH  26  27
ENDBRANCH  23  26
ENDBRANCH  19  20
ENDBRANCH   1  19
TORSDOF 10
ENDMDL
