MODEL 1
REMARK VINA RESULT:    -8.198      0.000      0.000
REMARK INTER + INTRA:         -13.427
REMARK INTER:                 -12.032
REMARK INTRA:                  -1.396
REMARK UNBOUND:                -1.396
REMARK  Name = 
REMARK  10 active torsions:
REMARK  status: ('A' for Active; 'I' for Inactive)
REMARK    1  A    between atoms: C_1  and  O_2
REMARK    2  A    between atoms: O_2  and  C_3
REMARK    3  A    between atoms: C_10  and  C_11
REMARK    4  A    between atoms: N_13  and  C_14
REMARK    5  A    between atoms: C_14  and  C_15
REMARK    6  A    between atoms: C_18  and  C_19
REMARK    7  A    between atoms: C_19  and  N_20
REMARK    8  A    between atoms: N_20  and  C_21
REMARK    9  A    between atoms: C_21  and  C_22
REMARK   10  A    between atoms: C_27  and  C_28
REMARK                            x       y       z     vdW  Elec       q    Type
REMARK                         _______ _______ _______ _____ _____    ______ ____
ROOT
ATOM      1  C   UNL     1      46.755   6.095  12.495  0.00  0.00    +0.000 A 
ATOM      2  C   UNL     1      46.494   4.929  13.226  0.00  0.00    +0.000 A 
ATOM      3  C   UNL     1      45.586   3.976  12.749  0.00  0.00    +0.000 A 
ATOM      4  C   UNL     1      44.921   4.166  11.529  0.00  0.00    +0.000 A 
ATOM      5  C   UNL     1      45.200   5.322  10.790  0.00  0.00    +0.000 A 
ATOM      6  C   UNL     1      46.110   6.273  11.264  0.00  0.00    +0.000 A 
ENDROOT
BRANCH   1   7
ATOM      7  C   UNL     1      47.750   7.114  12.993  0.00  0.00    +0.000 C 
BRANCH   7  10
ATOM      8  C   UNL     1      48.824   6.981  15.204  0.00  0.00    +0.000 C 
ATOM      9  O   UNL     1      49.904   6.677  14.700  0.00  0.00    +0.000 OA
ATOM     10  N   UNL     1      47.718   7.205  14.430  0.00  0.00    +0.000 N 
ATOM     11  H   UNL     1      46.828   7.406  14.865  0.00  0.00    +0.000 HD
BRANCH   8  19
ATOM     12  C   UNL     1      48.775   4.714  17.796  0.00  0.00    +0.000 A 
ATOM     13  N   UNL     1      48.724   4.062  18.975  0.00  0.00    +0.000 NA
ATOM     14  C   UNL     1      48.543   4.784  20.085  0.00  0.00    +0.000 A 
ATOM     15  N   UNL     1      48.405   6.104  20.165  0.00  0.00    +0.000 NA
ATOM     16  C   UNL     1      48.470   6.713  18.973  0.00  0.00    +0.000 A 
ATOM     17  S   UNL     1      48.307   8.403  18.888  0.00  0.00    +0.000 S 
ATOM     18  C   UNL     1      48.485   8.383  17.197  0.00  0.00    +0.000 A 
ATOM     19  C   UNL     1      48.670   7.112  16.664  0.00  0.00    +0.000 A 
ATOM     20  C   UNL     1      48.658   6.113  17.733  0.00  0.00    +0.000 A 
BRANCH  12  22
ATOM     21  C   UNL     1      47.830   3.240  16.252  0.00  0.00    +0.000 C 
ATOM     22  O   UNL     1      48.988   3.966  16.657  0.00  0.00    +0.000 OA
ENDBRANCH  12  22
ENDBRANCH   8  19
ENDBRANCH   7  10
ENDBRANCH   1   7
BRANCH   4  23
ATOM     23  C   UNL     1      43.940   3.135  11.011  0.00  0.00    +0.000 C 
BRANCH  23  24
ATOM     24  N   UNL     1      44.078   2.941   9.567  0.00  0.00    +0.000 NA
ATOM     25  H   UNL     1      44.410   3.807   9.146  0.00  0.00    +0.000 HD
BRANCH  24  26
ATOM     26  C   UNL     1      45.026   1.872   9.260  0.00  0.00    +0.000 C 
BRANCH  26  27
ATOM     27  C   UNL     1      45.918   2.235   8.090  0.00  0.00    +0.000 A 
ATOM     28  C   UNL     1      45.946   3.569   7.641  0.00  0.00    +0.000 A 
ATOM     29  C   UNL     1      46.792   3.961   6.602  0.00  0.00    +0.000 A 
ATOM     30  C   UNL     1      47.627   3.029   5.997  0.00  0.00    +0.000 A 
ATOM     31  C   UNL     1      47.585   1.696   6.402  0.00  0.00    +0.000 A 
ATOM     32  C   UNL     1      46.721   1.280   7.429  0.00  0.00    +0.000 A 
ATOM     33  C   UNL     1      46.645  -0.184   7.768  0.00  0.00    +0.000 C 
ENDBRANCH  26  27
ENDBRANCH  24  26
ENDBRANCH  23  24
ENDBRANCH   4  23
TORSDOF 8
ENDMDL
MODEL 2
REMARK VINA RESULT:    -8.122      0.704      1.658
REMARK INTER + INTRA:         -13.316
REMARK INTER:                 -11.956
REMARK INTRA:                  -1.359
REMARK UNBOUND:                -1.396
REMARK  Name = 
REMARK  10 active torsions:
REMARK  status: ('A' for Active; 'I' for Inactive)
REMARK    1  A    between atoms: C_1  and  O_2
REMARK    2  A    between atoms: O_2  and  C_3
REMARK    3  A    between atoms: C_10  and  C_11
REMARK    4  A    between atoms: N_13  and  C_14
REMARK    5  A    between atoms: C_14  and  C_15
REMARK    6  A    between atoms: C_18  and  C_19
REMARK    7  A    between atoms: C_19  and  N_20
REMARK    8  A    between atoms: N_20  and  C_21
REMARK    9  A    between atoms: C_21  and  C_22
REMARK   10  A    between atoms: C_27  and  C_28
REMARK                            x       y       z     vdW  Elec       q    Type
REMARK                         _______ _______ _______ _____ _____    ______ ____
ROOT
ATOM      1  C   UNL     1      46.946   6.546  12.974  0.00  0.00    +0.000 A 
ATOM      2  C   UNL     1      46.038   6.882  11.961  0.00  0.00    +0.000 A 
ATOM      3  C   UNL     1      45.138   5.931  11.465  0.00  0.00    +0.000 A 
ATOM      4  C   UNL     1      45.125   4.623  11.972  0.00  0.00    +0.000 A 
ATOM      5  C   UNL     1      46.019   4.295  12.999  0.00  0.00    +0.000 A 
ATOM      6  C   UNL     1      46.915   5.247  13.497  0.00  0.00    +0.000 A 
ENDROOT
BRANCH   1   7
ATOM      7  C   UNL     1      47.902   7.573  13.528  0.00  0.00    +0.000 C 
BRANCH   7  10
ATOM      8  C   UNL     1      49.005   7.091  15.675  0.00  0.00    +0.000 C 
ATOM      9  O   UNL     1      50.017   6.690  15.104  0.00  0.00    +0.000 OA
ATOM     10  N   UNL     1      47.920   7.536  14.968  0.00  0.00    +0.000 N 
ATOM     11  H   UNL     1      47.080   7.817  15.453  0.00  0.00    +0.000 HD
BRANCH   8  19
ATOM     12  C   UNL     1      48.902   4.620  18.072  0.00  0.00    +0.000 A 
ATOM     13  N   UNL     1      48.851   3.875  19.194  0.00  0.00    +0.000 NA
ATOM     14  C   UNL     1      48.754   4.510  20.366  0.00  0.00    +0.000 A 
ATOM     15  N   UNL     1      48.702   5.824  20.560  0.00  0.00    +0.000 NA
ATOM     16  C   UNL     1      48.764   6.527  19.420  0.00  0.00    +0.000 A 
ATOM     17  S   UNL     1      48.705   8.225  19.481  0.00  0.00    +0.000 S 
ATOM     18  C   UNL     1      48.823   8.337  17.789  0.00  0.00    +0.000 A 
ATOM     19  C   UNL     1      48.910   7.107  17.146  0.00  0.00    +0.000 A 
ATOM     20  C   UNL     1      48.872   6.025  18.129  0.00  0.00    +0.000 A 
BRANCH  12  22
ATOM     21  C   UNL     1      47.842   3.264  16.496  0.00  0.00    +0.000 C 
ATOM     22  O   UNL     1      49.028   3.960  16.868  0.00  0.00    +0.000 OA
ENDBRANCH  12  22
ENDBRANCH   8  19
ENDBRANCH   7  10
ENDBRANCH   1   7
BRANCH   4  23
ATOM     23  C   UNL     1      44.150   3.594  11.437  0.00  0.00    +0.000 C 
BRANCH  23  24
ATOM     24  N   UNL     1      44.844   2.514  10.734  0.00  0.00    +0.000 NA
ATOM     25  H   UNL     1      44.622   1.628  11.184  0.00  0.00    +0.000 HD
BRANCH  24  26
ATOM     26  C   UNL     1      44.443   2.447   9.331  0.00  0.00    +0.000 C 
BRANCH  26  27
ATOM     27  C   UNL     1      45.637   2.247   8.418  0.00  0.00    +0.000 A 
ATOM     28  C   UNL     1      46.081   0.938   8.153  0.00  0.00    +0.000 A 
ATOM     29  C   UNL     1      47.143   0.702   7.278  0.00  0.00    +0.000 A 
ATOM     30  C   UNL     1      47.774   1.769   6.648  0.00  0.00    +0.000 A 
ATOM     31  C   UNL     1      47.373   3.074   6.927  0.00  0.00    +0.000 A 
ATOM     32  C   UNL     1      46.323   3.330   7.827  0.00  0.00    +0.000 A 
ATOM     33  C   UNL     1      45.988   4.757   8.165  0.00  0.00    +0.000 C 
ENDBRANCH  26  27
ENDBRANCH  24  26
ENDBRANCH  23  24
ENDBRANCH   4  23
TORSDOF 8
ENDMDL
MODEL 3
REMARK VINA RESULT:    -7.688      1.666      3.082
REMARK INTER + INTRA:         -12.679
REMARK INTER:                 -11.324
REMARK INTRA:                  -1.355
REMARK UNBOUND:                -1.396
REMARK  Name = 
REMARK  10 active torsions:
REMARK  status: ('A' for Active; 'I' for Inactive)
REMARK    1  A    between atoms: C_1  and  O_2
REMARK    2  A    between atoms: O_2  and  C_3
REMARK    3  A    between atoms: C_10  and  C_11
REMARK    4  A    between atoms: N_13  and  C_14
REMARK    5  A    between atoms: C_14  and  C_15
REMARK    6  A    between atoms: C_18  and  C_19
REMARK    7  A    between atoms: C_19  and  N_20
REMARK    8  A    between atoms: N_20  and  C_21
REMARK    9  A    between atoms: C_21  and  C_22
REMARK   10  A    between atoms: C_27  and  C_28
REMARK                            x       y       z     vdW  Elec       q    Type
REMARK                         _______ _______ _______ _____ _____    ______ ____
ROOT
ATOM      1  C   UNL     1      46.858   4.303  13.988  0.00  0.00    +0.000 A 
ATOM      2  C   UNL     1      47.099   5.623  13.583  0.00  0.00    +0.000 A 
ATOM      3  C   UNL     1      46.513   6.132  12.419  0.00  0.00    +0.000 A 
ATOM      4  C   UNL     1      45.669   5.332  11.633  0.00  0.00    +0.000 A 
ATOM      5  C   UNL     1      45.413   4.021  12.050  0.00  0.00    +0.000 A 
ATOM      6  C   UNL     1      45.996   3.514  13.216  0.00  0.00    +0.000 A 
ENDROOT
BRANCH   1   7
ATOM      7  C   UNL     1      47.470   3.759  15.254  0.00  0.00    +0.000 C 
BRANCH   7  10
ATOM      8  C   UNL     1      48.460   5.150  17.027  0.00  0.00    +0.000 C 
ATOM      9  O   UNL     1      49.589   4.734  16.771  0.00  0.00    +0.000 OA
ATOM     10  N   UNL     1      47.368   4.713  16.328  0.00  0.00    +0.000 N 
ATOM     11  H   UNL     1      46.443   5.030  16.584  0.00  0.00    +0.000 HD
BRANCH   8  19
ATOM     12  C   UNL     1      48.685   8.583  17.180  0.00  0.00    +0.000 A 
ATOM     13  N   UNL     1      48.687   9.890  17.513  0.00  0.00    +0.000 NA
ATOM     14  C   UNL     1      48.364  10.219  18.768  0.00  0.00    +0.000 A 
ATOM     15  N   UNL     1      48.033   9.388  19.751  0.00  0.00    +0.000 NA
ATOM     16  C   UNL     1      48.035   8.101  19.375  0.00  0.00    +0.000 A 
ATOM     17  S   UNL     1      47.639   6.898  20.510  0.00  0.00    +0.000 S 
ATOM     18  C   UNL     1      47.859   5.670  19.356  0.00  0.00    +0.000 A 
ATOM     19  C   UNL     1      48.232   6.135  18.100  0.00  0.00    +0.000 A 
ATOM     20  C   UNL     1      48.339   7.594  18.117  0.00  0.00    +0.000 A 
BRANCH  12  22
ATOM     21  C   UNL     1      48.128   8.878  14.932  0.00  0.00    +0.000 C 
ATOM     22  O   UNL     1      48.993   8.252  15.878  0.00  0.00    +0.000 OA
ENDBRANCH  12  22
ENDBRANCH   8  19
ENDBRANCH   7  10
ENDBRANCH   1   7
BRANCH   4  23
ATOM     23  C   UNL     1      45.032   5.882  10.374  0.00  0.00    +0.000 C 
BRANCH  23  24
ATOM     24  N   UNL     1      45.739   5.430   9.174  0.00  0.00    +0.000 NA
ATOM     25  H   UNL     1      46.620   5.000   9.450  0.00  0.00    +0.000 HD
BRANCH  24  26
ATOM     26  C   UNL     1      44.950   4.456   8.425  0.00  0.00    +0.000 C 
BRANCH  26  27
ATOM     27  C   UNL     1      45.804   3.301   7.939  0.00  0.00    +0.000 A 
ATOM     28  C   UNL     1      46.803   3.547   6.979  0.00  0.00    +0.000 A 
ATOM     29  C   UNL     1      47.648   2.526   6.542  0.00  0.00    +0.000 A 
ATOM     30  C   UNL     1      47.514   1.243   7.061  0.00  0.00    +0.000 A 
ATOM     31  C   UNL     1      46.506   0.972   7.984  0.00  0.00    +0.000 A 
ATOM     32  C   UNL     1      45.630   1.983   8.415  0.00  0.00    +0.000 A 
ATOM     33  C   UNL     1      44.502   1.621   9.343  0.00  0.00    +0.000 C 
ENDBRANCH  26  27
ENDBRANCH  24  26
ENDBRANCH  23  24
ENDBRANCH   4  23
TORSDOF 8
ENDMDL
MODEL 4
REMARK VINA RESULT:    -7.661      1.888      2.421
REMARK INTER + INTRA:         -12.639
REMARK INTER:                 -11.125
REMARK INTRA:                  -1.515
REMARK UNBOUND:                -1.396
REMARK  Name = 
REMARK  10 active torsions:
REMARK  status: ('A' for Active; 'I' for Inactive)
REMARK    1  A    between atoms: C_1  and  O_2
REMARK    2  A    between atoms: O_2  and  C_3
REMARK    3  A    between atoms: C_10  and  C_11
REMARK    4  A    between atoms: N_13  and  C_14
REMARK    5  A    between atoms: C_14  and  C_15
REMARK    6  A    between atoms: C_18  and  C_19
REMARK    7  A    between atoms: C_19  and  N_20
REMARK    8  A    between atoms: N_20  and  C_21
REMARK    9  A    between atoms: C_21  and  C_22
REMARK   10  A    between atoms: C_27  and  C_28
REMARK                            x       y       z     vdW  Elec       q    Type
REMARK                         _______ _______ _______ _____ _____    ______ ____
ROOT
ATOM      1  C   UNL     1      46.622   6.465  13.104  0.00  0.00    +0.000 A 
ATOM      2  C   UNL     1      46.890   5.119  13.391  0.00  0.00    +0.000 A 
ATOM      3  C   UNL     1      46.014   4.111  12.972  0.00  0.00    +0.000 A 
ATOM      4  C   UNL     1      44.851   4.425  12.252  0.00  0.00    +0.000 A 
ATOM      5  C   UNL     1      44.596   5.768  11.948  0.00  0.00    +0.000 A 
ATOM      6  C   UNL     1      45.474   6.775  12.364  0.00  0.00    +0.000 A 
ENDROOT
BRANCH   1   7
ATOM      7  C   UNL     1      47.575   7.552  13.533  0.00  0.00    +0.000 C 
BRANCH   7  10
ATOM      8  C   UNL     1      49.413   7.733  15.160  0.00  0.00    +0.000 C 
ATOM      9  O   UNL     1      49.138   8.909  15.392  0.00  0.00    +0.000 OA
ATOM     10  N   UNL     1      48.693   7.002  14.255  0.00  0.00    +0.000 N 
ATOM     11  H   UNL     1      48.964   6.052  14.042  0.00  0.00    +0.000 HD
BRANCH   8  19
ATOM     12  C   UNL     1      49.612   5.028  17.282  0.00  0.00    +0.000 A 
ATOM     13  N   UNL     1      49.973   4.023  18.105  0.00  0.00    +0.000 NA
ATOM     14  C   UNL     1      51.269   3.892  18.405  0.00  0.00    +0.000 A 
ATOM     15  N   UNL     1      52.269   4.655  17.975  0.00  0.00    +0.000 NA
ATOM     16  C   UNL     1      51.868   5.635  17.154  0.00  0.00    +0.000 A 
ATOM     17  S   UNL     1      53.017   6.711  16.512  0.00  0.00    +0.000 S 
ATOM     18  C   UNL     1      51.816   7.564  15.664  0.00  0.00    +0.000 A 
ATOM     19  C   UNL     1      50.532   7.059  15.844  0.00  0.00    +0.000 A 
ATOM     20  C   UNL     1      50.568   5.904  16.740  0.00  0.00    +0.000 A 
BRANCH  12  22
ATOM     21  C   UNL     1      47.649   3.879  16.757  0.00  0.00    +0.000 C 
ATOM     22  O   UNL     1      48.277   5.143  16.956  0.00  0.00    +0.000 OA
ENDBRANCH  12  22
ENDBRANCH   8  19
ENDBRANCH   7  10
ENDBRANCH   1   7
BRANCH   4  23
ATOM     23  C   UNL     1      43.903   3.335  11.796  0.00  0.00    +0.000 C 
BRANCH  23  24
ATOM     24  N   UNL     1      44.557   2.410  10.869  0.00  0.00    +0.000 NA
ATOM     25  H   UNL     1      44.201   1.470  11.032  0.00  0.00    +0.000 HD
BRANCH  24  26
ATOM     26  C   UNL     1      44.301   2.779   9.479  0.00  0.00    +0.000 C 
BRANCH  26  27
ATOM     27  C   UNL     1      45.488   2.461   8.590  0.00  0.00    +0.000 A 
ATOM     28  C   UNL     1      45.820   1.115   8.351  0.00  0.00    +0.000 A 
ATOM     29  C   UNL     1      46.870   0.773   7.497  0.00  0.00    +0.000 A 
ATOM     30  C   UNL     1      47.604   1.771   6.864  0.00  0.00    +0.000 A 
ATOM     31  C   UNL     1      47.314   3.110   7.119  0.00  0.00    +0.000 A 
ATOM     32  C   UNL     1      46.276   3.470   7.996  0.00  0.00    +0.000 A 
ATOM     33  C   UNL     1      46.062   4.926   8.310  0.00  0.00    +0.000 C 
ENDBRANCH  26  27
ENDBRANCH  24  26
ENDBRANCH  23  24
ENDBRANCH   4  23
TORSDOF 8
ENDMDL
MODEL 5
REMARK VINA RESULT:    -7.396      1.491      2.038
REMARK INTER + INTRA:         -12.250
REMARK INTER:                 -11.043
REMARK INTRA:                  -1.208
REMARK UNBOUND:                -1.396
REMARK  Name = 
REMARK  10 active torsions:
REMARK  status: ('A' for Active; 'I' for Inactive)
REMARK    1  A    between atoms: C_1  and  O_2
REMARK    2  A    between atoms: O_2  and  C_3
REMARK    3  A    between atoms: C_10  and  C_11
REMARK    4  A    between atoms: N_13  and  C_14
REMARK    5  A    between atoms: C_14  and  C_15
REMARK    6  A    between atoms: C_18  and  C_19
REMARK    7  A    between atoms: C_19  and  N_20
REMARK    8  A    between atoms: N_20  and  C_21
REMARK    9  A    between atoms: C_21  and  C_22
REMARK   10  A    between atoms: C_27  and  C_28
REMARK                            x       y       z     vdW  Elec       q    Type
REMARK                         _______ _______ _______ _____ _____    ______ ____
ROOT
ATOM      1  C   UNL     1      47.065   8.110  13.255  0.00  0.00    +0.000 A 
ATOM      2  C   UNL     1      47.597   6.945  12.687  0.00  0.00    +0.000 A 
ATOM      3  C   UNL     1      46.852   6.193  11.771  0.00  0.00    +0.000 A 
ATOM      4  C   UNL     1      45.559   6.590  11.400  0.00  0.00    +0.000 A 
ATOM      5  C   UNL     1      45.037   7.766  11.953  0.00  0.00    +0.000 A 
ATOM      6  C   UNL     1      45.783   8.520  12.866  0.00  0.00    +0.000 A 
ENDROOT
BRANCH   1   7
ATOM      7  C   UNL     1      47.873   8.937  14.225  0.00  0.00    +0.000 C 
BRANCH   7  10
ATOM      8  C   UNL     1      49.411   7.933  15.864  0.00  0.00    +0.000 C 
ATOM      9  O   UNL     1      50.392   8.308  15.224  0.00  0.00    +0.000 OA
ATOM     10  N   UNL     1      48.139   8.199  15.433  0.00  0.00    +0.000 N 
ATOM     11  H   UNL     1      47.346   7.841  15.946  0.00  0.00    +0.000 HD
BRANCH   8  19
ATOM     12  C   UNL     1      48.378   4.811  16.888  0.00  0.00    +0.000 A 
ATOM     13  N   UNL     1      48.109   3.659  17.533  0.00  0.00    +0.000 NA
ATOM     14  C   UNL     1      48.537   3.530  18.793  0.00  0.00    +0.000 A 
ATOM     15  N   UNL     1      49.215   4.428  19.501  0.00  0.00    +0.000 NA
ATOM     16  C   UNL     1      49.469   5.553  18.819  0.00  0.00    +0.000 A 
ATOM     17  S   UNL     1      50.324   6.813  19.575  0.00  0.00    +0.000 S 
ATOM     18  C   UNL     1      50.231   7.778  18.178  0.00  0.00    +0.000 A 
ATOM     19  C   UNL     1      49.559   7.176  17.120  0.00  0.00    +0.000 A 
ATOM     20  C   UNL     1      49.102   5.843  17.510  0.00  0.00    +0.000 A 
BRANCH  12  22
ATOM     21  C   UNL     1      47.190   3.807  15.147  0.00  0.00    +0.000 C 
ATOM     22  O   UNL     1      47.956   4.929  15.580  0.00  0.00    +0.000 OA
ENDBRANCH  12  22
ENDBRANCH   8  19
ENDBRANCH   7  10
ENDBRANCH   1   7
BRANCH   4  23
ATOM     23  C   UNL     1      44.752   5.779  10.408  0.00  0.00    +0.000 C 
BRANCH  23  24
ATOM     24  N   UNL     1      45.576   5.336   9.282  0.00  0.00    +0.000 NA
ATOM     25  H   UNL     1      46.423   4.898   9.642  0.00  0.00    +0.000 HD
BRANCH  24  26
ATOM     26  C   UNL     1      44.864   4.373   8.446  0.00  0.00    +0.000 C 
BRANCH  26  27
ATOM     27  C   UNL     1      45.791   3.292   7.926  0.00  0.00    +0.000 A 
ATOM     28  C   UNL     1      46.788   3.637   6.995  0.00  0.00    +0.000 A 
ATOM     29  C   UNL     1      47.698   2.686   6.530  0.00  0.00    +0.000 A 
ATOM     30  C   UNL     1      47.629   1.375   6.990  0.00  0.00    +0.000 A 
ATOM     31  C   UNL     1      46.624   1.006   7.882  0.00  0.00    +0.000 A 
ATOM     32  C   UNL     1      45.685   1.946   8.340  0.00  0.00    +0.000 A 
ATOM     33  C   UNL     1      44.565   1.480   9.230  0.00  0.00    +0.000 C 
ENDBRANCH  26  27
ENDBRANCH  24  26
ENDBRANCH  23  24
ENDBRANCH   4  23
TORSDOF 8
ENDMDL
MODEL 6
REMARK VINA RESULT:    -7.115      3.393      8.506
REMARK INTER + INTRA:         -11.838
REMARK INTER:                  -9.807
REMARK INTRA:                  -2.031
REMARK UNBOUND:                -1.396
REMARK  Name = 
REMARK  10 active torsions:
REMARK  status: ('A' for Active; 'I' for Inactive)
REMARK    1  A    between atoms: C_1  and  O_2
REMARK    2  A    between atoms: O_2  and  C_3
REMARK    3  A    between atoms: C_10  and  C_11
REMARK    4  A    between atoms: N_13  and  C_14
REMARK    5  A    between atoms: C_14  and  C_15
REMARK    6  A    between atoms: C_18  and  C_19
REMARK    7  A    between atoms: C_19  and  N_20
REMARK    8  A    between atoms: N_20  and  C_21
REMARK    9  A    between atoms: C_21  and  C_22
REMARK   10  A    between atoms: C_27  and  C_28
REMARK                            x       y       z     vdW  Elec       q    Type
REMARK                         _______ _______ _______ _____ _____    ______ ____
ROOT
ATOM      1  C   UNL     1      48.479   7.883  13.504  0.00  0.00    +0.000 A 
ATOM      2  C   UNL     1      48.087   8.966  14.303  0.00  0.00    +0.000 A 
ATOM      3  C   UNL     1      48.168   8.889  15.699  0.00  0.00    +0.000 A 
ATOM      4  C   UNL     1      48.645   7.730  16.327  0.00  0.00    +0.000 A 
ATOM      5  C   UNL     1      49.056   6.657  15.526  0.00  0.00    +0.000 A 
ATOM      6  C   UNL     1      48.979   6.735  14.131  0.00  0.00    +0.000 A 
ENDROOT
BRANCH   1   7
ATOM      7  C   UNL     1      48.415   7.970  12.000  0.00  0.00    +0.000 C 
BRANCH   7  10
ATOM      8  C   UNL     1      46.305   6.898  11.324  0.00  0.00    +0.000 C 
ATOM      9  O   UNL     1      45.653   7.875  11.687  0.00  0.00    +0.000 OA
ATOM     10  N   UNL     1      47.668   6.868  11.451  0.00  0.00    +0.000 N 
ATOM     11  H   UNL     1      48.182   6.038  11.192  0.00  0.00    +0.000 HD
BRANCH   8  19
ATOM     12  C   UNL     1      44.469   4.306  12.655  0.00  0.00    +0.000 A 
ATOM     13  N   UNL     1      43.732   3.205  12.902  0.00  0.00    +0.000 NA
ATOM     14  C   UNL     1      43.409   2.421  11.869  0.00  0.00    +0.000 A 
ATOM     15  N   UNL     1      43.737   2.605  10.594  0.00  0.00    +0.000 NA
ATOM     16  C   UNL     1      44.461   3.715  10.392  0.00  0.00    +0.000 A 
ATOM     17  S   UNL     1      44.973   4.104   8.818  0.00  0.00    +0.000 S 
ATOM     18  C   UNL     1      45.757   5.508   9.369  0.00  0.00    +0.000 A 
ATOM     19  C   UNL     1      45.650   5.713  10.740  0.00  0.00    +0.000 A 
ATOM     20  C   UNL     1      44.874   4.634  11.350  0.00  0.00    +0.000 A 
BRANCH  12  22
ATOM     21  C   UNL     1      46.039   4.815  14.306  0.00  0.00    +0.000 C 
ATOM     22  O   UNL     1      44.777   5.125  13.721  0.00  0.00    +0.000 OA
ENDBRANCH  12  22
ENDBRANCH   8  19
ENDBRANCH   7  10
ENDBRANCH   1   7
BRANCH   4  23
ATOM     23  C   UNL     1      48.735   7.646  17.837  0.00  0.00    +0.000 C 
BRANCH  23  24
ATOM     24  N   UNL     1      47.538   7.030  18.411  0.00  0.00    +0.000 NA
ATOM     25  H   UNL     1      46.943   6.693  17.657  0.00  0.00    +0.000 HD
BRANCH  24  26
ATOM     26  C   UNL     1      47.881   5.909  19.283  0.00  0.00    +0.000 C 
BRANCH  26  27
ATOM     27  C   UNL     1      48.351   4.707  18.487  0.00  0.00    +0.000 A 
ATOM     28  C   UNL     1      47.422   4.008  17.695  0.00  0.00    +0.000 A 
ATOM     29  C   UNL     1      47.820   2.928  16.904  0.00  0.00    +0.000 A 
ATOM     30  C   UNL     1      49.153   2.532  16.888  0.00  0.00    +0.000 A 
ATOM     31  C   UNL     1      50.080   3.189  17.696  0.00  0.00    +0.000 A 
ATOM     32  C   UNL     1      49.690   4.261  18.518  0.00  0.00    +0.000 A 
ATOM     33  C   UNL     1      50.707   4.877  19.440  0.00  0.00    +0.000 C 
ENDBRANCH  26  27
ENDBRANCH  24  26
ENDBRANCH  23  24
ENDBRANCH   4  23
TORSDOF 8
ENDMDL
MODEL 7
REMARK VINA RESULT:    -6.370      1.483      2.135
REMARK INTER + INTRA:         -10.744
REMARK INTER:                 -10.356
REMARK INTRA:                  -0.388
REMARK UNBOUND:                -1.396
REMARK  Name = 
REMARK  10 active torsions:
REMARK  status: ('A' for Active; 'I' for Inactive)
REMARK    1  A    between atoms: C_1  and  O_2
REMARK    2  A    between atoms: O_2  and  C_3
REMARK    3  A    between atoms: C_10  and  C_11
REMARK    4  A    between atoms: N_13  and  C_14
REMARK    5  A    between atoms: C_14  and  C_15
REMARK    6  A    between atoms: C_18  and  C_19
REMARK    7  A    between atoms: C_19  and  N_20
REMARK    8  A    between atoms: N_20  and  C_21
REMARK    9  A    between atoms: C_21  and  C_22
REMARK   10  A    between atoms: C_27  and  C_28
REMARK                            x       y       z     vdW  Elec       q    Type
REMARK                         _______ _______ _______ _____ _____    ______ ____
ROOT
ATOM      1  C   UNL     1      48.028   8.152  13.273  0.00  0.00    +0.000 A 
ATOM      2  C   UNL     1      46.670   8.454  13.445  0.00  0.00    +0.000 A 
ATOM      3  C   UNL     1      45.697   7.845  12.644  0.00  0.00    +0.000 A 
ATOM      4  C   UNL     1      46.058   6.918  11.656  0.00  0.00    +0.000 A 
ATOM      5  C   UNL     1      47.413   6.602  11.500  0.00  0.00    +0.000 A 
ATOM      6  C   UNL     1      48.386   7.207  12.303  0.00  0.00    +0.000 A 
ENDROOT
BRANCH   1   7
ATOM      7  C   UNL     1      49.079   8.788  14.149  0.00  0.00    +0.000 C 
BRANCH   7  10
ATOM      8  C   UNL     1      48.887   7.386  16.163  0.00  0.00    +0.000 C 
ATOM      9  O   UNL     1      49.257   6.389  15.546  0.00  0.00    +0.000 OA
ATOM     10  N   UNL     1      48.770   8.601  15.543  0.00  0.00    +0.000 N 
ATOM     11  H   UNL     1      48.418   9.398  16.054  0.00  0.00    +0.000 HD
BRANCH   8  19
ATOM     12  C   UNL     1      49.032   4.878  18.518  0.00  0.00    +0.000 A 
ATOM     13  N   UNL     1      48.990   4.100  19.619  0.00  0.00    +0.000 NA
ATOM     14  C   UNL     1      48.541   4.643  20.754  0.00  0.00    +0.000 A 
ATOM     15  N   UNL     1      48.119   5.891  20.931  0.00  0.00    +0.000 NA
ATOM     16  C   UNL     1      48.186   6.631  19.816  0.00  0.00    +0.000 A 
ATOM     17  S   UNL     1      47.681   8.254  19.858  0.00  0.00    +0.000 S 
ATOM     18  C   UNL     1      48.044   8.460  18.210  0.00  0.00    +0.000 A 
ATOM     19  C   UNL     1      48.550   7.320  17.597  0.00  0.00    +0.000 A 
ATOM     20  C   UNL     1      48.631   6.225  18.563  0.00  0.00    +0.000 A 
BRANCH  12  22
ATOM     21  C   UNL     1      50.438   3.257  17.600  0.00  0.00    +0.000 C 
ATOM     22  O   UNL     1      49.521   4.321  17.356  0.00  0.00    +0.000 OA
ENDBRANCH  12  22
ENDBRANCH   8  19
ENDBRANCH   7  10
ENDBRANCH   1   7
BRANCH   4  23
ATOM     23  C   UNL     1      45.005   6.257  10.790  0.00  0.00    +0.000 C 
BRANCH  23  24
ATOM     24  N   UNL     1      45.592   5.675   9.583  0.00  0.00    +0.000 NA
ATOM     25  H   UNL     1      46.513   5.302   9.807  0.00  0.00    +0.000 HD
BRANCH  24  26
ATOM     26  C   UNL     1      44.761   4.598   9.051  0.00  0.00    +0.000 C 
BRANCH  26  27
ATOM     27  C   UNL     1      45.595   3.544   8.349  0.00  0.00    +0.000 A 
ATOM     28  C   UNL     1      46.562   3.952   7.412  0.00  0.00    +0.000 A 
ATOM     29  C   UNL     1      47.390   3.022   6.780  0.00  0.00    +0.000 A 
ATOM     30  C   UNL     1      47.267   1.669   7.076  0.00  0.00    +0.000 A 
ATOM     31  C   UNL     1      46.289   1.242   7.973  0.00  0.00    +0.000 A 
ATOM     32  C   UNL     1      45.431   2.164   8.598  0.00  0.00    +0.000 A 
ATOM     33  C   UNL     1      44.332   1.647   9.486  0.00  0.00    +0.000 C 
ENDBRANCH  26  27
ENDBRANCH  24  26
ENDBRANCH  23  24
ENDBRANCH   4  23
TORSDOF 8
ENDMDL
MODEL 8
REMARK VINA RESULT:    -6.325      3.057      8.838
REMARK INTER + INTRA:         -10.679
REMARK INTER:                  -9.038
REMARK INTRA:                  -1.641
REMARK UNBOUND:                -1.396
REMARK  Name = 
REMARK  10 active torsions:
REMARK  status: ('A' for Active; 'I' for Inactive)
REMARK    1  A    between atoms: C_1  and  O_2
REMARK    2  A    between atoms: O_2  and  C_3
REMARK    3  A    between atoms: C_10  and  C_11
REMARK    4  A    between atoms: N_13  and  C_14
REMARK    5  A    between atoms: C_14  and  C_15
REMARK    6  A    between atoms: C_18  and  C_19
REMARK    7  A    between atoms: C_19  and  N_20
REMARK    8  A    between atoms: N_20  and  C_21
REMARK    9  A    between atoms: C_21  and  C_22
REMARK   10  A    between atoms: C_27  and  C_28
REMARK                            x       y       z     vdW  Elec       q    Type
REMARK                         _______ _______ _______ _____ _____    ______ ____
ROOT
ATOM      1  C   UNL     1      48.268   7.944  13.063  0.00  0.00    +0.000 A 
ATOM      2  C   UNL     1      47.714   8.811  14.015  0.00  0.00    +0.000 A 
ATOM      3  C   UNL     1      48.317   8.976  15.267  0.00  0.00    +0.000 A 
ATOM      4  C   UNL     1      49.488   8.279  15.597  0.00  0.00    +0.000 A 
ATOM      5  C   UNL     1      50.052   7.428  14.638  0.00  0.00    +0.000 A 
ATOM      6  C   UNL     1      49.452   7.267  13.384  0.00  0.00    +0.000 A 
ENDROOT
BRANCH   1   7
ATOM      7  C   UNL     1      47.636   7.781  11.704  0.00  0.00    +0.000 C 
BRANCH   7  10
ATOM      8  C   UNL     1      45.529   6.509  11.763  0.00  0.00    +0.000 C 
ATOM      9  O   UNL     1      44.878   7.531  11.971  0.00  0.00    +0.000 OA
ATOM     10  N   UNL     1      46.891   6.551  11.626  0.00  0.00    +0.000 N 
ATOM     11  H   UNL     1      47.414   5.695  11.503  0.00  0.00    +0.000 HD
BRANCH   8  19
ATOM     12  C   UNL     1      45.326   4.159   9.253  0.00  0.00    +0.000 A 
ATOM     13  N   UNL     1      45.094   3.091   8.465  0.00  0.00    +0.000 NA
ATOM     14  C   UNL     1      44.351   2.096   8.959  0.00  0.00    +0.000 A 
ATOM     15  N   UNL     1      43.801   2.034  10.167  0.00  0.00    +0.000 NA
ATOM     16  C   UNL     1      44.064   3.111  10.920  0.00  0.00    +0.000 A 
ATOM     17  S   UNL     1      43.433   3.203  12.497  0.00  0.00    +0.000 S 
ATOM     18  C   UNL     1      44.150   4.724  12.747  0.00  0.00    +0.000 A 
ATOM     19  C   UNL     1      44.876   5.192  11.656  0.00  0.00    +0.000 A 
ATOM     20  C   UNL     1      44.819   4.222  10.563  0.00  0.00    +0.000 A 
BRANCH  12  22
ATOM     21  C   UNL     1      46.904   4.750   7.637  0.00  0.00    +0.000 C 
ATOM     22  O   UNL     1      46.116   5.171   8.748  0.00  0.00    +0.000 OA
ENDBRANCH  12  22
ENDBRANCH   8  19
ENDBRANCH   7  10
ENDBRANCH   1   7
BRANCH   4  23
ATOM     23  C   UNL     1      50.142   8.457  16.952  0.00  0.00    +0.000 C 
BRANCH  23  24
ATOM     24  N   UNL     1      49.588   7.531  17.940  0.00  0.00    +0.000 NA
ATOM     25  H   UNL     1      48.622   7.322  17.696  0.00  0.00    +0.000 HD
BRANCH  24  26
ATOM     26  C   UNL     1      50.346   6.282  17.984  0.00  0.00    +0.000 C 
BRANCH  26  27
ATOM     27  C   UNL     1      49.464   5.084  17.697  0.00  0.00    +0.000 A 
ATOM     28  C   UNL     1      48.074   5.270  17.586  0.00  0.00    +0.000 A 
ATOM     29  C   UNL     1      47.227   4.206  17.270  0.00  0.00    +0.000 A 
ATOM     30  C   UNL     1      47.756   2.938  17.053  0.00  0.00    +0.000 A 
ATOM     31  C   UNL     1      49.127   2.726  17.196  0.00  0.00    +0.000 A 
ATOM     32  C   UNL     1      49.989   3.782  17.540  0.00  0.00    +0.000 A 
ATOM     33  C   UNL     1      51.445   3.485  17.772  0.00  0.00    +0.000 C 
ENDBRANCH  26  27
ENDBRANCH  24  26
ENDBRANCH  23  24
ENDBRANCH   4  23
TORSDOF 8
ENDMDL
MODEL 9
REMARK VINA RESULT:    -5.958      3.045      5.136
REMARK INTER + INTRA:         -10.141
REMARK INTER:                  -9.004
REMARK INTRA:                  -1.136
REMARK UNBOUND:                -1.396
REMARK  Name = 
REMARK  10 active torsions:
REMARK  status: ('A' for Active; 'I' for Inactive)
REMARK    1  A    between atoms: C_1  and  O_2
REMARK    2  A    between atoms: O_2  and  C_3
REMARK    3  A    between atoms: C_10  and  C_11
REMARK    4  A    between atoms: N_13  and  C_14
REMARK    5  A    between atoms: C_14  and  C_15
REMARK    6  A    between atoms: C_18  and  C_19
REMARK    7  A    between atoms: C_19  and  N_20
REMARK    8  A    between atoms: N_20  and  C_21
REMARK    9  A    between atoms: C_21  and  C_22
REMARK   10  A    between atoms: C_27  and  C_28
REMARK                            x       y       z     vdW  Elec       q    Type
REMARK                         _______ _______ _______ _____ _____    ______ ____
ROOT
ATOM      1  C   UNL     1      49.480   8.014  15.850  0.00  0.00    +0.000 A 
ATOM      2  C   UNL     1      49.077   6.801  15.274  0.00  0.00    +0.000 A 
ATOM      3  C   UNL     1      48.412   6.782  14.043  0.00  0.00    +0.000 A 
ATOM      4  C   UNL     1      48.136   7.974  13.358  0.00  0.00    +0.000 A 
ATOM      5  C   UNL     1      48.558   9.183  13.925  0.00  0.00    +0.000 A 
ATOM      6  C   UNL     1      49.227   9.202  15.153  0.00  0.00    +0.000 A 
ENDROOT
BRANCH   1   7
ATOM      7  C   UNL     1      50.218   8.038  17.165  0.00  0.00    +0.000 C 
BRANCH   7  10
ATOM      8  C   UNL     1      51.119   6.240  18.586  0.00  0.00    +0.000 C 
ATOM      9  O   UNL     1      50.618   6.739  19.593  0.00  0.00    +0.000 OA
ATOM     10  N   UNL     1      50.970   6.825  17.357  0.00  0.00    +0.000 N 
ATOM     11  H   UNL     1      51.429   6.427  16.549  0.00  0.00    +0.000 HD
BRANCH   8  19
ATOM     12  C   UNL     1      50.605   3.044  17.412  0.00  0.00    +0.000 A 
ATOM     13  N   UNL     1      50.662   1.741  17.070  0.00  0.00    +0.000 NA
ATOM     14  C   UNL     1      51.731   1.037  17.455  0.00  0.00    +0.000 A 
ATOM     15  N   UNL     1      52.771   1.483  18.152  0.00  0.00    +0.000 NA
ATOM     16  C   UNL     1      52.678   2.783  18.464  0.00  0.00    +0.000 A 
ATOM     17  S   UNL     1      53.921   3.519  19.360  0.00  0.00    +0.000 S 
ATOM     18  C   UNL     1      53.117   5.017  19.336  0.00  0.00    +0.000 A 
ATOM     19  C   UNL     1      51.904   4.995  18.656  0.00  0.00    +0.000 A 
ATOM     20  C   UNL     1      51.644   3.653  18.137  0.00  0.00    +0.000 A 
BRANCH  12  22
ATOM     21  C   UNL     1      48.346   2.968  16.829  0.00  0.00    +0.000 C 
ATOM     22  O   UNL     1      49.512   3.772  16.990  0.00  0.00    +0.000 OA
ENDBRANCH  12  22
ENDBRANCH   8  19
ENDBRANCH   7  10
ENDBRANCH   1   7
BRANCH   4  23
ATOM     23  C   UNL     1      47.418   7.954  12.025  0.00  0.00    +0.000 C 
BRANCH  23  24
ATOM     24  N   UNL     1      46.872   6.629  11.730  0.00  0.00    +0.000 NA
ATOM     25  H   UNL     1      46.973   6.037  12.552  0.00  0.00    +0.000 HD
BRANCH  24  26
ATOM     26  C   UNL     1      45.458   6.702  11.369  0.00  0.00    +0.000 C 
BRANCH  26  27
ATOM     27  C   UNL     1      44.787   5.346  11.463  0.00  0.00    +0.000 A 
ATOM     28  C   UNL     1      44.200   4.958  12.682  0.00  0.00    +0.000 A 
ATOM     29  C   UNL     1      43.525   3.741  12.800  0.00  0.00    +0.000 A 
ATOM     30  C   UNL     1      43.421   2.894  11.702  0.00  0.00    +0.000 A 
ATOM     31  C   UNL     1      44.030   3.244  10.498  0.00  0.00    +0.000 A 
ATOM     32  C   UNL     1      44.735   4.454  10.370  0.00  0.00    +0.000 A 
ATOM     33  C   UNL     1      45.451   4.744   9.079  0.00  0.00    +0.000 C 
ENDBRANCH  26  27
ENDBRANCH  24  26
ENDBRANCH  23  24
ENDBRANCH   4  23
TORSDOF 8
ENDMDL
