MODEL 1
REMARK VINA RESULT:    -7.709      0.000      0.000
REMARK INTER + INTRA:         -13.511
REMARK INTER:                 -11.765
REMARK INTRA:                  -1.746
REMARK UNBOUND:                -1.746
REMARK  Name = 
REMARK  10 active torsions:
REMARK  status: ('A' for Active; 'I' for Inactive)
REMARK    1  A    between atoms: C_1  and  C_2
REMARK    2  A    between atoms: C_2  and  O_3
REMARK    3  A    between atoms: O_3  and  C_4
REMARK    4  A    between atoms: C_6  and  C_7
REMARK    5  A    between atoms: C_7  and  N_8
REMARK    6  A    between atoms: C_9  and  C_11
REMARK    7  A    between atoms: C_23  and  C_24
REMARK    8  A    between atoms: C_24  and  N_25
REMARK    9  A    between atoms: N_25  and  C_26
REMARK   10  A    between atoms: C_26  and  C_27
REMARK                            x       y       z     vdW  Elec       q    Type
REMARK                         _______ _______ _______ _____ _____    ______ ____
ROOT
ATOM      1  C   UNL     1      45.543   5.006  12.859  0.00  0.00    +0.000 A 
ATOM      2  C   UNL     1      46.096   6.225  13.275  0.00  0.00    +0.000 A 
ATOM      3  C   UNL     1      45.862   7.415  12.576  0.00  0.00    +0.000 A 
ATOM      4  C   UNL     1      45.032   7.386  11.455  0.00  0.00    +0.000 A 
ATOM      5  C   UNL     1      44.437   6.187  11.054  0.00  0.00    +0.000 A 
ATOM      6  C   UNL     1      44.668   4.987  11.753  0.00  0.00    +0.000 A 
ENDROOT
BRANCH   1   7
ATOM      7  O   UNL     1      45.817   3.806  13.474  0.00  0.00    +0.000 OA
BRANCH   7   9
ATOM      8  C   UNL     1      47.149   3.704  15.478  0.00  0.00    +0.000 C 
ATOM      9  C   UNL     1      47.151   3.644  13.963  0.00  0.00    +0.000 C 
ENDBRANCH   7   9
ENDBRANCH   1   7
BRANCH   3  10
ATOM     10  C   UNL     1      46.490   8.691  13.064  0.00  0.00    +0.000 C 
BRANCH  10  11
ATOM     11  N   UNL     1      47.090   8.523  14.363  0.00  0.00    +0.000 N 
ATOM     12  C   UNL     1      48.111   9.317  14.820  0.00  0.00    +0.000 C 
ATOM     13  O   UNL     1      48.584  10.228  14.143  0.00  0.00    +0.000 OA
ATOM     14  H   UNL     1      46.863   7.669  14.860  0.00  0.00    +0.000 HD
BRANCH  12  15
ATOM     15  C   UNL     1      48.563   9.078  16.198  0.00  0.00    +0.000 A 
ATOM     16  C   UNL     1      48.384  10.067  17.155  0.00  0.00    +0.000 A 
ATOM     17  S   UNL     1      48.928   9.624  18.710  0.00  0.00    +0.000 S 
ATOM     18  C   UNL     1      49.464   8.111  18.151  0.00  0.00    +0.000 A 
ATOM     19  N   UNL     1      50.070   7.232  18.994  0.00  0.00    +0.000 NA
ATOM     20  C   UNL     1      50.457   6.135  18.432  0.00  0.00    +0.000 A 
ATOM     21  N   UNL     1      50.280   5.833  17.107  0.00  0.00    +0.000 N 
ATOM     22  C   UNL     1      49.618   6.658  16.236  0.00  0.00    +0.000 A 
ATOM     23  O   UNL     1      49.368   6.306  15.083  0.00  0.00    +0.000 OA
ATOM     24  C   UNL     1      49.202   7.932  16.802  0.00  0.00    +0.000 A 
ATOM     25  H   UNL     1      50.578   4.942  16.737  0.00  0.00    +0.000 HD
ENDBRANCH  12  15
ENDBRANCH  10  11
ENDBRANCH   3  10
BRANCH   6  26
ATOM     26  C   UNL     1      43.953   3.727  11.302  0.00  0.00    +0.000 C 
BRANCH  26  27
ATOM     27  N   UNL     1      44.899   2.735  10.803  0.00  0.00    +0.000 NA
ATOM     28  H   UNL     1      45.046   2.016  11.510  0.00  0.00    +0.000 HD
BRANCH  27  29
ATOM     29  C   UNL     1      44.454   2.099   9.564  0.00  0.00    +0.000 C 
BRANCH  29  30
ATOM     30  C   UNL     1      45.522   2.211   8.490  0.00  0.00    +0.000 A 
ATOM     31  C   UNL     1      45.751   3.442   7.873  0.00  0.00    +0.000 A 
ATOM     32  C   UNL     1      46.784   3.553   6.948  0.00  0.00    +0.000 A 
ATOM     33  C   UNL     1      47.556   2.436   6.659  0.00  0.00    +0.000 A 
ATOM     34  C   UNL     1      47.259   1.248   7.306  0.00  0.00    +0.000 A 
ATOM     35  N   UNL     1      46.266   1.109   8.213  0.00  0.00    +0.000 NA
ENDBRANCH  29  30
ENDBRANCH  27  29
ENDBRANCH  26  27
ENDBRANCH   6  26
TORSDOF 9
ENDMDL
MODEL 2
REMARK VINA RESULT:    -7.459      2.161      3.505
REMARK INTER + INTRA:         -13.129
REMARK INTER:                 -11.799
REMARK INTRA:                  -1.330
REMARK UNBOUND:                -1.746
REMARK  Name = 
REMARK  10 active torsions:
REMARK  status: ('A' for Active; 'I' for Inactive)
REMARK    1  A    between atoms: C_1  and  C_2
REMARK    2  A    between atoms: C_2  and  O_3
REMARK    3  A    between atoms: O_3  and  C_4
REMARK    4  A    between atoms: C_6  and  C_7
REMARK    5  A    between atoms: C_7  and  N_8
REMARK    6  A    between atoms: C_9  and  C_11
REMARK    7  A    between atoms: C_23  and  C_24
REMARK    8  A    between atoms: C_24  and  N_25
REMARK    9  A    between atoms: N_25  and  C_26
REMARK   10  A    between atoms: C_26  and  C_27
REMARK                            x       y       z     vdW  Elec       q    Type
REMARK                         _______ _______ _______ _____ _____    ______ ____
ROOT
ATOM      1  C   UNL     1      45.469   6.599  11.879  0.00  0.00    +0.000 A 
ATOM      2  C   UNL     1      46.608   6.868  12.651  0.00  0.00    +0.000 A 
ATOM      3  C   UNL     1      47.115   5.935  13.563  0.00  0.00    +0.000 A 
ATOM      4  C   UNL     1      46.484   4.696  13.681  0.00  0.00    +0.000 A 
ATOM      5  C   UNL     1      45.375   4.395  12.886  0.00  0.00    +0.000 A 
ATOM      6  C   UNL     1      44.861   5.330  11.967  0.00  0.00    +0.000 A 
ENDROOT
BRANCH   1   7
ATOM      7  O   UNL     1      44.898   7.522  11.034  0.00  0.00    +0.000 OA
BRANCH   7   9
ATOM      8  C   UNL     1      43.649   9.575  10.861  0.00  0.00    +0.000 C 
ATOM      9  C   UNL     1      44.801   8.857  11.539  0.00  0.00    +0.000 C 
ENDBRANCH   7   9
ENDBRANCH   1   7
BRANCH   3  10
ATOM     10  C   UNL     1      48.335   6.283  14.371  0.00  0.00    +0.000 C 
BRANCH  10  11
ATOM     11  N   UNL     1      48.010   6.490  15.758  0.00  0.00    +0.000 N 
ATOM     12  C   UNL     1      48.772   5.991  16.784  0.00  0.00    +0.000 C 
ATOM     13  O   UNL     1      49.787   5.328  16.582  0.00  0.00    +0.000 OA
ATOM     14  H   UNL     1      47.086   6.856  15.958  0.00  0.00    +0.000 HD
BRANCH  12  15
ATOM     15  C   UNL     1      48.359   6.356  18.147  0.00  0.00    +0.000 A 
ATOM     16  C   UNL     1      48.271   5.369  19.120  0.00  0.00    +0.000 A 
ATOM     17  S   UNL     1      47.814   5.957  20.654  0.00  0.00    +0.000 S 
ATOM     18  C   UNL     1      47.673   7.545  20.064  0.00  0.00    +0.000 A 
ATOM     19  N   UNL     1      47.278   8.559  20.881  0.00  0.00    +0.000 NA
ATOM     20  C   UNL     1      47.180   9.707  20.296  0.00  0.00    +0.000 A 
ATOM     21  N   UNL     1      47.455   9.934  18.973  0.00  0.00    +0.000 N 
ATOM     22  C   UNL     1      47.919   8.959  18.130  0.00  0.00    +0.000 A 
ATOM     23  O   UNL     1      48.274   9.220  16.980  0.00  0.00    +0.000 OA
ATOM     24  C   UNL     1      48.001   7.632  18.721  0.00  0.00    +0.000 A 
ATOM     25  H   UNL     1      47.391  10.864  18.586  0.00  0.00    +0.000 HD
ENDBRANCH  12  15
ENDBRANCH  10  11
ENDBRANCH   3  10
BRANCH   6  26
ATOM     26  C   UNL     1      43.686   4.929  11.093  0.00  0.00    +0.000 C 
BRANCH  26  27
ATOM     27  N   UNL     1      44.135   4.497   9.774  0.00  0.00    +0.000 NA
ATOM     28  H   UNL     1      45.011   4.961   9.541  0.00  0.00    +0.000 HD
BRANCH  27  29
ATOM     29  C   UNL     1      44.325   3.050   9.684  0.00  0.00    +0.000 C 
BRANCH  29  30
ATOM     30  C   UNL     1      45.341   2.709   8.608  0.00  0.00    +0.000 A 
ATOM     31  C   UNL     1      45.761   3.701   7.720  0.00  0.00    +0.000 A 
ATOM     32  C   UNL     1      46.750   3.400   6.789  0.00  0.00    +0.000 A 
ATOM     33  C   UNL     1      47.288   2.121   6.762  0.00  0.00    +0.000 A 
ATOM     34  C   UNL     1      46.809   1.189   7.669  0.00  0.00    +0.000 A 
ATOM     35  N   UNL     1      45.854   1.452   8.589  0.00  0.00    +0.000 NA
ENDBRANCH  29  30
ENDBRANCH  27  29
ENDBRANCH  26  27
ENDBRANCH   6  26
TORSDOF 9
ENDMDL
MODEL 3
REMARK VINA RESULT:    -7.448      3.215      3.925
REMARK INTER + INTRA:         -13.112
REMARK INTER:                 -11.428
REMARK INTRA:                  -1.683
REMARK UNBOUND:                -1.746
REMARK  Name = 
REMARK  10 active torsions:
REMARK  status: ('A' for Active; 'I' for Inactive)
REMARK    1  A    between atoms: C_1  and  C_2
REMARK    2  A    between atoms: C_2  and  O_3
REMARK    3  A    between atoms: O_3  and  C_4
REMARK    4  A    between atoms: C_6  and  C_7
REMARK    5  A    between atoms: C_7  and  N_8
REMARK    6  A    between atoms: C_9  and  C_11
REMARK    7  A    between atoms: C_23  and  C_24
REMARK    8  A    between atoms: C_24  and  N_25
REMARK    9  A    between atoms: N_25  and  C_26
REMARK   10  A    between atoms: C_26  and  C_27
REMARK                            x       y       z     vdW  Elec       q    Type
REMARK                         _______ _______ _______ _____ _____    ______ ____
ROOT
ATOM      1  C   UNL     1      45.668   5.249  13.058  0.00  0.00    +0.000 A 
ATOM      2  C   UNL     1      46.087   6.573  13.248  0.00  0.00    +0.000 A 
ATOM      3  C   UNL     1      45.617   7.615  12.441  0.00  0.00    +0.000 A 
ATOM      4  C   UNL     1      44.684   7.329  11.445  0.00  0.00    +0.000 A 
ATOM      5  C   UNL     1      44.221   6.021  11.273  0.00  0.00    +0.000 A 
ATOM      6  C   UNL     1      44.691   4.968  12.081  0.00  0.00    +0.000 A 
ENDROOT
BRANCH   1   7
ATOM      7  O   UNL     1      46.171   4.190  13.778  0.00  0.00    +0.000 OA
BRANCH   7   9
ATOM      8  C   UNL     1      47.114   4.040  15.989  0.00  0.00    +0.000 C 
ATOM      9  C   UNL     1      47.344   4.459  14.550  0.00  0.00    +0.000 C 
ENDBRANCH   7   9
ENDBRANCH   1   7
BRANCH   3  10
ATOM     10  C   UNL     1      46.109   9.015  12.686  0.00  0.00    +0.000 C 
BRANCH  10  11
ATOM     11  N   UNL     1      47.351   9.267  12.001  0.00  0.00    +0.000 N 
ATOM     12  C   UNL     1      48.332  10.078  12.512  0.00  0.00    +0.000 C 
ATOM     13  O   UNL     1      48.211  10.648  13.594  0.00  0.00    +0.000 OA
ATOM     14  H   UNL     1      47.400   8.977  11.031  0.00  0.00    +0.000 HD
BRANCH  12  15
ATOM     15  C   UNL     1      49.577  10.172  11.736  0.00  0.00    +0.000 A 
ATOM     16  C   UNL     1      50.017  11.414  11.300  0.00  0.00    +0.000 A 
ATOM     17  S   UNL     1      51.491  11.360  10.445  0.00  0.00    +0.000 S 
ATOM     18  C   UNL     1      51.573   9.667  10.587  0.00  0.00    +0.000 A 
ATOM     19  N   UNL     1      52.601   8.971  10.031  0.00  0.00    +0.000 NA
ATOM     20  C   UNL     1      52.522   7.691  10.184  0.00  0.00    +0.000 A 
ATOM     21  N   UNL     1      51.516   7.047  10.855  0.00  0.00    +0.000 N 
ATOM     22  C   UNL     1      50.496   7.710  11.486  0.00  0.00    +0.000 A 
ATOM     23  O   UNL     1      49.676   7.112  12.182  0.00  0.00    +0.000 OA
ATOM     24  C   UNL     1      50.506   9.153  11.304  0.00  0.00    +0.000 A 
ATOM     25  H   UNL     1      51.532   6.043  10.967  0.00  0.00    +0.000 HD
ENDBRANCH  12  15
ENDBRANCH  10  11
ENDBRANCH   3  10
BRANCH   6  26
ATOM     26  C   UNL     1      44.114   3.578  11.882  0.00  0.00    +0.000 C 
BRANCH  26  27
ATOM     27  N   UNL     1      44.990   2.759  11.052  0.00  0.00    +0.000 NA
ATOM     28  H   UNL     1      45.253   1.916  11.560  0.00  0.00    +0.000 HD
BRANCH  27  29
ATOM     29  C   UNL     1      44.374   2.375   9.782  0.00  0.00    +0.000 C 
BRANCH  29  30
ATOM     30  C   UNL     1      45.402   2.385   8.664  0.00  0.00    +0.000 A 
ATOM     31  C   UNL     1      45.689   3.582   8.005  0.00  0.00    +0.000 A 
ATOM     32  C   UNL     1      46.688   3.597   7.036  0.00  0.00    +0.000 A 
ATOM     33  C   UNL     1      47.367   2.422   6.746  0.00  0.00    +0.000 A 
ATOM     34  C   UNL     1      47.014   1.274   7.435  0.00  0.00    +0.000 A 
ATOM     35  N   UNL     1      46.053   1.227   8.386  0.00  0.00    +0.000 NA
ENDBRANCH  29  30
ENDBRANCH  27  29
ENDBRANCH  26  27
ENDBRANCH   6  26
TORSDOF 9
ENDMDL
MODEL 4
REMARK VINA RESULT:    -7.389      2.486      3.792
REMARK INTER + INTRA:         -13.022
REMARK INTER:                 -11.843
REMARK INTRA:                  -1.179
REMARK UNBOUND:                -1.746
REMARK  Name = 
REMARK  10 active torsions:
REMARK  status: ('A' for Active; 'I' for Inactive)
REMARK    1  A    between atoms: C_1  and  C_2
REMARK    2  A    between atoms: C_2  and  O_3
REMARK    3  A    between atoms: O_3  and  C_4
REMARK    4  A    between atoms: C_6  and  C_7
REMARK    5  A    between atoms: C_7  and  N_8
REMARK    6  A    between atoms: C_9  and  C_11
REMARK    7  A    between atoms: C_23  and  C_24
REMARK    8  A    between atoms: C_24  and  N_25
REMARK    9  A    between atoms: N_25  and  C_26
REMARK   10  A    between atoms: C_26  and  C_27
REMARK                            x       y       z     vdW  Elec       q    Type
REMARK                         _______ _______ _______ _____ _____    ______ ____
ROOT
ATOM      1  C   UNL     1      46.050   5.673  12.367  0.00  0.00    +0.000 A 
ATOM      2  C   UNL     1      46.961   6.493  13.047  0.00  0.00    +0.000 A 
ATOM      3  C   UNL     1      47.542   6.100  14.258  0.00  0.00    +0.000 A 
ATOM      4  C   UNL     1      47.227   4.845  14.781  0.00  0.00    +0.000 A 
ATOM      5  C   UNL     1      46.356   3.997  14.092  0.00  0.00    +0.000 A 
ATOM      6  C   UNL     1      45.769   4.388  12.873  0.00  0.00    +0.000 A 
ENDROOT
BRANCH   1   7
ATOM      7  O   UNL     1      45.400   6.062  11.219  0.00  0.00    +0.000 OA
BRANCH   7   9
ATOM      8  C   UNL     1      43.000   6.252  11.309  0.00  0.00    +0.000 C 
ATOM      9  C   UNL     1      44.324   6.988  11.393  0.00  0.00    +0.000 C 
ENDBRANCH   7   9
ENDBRANCH   1   7
BRANCH   3  10
ATOM     10  C   UNL     1      48.505   7.026  14.948  0.00  0.00    +0.000 C 
BRANCH  10  11
ATOM     11  N   UNL     1      49.589   6.302  15.561  0.00  0.00    +0.000 N 
ATOM     12  C   UNL     1      49.597   5.958  16.889  0.00  0.00    +0.000 C 
ATOM     13  O   UNL     1      48.674   6.251  17.647  0.00  0.00    +0.000 OA
ATOM     14  H   UNL     1      50.443   6.220  15.021  0.00  0.00    +0.000 HD
BRANCH  12  15
ATOM     15  C   UNL     1      50.734   5.147  17.351  0.00  0.00    +0.000 A 
ATOM     16  C   UNL     1      51.859   5.780  17.861  0.00  0.00    +0.000 A 
ATOM     17  S   UNL     1      53.074   4.703  18.385  0.00  0.00    +0.000 S 
ATOM     18  C   UNL     1      52.158   3.352  17.907  0.00  0.00    +0.000 A 
ATOM     19  N   UNL     1      52.647   2.092  18.056  0.00  0.00    +0.000 NA
ATOM     20  C   UNL     1      51.863   1.161  17.621  0.00  0.00    +0.000 A 
ATOM     21  N   UNL     1      50.629   1.378  17.066  0.00  0.00    +0.000 N 
ATOM     22  C   UNL     1      50.068   2.624  16.957  0.00  0.00    +0.000 A 
ATOM     23  O   UNL     1      48.910   2.774  16.567  0.00  0.00    +0.000 OA
ATOM     24  C   UNL     1      50.928   3.716  17.384  0.00  0.00    +0.000 A 
ATOM     25  H   UNL     1      50.051   0.602  16.777  0.00  0.00    +0.000 HD
ENDBRANCH  12  15
ENDBRANCH  10  11
ENDBRANCH   3  10
BRANCH   6  26
ATOM     26  C   UNL     1      44.872   3.404  12.144  0.00  0.00    +0.000 C 
BRANCH  26  27
ATOM     27  N   UNL     1      45.549   2.833  10.986  0.00  0.00    +0.000 NA
ATOM     28  H   UNL     1      45.881   1.896  11.211  0.00  0.00    +0.000 HD
BRANCH  27  29
ATOM     29  C   UNL     1      44.692   2.761   9.804  0.00  0.00    +0.000 C 
BRANCH  29  30
ATOM     30  C   UNL     1      45.521   2.511   8.555  0.00  0.00    +0.000 A 
ATOM     31  C   UNL     1      45.704   3.544   7.634  0.00  0.00    +0.000 A 
ATOM     32  C   UNL     1      46.529   3.330   6.534  0.00  0.00    +0.000 A 
ATOM     33  C   UNL     1      47.142   2.094   6.378  0.00  0.00    +0.000 A 
ATOM     34  C   UNL     1      46.900   1.118   7.331  0.00  0.00    +0.000 A 
ATOM     35  N   UNL     1      46.109   1.296   8.413  0.00  0.00    +0.000 NA
ENDBRANCH  29  30
ENDBRANCH  27  29
ENDBRANCH  26  27
ENDBRANCH   6  26
TORSDOF 9
ENDMDL
MODEL 5
REMARK VINA RESULT:    -7.357      2.018      2.985
REMARK INTER + INTRA:         -12.974
REMARK INTER:                 -11.717
REMARK INTRA:                  -1.257
REMARK UNBOUND:                -1.746
REMARK  Name = 
REMARK  10 active torsions:
REMARK  status: ('A' for Active; 'I' for Inactive)
REMARK    1  A    between atoms: C_1  and  C_2
REMARK    2  A    between atoms: C_2  and  O_3
REMARK    3  A    between atoms: O_3  and  C_4
REMARK    4  A    between atoms: C_6  and  C_7
REMARK    5  A    between atoms: C_7  and  N_8
REMARK    6  A    between atoms: C_9  and  C_11
REMARK    7  A    between atoms: C_23  and  C_24
REMARK    8  A    between atoms: C_24  and  N_25
REMARK    9  A    between atoms: N_25  and  C_26
REMARK   10  A    between atoms: C_26  and  C_27
REMARK                            x       y       z     vdW  Elec       q    Type
REMARK                         _______ _______ _______ _____ _____    ______ ____
ROOT
ATOM      1  C   UNL     1      45.249   6.953  11.796  0.00  0.00    +0.000 A 
ATOM      2  C   UNL     1      46.446   7.279  12.448  0.00  0.00    +0.000 A 
ATOM      3  C   UNL     1      47.079   6.381  13.316  0.00  0.00    +0.000 A 
ATOM      4  C   UNL     1      46.515   5.120  13.509  0.00  0.00    +0.000 A 
ATOM      5  C   UNL     1      45.346   4.763  12.831  0.00  0.00    +0.000 A 
ATOM      6  C   UNL     1      44.705   5.662  11.957  0.00  0.00    +0.000 A 
ENDROOT
BRANCH   1   7
ATOM      7  O   UNL     1      44.559   7.840  11.002  0.00  0.00    +0.000 OA
BRANCH   7   9
ATOM      8  C   UNL     1      43.628  10.017  10.564  0.00  0.00    +0.000 C 
ATOM      9  C   UNL     1      44.560   9.202  11.439  0.00  0.00    +0.000 C 
ENDBRANCH   7   9
ENDBRANCH   1   7
BRANCH   3  10
ATOM     10  C   UNL     1      48.357   6.789  13.995  0.00  0.00    +0.000 C 
BRANCH  10  11
ATOM     11  N   UNL     1      48.258   6.667  15.426  0.00  0.00    +0.000 N 
ATOM     12  C   UNL     1      48.833   7.563  16.292  0.00  0.00    +0.000 C 
ATOM     13  O   UNL     1      49.477   8.533  15.896  0.00  0.00    +0.000 OA
ATOM     14  H   UNL     1      47.910   5.784  15.784  0.00  0.00    +0.000 HD
BRANCH  12  15
ATOM     15  C   UNL     1      48.576   7.352  17.723  0.00  0.00    +0.000 A 
ATOM     16  C   UNL     1      48.111   8.408  18.495  0.00  0.00    +0.000 A 
ATOM     17  S   UNL     1      47.828   7.995  20.126  0.00  0.00    +0.000 S 
ATOM     18  C   UNL     1      48.359   6.400  19.870  0.00  0.00    +0.000 A 
ATOM     19  N   UNL     1      48.398   5.507  20.895  0.00  0.00    +0.000 NA
ATOM     20  C   UNL     1      48.853   4.342  20.570  0.00  0.00    +0.000 A 
ATOM     21  N   UNL     1      49.259   3.988  19.310  0.00  0.00    +0.000 N 
ATOM     22  C   UNL     1      49.177   4.833  18.234  0.00  0.00    +0.000 A 
ATOM     23  O   UNL     1      49.434   4.447  17.094  0.00  0.00    +0.000 OA
ATOM     24  C   UNL     1      48.718   6.176  18.551  0.00  0.00    +0.000 A 
ATOM     25  H   UNL     1      49.574   3.049  19.115  0.00  0.00    +0.000 HD
ENDBRANCH  12  15
ENDBRANCH  10  11
ENDBRANCH   3  10
BRANCH   6  26
ATOM     26  C   UNL     1      43.468   5.201  11.209  0.00  0.00    +0.000 C 
BRANCH  26  27
ATOM     27  N   UNL     1      43.815   4.670   9.896  0.00  0.00    +0.000 NA
ATOM     28  H   UNL     1      44.619   5.173   9.524  0.00  0.00    +0.000 HD
BRANCH  27  29
ATOM     29  C   UNL     1      44.120   3.241   9.923  0.00  0.00    +0.000 C 
BRANCH  29  30
ATOM     30  C   UNL     1      45.143   2.891   8.857  0.00  0.00    +0.000 A 
ATOM     31  C   UNL     1      45.638   3.894   8.023  0.00  0.00    +0.000 A 
ATOM     32  C   UNL     1      46.633   3.580   7.102  0.00  0.00    +0.000 A 
ATOM     33  C   UNL     1      47.102   2.275   7.033  0.00  0.00    +0.000 A 
ATOM     34  C   UNL     1      46.551   1.334   7.887  0.00  0.00    +0.000 A 
ATOM     35  N   UNL     1      45.588   1.609   8.796  0.00  0.00    +0.000 NA
ENDBRANCH  29  30
ENDBRANCH  27  29
ENDBRANCH  26  27
ENDBRANCH   6  26
TORSDOF 9
ENDMDL
MODEL 6
REMARK VINA RESULT:    -7.310      2.163      2.530
REMARK INTER + INTRA:         -12.902
REMARK INTER:                 -11.343
REMARK INTRA:                  -1.559
REMARK UNBOUND:                -1.746
REMARK  Name = 
REMARK  10 active torsions:
REMARK  status: ('A' for Active; 'I' for Inactive)
REMARK    1  A    between atoms: C_1  and  C_2
REMARK    2  A    between atoms: C_2  and  O_3
REMARK    3  A    between atoms: O_3  and  C_4
REMARK    4  A    between atoms: C_6  and  C_7
REMARK    5  A    between atoms: C_7  and  N_8
REMARK    6  A    between atoms: C_9  and  C_11
REMARK    7  A    between atoms: C_23  and  C_24
REMARK    8  A    between atoms: C_24  and  N_25
REMARK    9  A    between atoms: N_25  and  C_26
REMARK   10  A    between atoms: C_26  and  C_27
REMARK                            x       y       z     vdW  Elec       q    Type
REMARK                         _______ _______ _______ _____ _____    ______ ____
ROOT
ATOM      1  C   UNL     1      46.574   4.870  13.739  0.00  0.00    +0.000 A 
ATOM      2  C   UNL     1      47.570   5.851  13.844  0.00  0.00    +0.000 A 
ATOM      3  C   UNL     1      47.791   6.786  12.827  0.00  0.00    +0.000 A 
ATOM      4  C   UNL     1      46.977   6.756  11.695  0.00  0.00    +0.000 A 
ATOM      5  C   UNL     1      45.950   5.814  11.594  0.00  0.00    +0.000 A 
ATOM      6  C   UNL     1      45.723   4.870  12.615  0.00  0.00    +0.000 A 
ENDROOT
BRANCH   1   7
ATOM      7  O   UNL     1      46.384   3.887  14.682  0.00  0.00    +0.000 OA
BRANCH   7   9
ATOM      8  C   UNL     1      47.103   3.663  16.969  0.00  0.00    +0.000 C 
ATOM      9  C   UNL     1      47.510   3.588  15.511  0.00  0.00    +0.000 C 
ENDBRANCH   7   9
ENDBRANCH   1   7
BRANCH   3  10
ATOM     10  C   UNL     1      48.880   7.810  12.992  0.00  0.00    +0.000 C 
BRANCH  10  11
ATOM     11  N   UNL     1      49.979   7.294  13.767  0.00  0.00    +0.000 N 
ATOM     12  C   UNL     1      50.769   8.088  14.560  0.00  0.00    +0.000 C 
ATOM     13  O   UNL     1      50.589   9.300  14.657  0.00  0.00    +0.000 OA
ATOM     14  H   UNL     1      50.275   6.347  13.560  0.00  0.00    +0.000 HD
BRANCH  12  15
ATOM     15  C   UNL     1      51.798   7.404  15.356  0.00  0.00    +0.000 A 
ATOM     16  C   UNL     1      53.139   7.636  15.080  0.00  0.00    +0.000 A 
ATOM     17  S   UNL     1      54.207   6.797  16.111  0.00  0.00    +0.000 S 
ATOM     18  C   UNL     1      52.917   6.058  16.936  0.00  0.00    +0.000 A 
ATOM     19  N   UNL     1      53.150   5.175  17.944  0.00  0.00    +0.000 NA
ATOM     20  C   UNL     1      52.082   4.662  18.461  0.00  0.00    +0.000 A 
ATOM     21  N   UNL     1      50.805   4.965  18.069  0.00  0.00    +0.000 N 
ATOM     22  C   UNL     1      50.520   5.896  17.105  0.00  0.00    +0.000 A 
ATOM     23  O   UNL     1      49.362   6.234  16.862  0.00  0.00    +0.000 OA
ATOM     24  C   UNL     1      51.686   6.470  16.452  0.00  0.00    +0.000 A 
ATOM     25  H   UNL     1      50.011   4.553  18.539  0.00  0.00    +0.000 HD
ENDBRANCH  12  15
ENDBRANCH  10  11
ENDBRANCH   3  10
BRANCH   6  26
ATOM     26  C   UNL     1      44.560   3.904  12.474  0.00  0.00    +0.000 C 
BRANCH  26  27
ATOM     27  N   UNL     1      44.837   2.891  11.462  0.00  0.00    +0.000 NA
ATOM     28  H   UNL     1      44.535   1.979  11.798  0.00  0.00    +0.000 HD
BRANCH  27  29
ATOM     29  C   UNL     1      44.179   3.169  10.186  0.00  0.00    +0.000 C 
BRANCH  29  30
ATOM     30  C   UNL     1      45.119   2.888   9.026  0.00  0.00    +0.000 A 
ATOM     31  C   UNL     1      45.500   3.932   8.181  0.00  0.00    +0.000 A 
ATOM     32  C   UNL     1      46.422   3.682   7.170  0.00  0.00    +0.000 A 
ATOM     33  C   UNL     1      46.935   2.400   7.024  0.00  0.00    +0.000 A 
ATOM     34  C   UNL     1      46.499   1.416   7.896  0.00  0.00    +0.000 A 
ATOM     35  N   UNL     1      45.608   1.628   8.891  0.00  0.00    +0.000 NA
ENDBRANCH  29  30
ENDBRANCH  27  29
ENDBRANCH  26  27
ENDBRANCH   6  26
TORSDOF 9
ENDMDL
MODEL 7
REMARK VINA RESULT:    -7.294      1.940      2.571
REMARK INTER + INTRA:         -12.877
REMARK INTER:                 -11.911
REMARK INTRA:                  -0.967
REMARK UNBOUND:                -1.746
REMARK  Name = 
REMARK  10 active torsions:
REMARK  status: ('A' for Active; 'I' for Inactive)
REMARK    1  A    between atoms: C_1  and  C_2
REMARK    2  A    between atoms: C_2  and  O_3
REMARK    3  A    between atoms: O_3  and  C_4
REMARK    4  A    between atoms: C_6  and  C_7
REMARK    5  A    between atoms: C_7  and  N_8
REMARK    6  A    between atoms: C_9  and  C_11
REMARK    7  A    between atoms: C_23  and  C_24
REMARK    8  A    between atoms: C_24  and  N_25
REMARK    9  A    between atoms: N_25  and  C_26
REMARK   10  A    between atoms: C_26  and  C_27
REMARK                            x       y       z     vdW  Elec       q    Type
REMARK                         _______ _______ _______ _____ _____    ______ ____
ROOT
ATOM      1  C   UNL     1      45.515   5.415  11.901  0.00  0.00    +0.000 A 
ATOM      2  C   UNL     1      46.389   6.184  12.683  0.00  0.00    +0.000 A 
ATOM      3  C   UNL     1      46.278   7.577  12.757  0.00  0.00    +0.000 A 
ATOM      4  C   UNL     1      45.250   8.209  12.057  0.00  0.00    +0.000 A 
ATOM      5  C   UNL     1      44.342   7.453  11.309  0.00  0.00    +0.000 A 
ATOM      6  C   UNL     1      44.450   6.052  11.232  0.00  0.00    +0.000 A 
ENDROOT
BRANCH   1   7
ATOM      7  O   UNL     1      45.646   4.055  11.742  0.00  0.00    +0.000 OA
BRANCH   7   9
ATOM      8  C   UNL     1      43.775   2.889  12.713  0.00  0.00    +0.000 C 
ATOM      9  C   UNL     1      45.241   3.253  12.855  0.00  0.00    +0.000 C 
ENDBRANCH   7   9
ENDBRANCH   1   7
BRANCH   3  10
ATOM     10  C   UNL     1      47.250   8.349  13.605  0.00  0.00    +0.000 C 
BRANCH  10  11
ATOM     11  N   UNL     1      47.660   7.595  14.761  0.00  0.00    +0.000 N 
ATOM     12  C   UNL     1      48.878   6.971  14.850  0.00  0.00    +0.000 C 
ATOM     13  O   UNL     1      49.703   7.015  13.939  0.00  0.00    +0.000 OA
ATOM     14  H   UNL     1      46.938   7.375  15.438  0.00  0.00    +0.000 HD
BRANCH  12  15
ATOM     15  C   UNL     1      49.186   6.310  16.126  0.00  0.00    +0.000 A 
ATOM     16  C   UNL     1      50.204   6.811  16.925  0.00  0.00    +0.000 A 
ATOM     17  S   UNL     1      50.415   5.956  18.386  0.00  0.00    +0.000 S 
ATOM     18  C   UNL     1      49.183   4.856  17.983  0.00  0.00    +0.000 A 
ATOM     19  N   UNL     1      48.869   3.827  18.815  0.00  0.00    +0.000 NA
ATOM     20  C   UNL     1      47.939   3.048  18.371  0.00  0.00    +0.000 A 
ATOM     21  N   UNL     1      47.286   3.214  17.178  0.00  0.00    +0.000 N 
ATOM     22  C   UNL     1      47.522   4.272  16.340  0.00  0.00    +0.000 A 
ATOM     23  O   UNL     1      46.835   4.461  15.336  0.00  0.00    +0.000 OA
ATOM     24  C   UNL     1      48.597   5.156  16.764  0.00  0.00    +0.000 A 
ATOM     25  H   UNL     1      46.543   2.587  16.906  0.00  0.00    +0.000 HD
ENDBRANCH  12  15
ENDBRANCH  10  11
ENDBRANCH   3  10
BRANCH   6  26
ATOM     26  C   UNL     1      43.405   5.279  10.447  0.00  0.00    +0.000 C 
BRANCH  26  27
ATOM     27  N   UNL     1      43.956   4.768   9.198  0.00  0.00    +0.000 NA
ATOM     28  H   UNL     1      44.847   5.223   9.004  0.00  0.00    +0.000 HD
BRANCH  27  29
ATOM     29  C   UNL     1      44.157   3.320   9.216  0.00  0.00    +0.000 C 
BRANCH  29  30
ATOM     30  C   UNL     1      45.380   2.938   8.399  0.00  0.00    +0.000 A 
ATOM     31  C   UNL     1      45.812   1.611   8.387  0.00  0.00    +0.000 A 
ATOM     32  C   UNL     1      46.883   1.256   7.574  0.00  0.00    +0.000 A 
ATOM     33  C   UNL     1      47.499   2.231   6.802  0.00  0.00    +0.000 A 
ATOM     34  C   UNL     1      47.018   3.528   6.879  0.00  0.00    +0.000 A 
ATOM     35  N   UNL     1      45.976   3.904   7.654  0.00  0.00    +0.000 NA
ENDBRANCH  29  30
ENDBRANCH  27  29
ENDBRANCH  26  27
ENDBRANCH   6  26
TORSDOF 9
ENDMDL
MODEL 8
REMARK VINA RESULT:    -7.152      1.655      1.983
REMARK INTER + INTRA:         -12.661
REMARK INTER:                 -11.255
REMARK INTRA:                  -1.406
REMARK UNBOUND:                -1.746
REMARK  Name = 
REMARK  10 active torsions:
REMARK  status: ('A' for Active; 'I' for Inactive)
REMARK    1  A    between atoms: C_1  and  C_2
REMARK    2  A    between atoms: C_2  and  O_3
REMARK    3  A    between atoms: O_3  and  C_4
REMARK    4  A    between atoms: C_6  and  C_7
REMARK    5  A    between atoms: C_7  and  N_8
REMARK    6  A    between atoms: C_9  and  C_11
REMARK    7  A    between atoms: C_23  and  C_24
REMARK    8  A    between atoms: C_24  and  N_25
REMARK    9  A    between atoms: N_25  and  C_26
REMARK   10  A    between atoms: C_26  and  C_27
REMARK                            x       y       z     vdW  Elec       q    Type
REMARK                         _______ _______ _______ _____ _____    ______ ____
ROOT
ATOM      1  C   UNL     1      46.770   4.709  13.836  0.00  0.00    +0.000 A 
ATOM      2  C   UNL     1      47.445   5.855  14.277  0.00  0.00    +0.000 A 
ATOM      3  C   UNL     1      47.479   7.028  13.513  0.00  0.00    +0.000 A 
ATOM      4  C   UNL     1      46.794   7.060  12.298  0.00  0.00    +0.000 A 
ATOM      5  C   UNL     1      46.078   5.941  11.866  0.00  0.00    +0.000 A 
ATOM      6  C   UNL     1      46.042   4.759  12.630  0.00  0.00    +0.000 A 
ENDROOT
BRANCH   1   7
ATOM      7  O   UNL     1      46.785   3.516  14.522  0.00  0.00    +0.000 OA
BRANCH   7   9
ATOM      8  C   UNL     1      47.067   3.447  16.913  0.00  0.00    +0.000 C 
ATOM      9  C   UNL     1      47.758   3.406  15.564  0.00  0.00    +0.000 C 
ENDBRANCH   7   9
ENDBRANCH   1   7
BRANCH   3  10
ATOM     10  C   UNL     1      48.228   8.224  14.033  0.00  0.00    +0.000 C 
BRANCH  10  11
ATOM     11  N   UNL     1      47.945   8.462  15.424  0.00  0.00    +0.000 N 
ATOM     12  C   UNL     1      48.524   9.480  16.138  0.00  0.00    +0.000 C 
ATOM     13  O   UNL     1      49.329  10.259  15.631  0.00  0.00    +0.000 OA
ATOM     14  H   UNL     1      47.447   7.729  15.918  0.00  0.00    +0.000 HD
BRANCH  12  15
ATOM     15  C   UNL     1      48.073   9.648  17.527  0.00  0.00    +0.000 A 
ATOM     16  C   UNL     1      47.688  10.905  17.972  0.00  0.00    +0.000 A 
ATOM     17  S   UNL     1      47.158  10.928  19.593  0.00  0.00    +0.000 S 
ATOM     18  C   UNL     1      47.467   9.266  19.774  0.00  0.00    +0.000 A 
ATOM     19  N   UNL     1      47.251   8.643  20.964  0.00  0.00    +0.000 NA
ATOM     20  C   UNL     1      47.559   7.388  20.973  0.00  0.00    +0.000 A 
ATOM     21  N   UNL     1      48.050   6.699  19.895  0.00  0.00    +0.000 N 
ATOM     22  C   UNL     1      48.222   7.268  18.660  0.00  0.00    +0.000 A 
ATOM     23  O   UNL     1      48.548   6.595  17.683  0.00  0.00    +0.000 OA
ATOM     24  C   UNL     1      47.938   8.694  18.604  0.00  0.00    +0.000 A 
ATOM     25  H   UNL     1      48.239   5.709  19.959  0.00  0.00    +0.000 HD
ENDBRANCH  12  15
ENDBRANCH  10  11
ENDBRANCH   3  10
BRANCH   6  26
ATOM     26  C   UNL     1      45.204   3.593  12.136  0.00  0.00    +0.000 C 
BRANCH  26  27
ATOM     27  N   UNL     1      44.609   3.886  10.837  0.00  0.00    +0.000 NA
ATOM     28  H   UNL     1      45.240   4.475  10.296  0.00  0.00    +0.000 HD
BRANCH  27  29
ATOM     29  C   UNL     1      44.307   2.681  10.065  0.00  0.00    +0.000 C 
BRANCH  29  30
ATOM     30  C   UNL     1      45.242   2.558   8.875  0.00  0.00    +0.000 A 
ATOM     31  C   UNL     1      45.499   3.679   8.084  0.00  0.00    +0.000 A 
ATOM     32  C   UNL     1      46.417   3.577   7.043  0.00  0.00    +0.000 A 
ATOM     33  C   UNL     1      47.049   2.362   6.815  0.00  0.00    +0.000 A 
ATOM     34  C   UNL     1      46.731   1.294   7.637  0.00  0.00    +0.000 A 
ATOM     35  N   UNL     1      45.848   1.362   8.659  0.00  0.00    +0.000 NA
ENDBRANCH  29  30
ENDBRANCH  27  29
ENDBRANCH  26  27
ENDBRANCH   6  26
TORSDOF 9
ENDMDL
MODEL 9
REMARK VINA RESULT:    -6.935      4.856      5.782
REMARK INTER + INTRA:         -12.330
REMARK INTER:                 -11.069
REMARK INTRA:                  -1.261
REMARK UNBOUND:                -1.746
REMARK  Name = 
REMARK  10 active torsions:
REMARK  status: ('A' for Active; 'I' for Inactive)
REMARK    1  A    between atoms: C_1  and  C_2
REMARK    2  A    between atoms: C_2  and  O_3
REMARK    3  A    between atoms: O_3  and  C_4
REMARK    4  A    between atoms: C_6  and  C_7
REMARK    5  A    between atoms: C_7  and  N_8
REMARK    6  A    between atoms: C_9  and  C_11
REMARK    7  A    between atoms: C_23  and  C_24
REMARK    8  A    between atoms: C_24  and  N_25
REMARK    9  A    between atoms: N_25  and  C_26
REMARK   10  A    between atoms: C_26  and  C_27
REMARK                            x       y       z     vdW  Elec       q    Type
REMARK                         _______ _______ _______ _____ _____    ______ ____
ROOT
ATOM      1  C   UNL     1      46.740   4.929  13.671  0.00  0.00    +0.000 A 
ATOM      2  C   UNL     1      47.770   5.878  13.722  0.00  0.00    +0.000 A 
ATOM      3  C   UNL     1      47.994   6.777  12.673  0.00  0.00    +0.000 A 
ATOM      4  C   UNL     1      47.146   6.745  11.565  0.00  0.00    +0.000 A 
ATOM      5  C   UNL     1      46.086   5.836  11.519  0.00  0.00    +0.000 A 
ATOM      6  C   UNL     1      45.857   4.928  12.571  0.00  0.00    +0.000 A 
ENDROOT
BRANCH   1   7
ATOM      7  O   UNL     1      46.543   3.978  14.646  0.00  0.00    +0.000 OA
BRANCH   7   9
ATOM      8  C   UNL     1      47.977   3.029  16.332  0.00  0.00    +0.000 C 
ATOM      9  C   UNL     1      47.166   4.237  15.907  0.00  0.00    +0.000 C 
ENDBRANCH   7   9
ENDBRANCH   1   7
BRANCH   3  10
ATOM     10  C   UNL     1      49.121   7.767  12.779  0.00  0.00    +0.000 C 
BRANCH  10  11
ATOM     11  N   UNL     1      49.969   7.730  11.616  0.00  0.00    +0.000 N 
ATOM     12  C   UNL     1      51.248   8.225  11.611  0.00  0.00    +0.000 C 
ATOM     13  O   UNL     1      51.755   8.738  12.607  0.00  0.00    +0.000 OA
ATOM     14  H   UNL     1      49.522   7.499  10.736  0.00  0.00    +0.000 HD
BRANCH  12  15
ATOM     15  C   UNL     1      52.019   8.041  10.373  0.00  0.00    +0.000 A 
ATOM     16  C   UNL     1      52.396   6.761   9.989  0.00  0.00    +0.000 A 
ATOM     17  S   UNL     1      53.253   6.711   8.515  0.00  0.00    +0.000 S 
ATOM     18  C   UNL     1      53.192   8.403   8.359  0.00  0.00    +0.000 A 
ATOM     19  N   UNL     1      53.780   9.026   7.303  0.00  0.00    +0.000 NA
ATOM     20  C   UNL     1      53.687  10.315   7.326  0.00  0.00    +0.000 A 
ATOM     21  N   UNL     1      53.047  11.033   8.301  0.00  0.00    +0.000 N 
ATOM     22  C   UNL     1      52.385  10.445   9.347  0.00  0.00    +0.000 A 
ATOM     23  O   UNL     1      51.718  11.111  10.139  0.00  0.00    +0.000 OA
ATOM     24  C   UNL     1      52.499   8.996   9.401  0.00  0.00    +0.000 A 
ATOM     25  H   UNL     1      52.982  12.039   8.241  0.00  0.00    +0.000 HD
ENDBRANCH  12  15
ENDBRANCH  10  11
ENDBRANCH   3  10
BRANCH   6  26
ATOM     26  C   UNL     1      44.659   3.999  12.490  0.00  0.00    +0.000 C 
BRANCH  26  27
ATOM     27  N   UNL     1      44.928   2.870  11.607  0.00  0.00    +0.000 NA
ATOM     28  H   UNL     1      44.700   2.000  12.085  0.00  0.00    +0.000 HD
BRANCH  27  29
ATOM     29  C   UNL     1      44.174   2.935  10.356  0.00  0.00    +0.000 C 
BRANCH  29  30
ATOM     30  C   UNL     1      45.103   2.793   9.162  0.00  0.00    +0.000 A 
ATOM     31  C   UNL     1      45.454   3.925   8.425  0.00  0.00    +0.000 A 
ATOM     32  C   UNL     1      46.367   3.797   7.383  0.00  0.00    +0.000 A 
ATOM     33  C   UNL     1      46.900   2.547   7.100  0.00  0.00    +0.000 A 
ATOM     34  C   UNL     1      46.492   1.471   7.871  0.00  0.00    +0.000 A 
ATOM     35  N   UNL     1      45.612   1.563   8.893  0.00  0.00    +0.000 NA
ENDBRANCH  29  30
ENDBRANCH  27  29
ENDBRANCH  26  27
ENDBRANCH   6  26
TORSDOF 9
ENDMDL
