MODEL 1
REMARK VINA RESULT:    -7.436      0.000      0.000
REMARK INTER + INTRA:          -9.824
REMARK INTER:                  -9.610
REMARK INTRA:                  -0.214
REMARK UNBOUND:                -0.214
REMARK  Name = 
REMARK  6 active torsions:
REMARK  status: ('A' for Active; 'I' for Inactive)
REMARK    1  A    between atoms: C_1  and  N_2
REMARK    2  A    between atoms: N_2  and  C_3
REMARK    3  A    between atoms: C_3  and  C_4
REMARK    4  A    between atoms: C_7  and  C_8
REMARK    5  A    between atoms: C_8  and  N_9
REMARK    6  A    between atoms: C_13  and  C_14
REMARK                            x       y       z     vdW  Elec       q    Type
REMARK                         _______ _______ _______ _____ _____    ______ ____
ROOT
ATOM      1  N   UNL     1      43.829   3.350  10.519  0.00  0.00    +0.000 N 
ATOM      2  C   UNL     1      44.747   3.127   9.487  0.00  0.00    +0.000 A 
ATOM      3  C   UNL     1      45.068   1.813   9.158  0.00  0.00    +0.000 A 
ATOM      4  C   UNL     1      45.971   1.561   8.123  0.00  0.00    +0.000 A 
ATOM      5  C   UNL     1      46.552   2.629   7.438  0.00  0.00    +0.000 A 
ATOM      6  C   UNL     1      46.197   3.903   7.849  0.00  0.00    +0.000 A 
ATOM      7  N   UNL     1      45.318   4.168   8.851  0.00  0.00    +0.000 NA
ATOM      8  H   UNL     1      42.981   2.820  10.348  0.00  0.00    +0.000 HD
ENDROOT
BRANCH   5   9
ATOM      9  C   UNL     1      47.484   2.354   6.318  0.00  0.00    +0.000 C 
ATOM     10  N   UNL     1      47.385   3.090   5.172  0.00  0.00    +0.000 N 
ATOM     11  O   UNL     1      48.331   1.475   6.406  0.00  0.00    +0.000 OA
ATOM     12  H   UNL     1      46.733   3.837   4.992  0.00  0.00    +0.000 HD
ATOM     13  H   UNL     1      48.040   2.861   4.432  0.00  0.00    +0.000 HD
ENDBRANCH   5   9
BRANCH   1  14
ATOM     14  C   UNL     1      43.573   4.762  10.804  0.00  0.00    +0.000 C 
BRANCH  14  18
ATOM     15  C   UNL     1      46.655   6.463  13.125  0.00  0.00    +0.000 A 
ATOM     16  C   UNL     1      46.195   5.173  13.372  0.00  0.00    +0.000 A 
ATOM     17  N   UNL     1      45.199   4.597  12.656  0.00  0.00    +0.000 NA
ATOM     18  C   UNL     1      44.671   5.352  11.660  0.00  0.00    +0.000 A 
ATOM     19  C   UNL     1      45.125   6.647  11.424  0.00  0.00    +0.000 A 
ATOM     20  N   UNL     1      46.116   7.228  12.140  0.00  0.00    +0.000 NA
BRANCH  15  21
ATOM     21  C   UNL     1      47.828   7.016  13.899  0.00  0.00    +0.000 C 
BRANCH  21  23
ATOM     22  C   UNL     1      49.773   7.688  12.618  0.00  0.00    +0.000 C 
ATOM     23  N   UNL     1      49.144   6.608  13.372  0.00  0.00    +0.000 NA
ATOM     24  H   UNL     1      49.745   6.374  14.161  0.00  0.00    +0.000 HD
ENDBRANCH  21  23
ENDBRANCH  15  21
ENDBRANCH  14  18
ENDBRANCH   1  14
TORSDOF 5
ENDMDL
MODEL 2
REMARK VINA RESULT:    -7.265      1.974      2.692
REMARK INTER + INTRA:          -9.603
REMARK INTER:                  -9.745
REMARK INTRA:                   0.142
REMARK UNBOUND:                -0.214
REMARK  Name = 
REMARK  6 active torsions:
REMARK  status: ('A' for Active; 'I' for Inactive)
REMARK    1  A    between atoms: C_1  and  N_2
REMARK    2  A    between atoms: N_2  and  C_3
REMARK    3  A    between atoms: C_3  and  C_4
REMARK    4  A    between atoms: C_7  and  C_8
REMARK    5  A    between atoms: C_8  and  N_9
REMARK    6  A    between atoms: C_13  and  C_14
REMARK                            x       y       z     vdW  Elec       q    Type
REMARK                         _______ _______ _______ _____ _____    ______ ____
ROOT
ATOM      1  N   UNL     1      44.016   5.051   9.654  0.00  0.00    +0.000 N 
ATOM      2  C   UNL     1      44.745   4.008   9.072  0.00  0.00    +0.000 A 
ATOM      3  C   UNL     1      45.281   4.202   7.803  0.00  0.00    +0.000 A 
ATOM      4  C   UNL     1      46.024   3.183   7.204  0.00  0.00    +0.000 A 
ATOM      5  C   UNL     1      46.211   1.977   7.878  0.00  0.00    +0.000 A 
ATOM      6  C   UNL     1      45.620   1.858   9.124  0.00  0.00    +0.000 A 
ATOM      7  N   UNL     1      44.897   2.839   9.726  0.00  0.00    +0.000 NA
ATOM      8  H   UNL     1      44.561   5.906   9.638  0.00  0.00    +0.000 HD
ENDROOT
BRANCH   5   9
ATOM      9  C   UNL     1      47.031   0.912   7.250  0.00  0.00    +0.000 C 
ATOM     10  N   UNL     1      46.799  -0.393   7.584  0.00  0.00    +0.000 N 
ATOM     11  O   UNL     1      47.911   1.187   6.445  0.00  0.00    +0.000 OA
ATOM     12  H   UNL     1      46.101  -0.733   8.226  0.00  0.00    +0.000 HD
ATOM     13  H   UNL     1      47.388  -1.084   7.133  0.00  0.00    +0.000 HD
ENDBRANCH   5   9
BRANCH   1  14
ATOM     14  C   UNL     1      43.475   4.743  10.979  0.00  0.00    +0.000 C 
BRANCH  14  18
ATOM     15  C   UNL     1      46.450   4.873  13.965  0.00  0.00    +0.000 A 
ATOM     16  C   UNL     1      46.072   6.020  13.273  0.00  0.00    +0.000 A 
ATOM     17  N   UNL     1      45.130   6.016  12.299  0.00  0.00    +0.000 NA
ATOM     18  C   UNL     1      44.553   4.816  12.036  0.00  0.00    +0.000 A 
ATOM     19  C   UNL     1      44.943   3.668  12.721  0.00  0.00    +0.000 A 
ATOM     20  N   UNL     1      45.887   3.667  13.691  0.00  0.00    +0.000 NA
BRANCH  15  21
ATOM     21  C   UNL     1      47.442   4.959  15.100  0.00  0.00    +0.000 C 
BRANCH  21  23
ATOM     22  C   UNL     1      47.177   3.712  17.162  0.00  0.00    +0.000 C 
ATOM     23  N   UNL     1      47.678   3.677  15.791  0.00  0.00    +0.000 NA
ATOM     24  H   UNL     1      47.181   2.946  15.285  0.00  0.00    +0.000 HD
ENDBRANCH  21  23
ENDBRANCH  15  21
ENDBRANCH  14  18
ENDBRANCH   1  14
TORSDOF 5
ENDMDL
MODEL 3
REMARK VINA RESULT:    -7.216      2.809      6.771
REMARK INTER + INTRA:          -9.539
REMARK INTER:                  -9.680
REMARK INTRA:                   0.141
REMARK UNBOUND:                -0.214
REMARK  Name = 
REMARK  6 active torsions:
REMARK  status: ('A' for Active; 'I' for Inactive)
REMARK    1  A    between atoms: C_1  and  N_2
REMARK    2  A    between atoms: N_2  and  C_3
REMARK    3  A    between atoms: C_3  and  C_4
REMARK    4  A    between atoms: C_7  and  C_8
REMARK    5  A    between atoms: C_8  and  N_9
REMARK    6  A    between atoms: C_13  and  C_14
REMARK                            x       y       z     vdW  Elec       q    Type
REMARK                         _______ _______ _______ _____ _____    ______ ____
ROOT
ATOM      1  N   UNL     1      44.544   5.852  10.585  0.00  0.00    +0.000 N 
ATOM      2  C   UNL     1      45.281   5.552  11.736  0.00  0.00    +0.000 A 
ATOM      3  C   UNL     1      46.046   6.560  12.315  0.00  0.00    +0.000 A 
ATOM      4  C   UNL     1      46.780   6.292  13.472  0.00  0.00    +0.000 A 
ATOM      5  C   UNL     1      46.748   5.013  14.029  0.00  0.00    +0.000 A 
ATOM      6  C   UNL     1      45.983   4.064  13.374  0.00  0.00    +0.000 A 
ATOM      7  N   UNL     1      45.259   4.306  12.249  0.00  0.00    +0.000 NA
ATOM      8  H   UNL     1      43.969   6.673  10.746  0.00  0.00    +0.000 HD
ENDROOT
BRANCH   5   9
ATOM      9  C   UNL     1      47.503   4.745  15.277  0.00  0.00    +0.000 C 
ATOM     10  N   UNL     1      47.114   3.713  16.084  0.00  0.00    +0.000 N 
ATOM     11  O   UNL     1      48.462   5.438  15.594  0.00  0.00    +0.000 OA
ATOM     12  H   UNL     1      46.348   3.079  15.920  0.00  0.00    +0.000 HD
ATOM     13  H   UNL     1      47.657   3.573  16.928  0.00  0.00    +0.000 HD
ENDBRANCH   5   9
BRANCH   1  14
ATOM     14  C   UNL     1      43.789   4.723  10.041  0.00  0.00    +0.000 C 
BRANCH  14  18
ATOM     15  C   UNL     1      46.274   2.130   7.832  0.00  0.00    +0.000 A 
ATOM     16  C   UNL     1      46.281   3.502   7.605  0.00  0.00    +0.000 A 
ATOM     17  N   UNL     1      45.489   4.366   8.285  0.00  0.00    +0.000 NA
ATOM     18  C   UNL     1      44.681   3.815   9.226  0.00  0.00    +0.000 A 
ATOM     19  C   UNL     1      44.667   2.439   9.442  0.00  0.00    +0.000 A 
ATOM     20  N   UNL     1      45.452   1.573   8.760  0.00  0.00    +0.000 NA
BRANCH  15  21
ATOM     21  C   UNL     1      47.243   1.229   7.103  0.00  0.00    +0.000 C 
BRANCH  21  23
ATOM     22  C   UNL     1      47.894   2.361   5.062  0.00  0.00    +0.000 C 
ATOM     23  N   UNL     1      48.319   1.950   6.396  0.00  0.00    +0.000 NA
ATOM     24  H   UNL     1      48.549   2.784   6.933  0.00  0.00    +0.000 HD
ENDBRANCH  21  23
ENDBRANCH  15  21
ENDBRANCH  14  18
ENDBRANCH   1  14
TORSDOF 5
ENDMDL
MODEL 4
REMARK VINA RESULT:    -6.649      4.854      6.613
REMARK INTER + INTRA:          -8.807
REMARK INTER:                  -8.455
REMARK INTRA:                  -0.352
REMARK UNBOUND:                -0.214
REMARK  Name = 
REMARK  6 active torsions:
REMARK  status: ('A' for Active; 'I' for Inactive)
REMARK    1  A    between atoms: C_1  and  N_2
REMARK    2  A    between atoms: N_2  and  C_3
REMARK    3  A    between atoms: C_3  and  C_4
REMARK    4  A    between atoms: C_7  and  C_8
REMARK    5  A    between atoms: C_8  and  N_9
REMARK    6  A    between atoms: C_13  and  C_14
REMARK                            x       y       z     vdW  Elec       q    Type
REMARK                         _______ _______ _______ _____ _____    ______ ____
ROOT
ATOM      1  N   UNL     1      47.380   5.308  15.233  0.00  0.00    +0.000 N 
ATOM      2  C   UNL     1      46.711   5.136  14.016  0.00  0.00    +0.000 A 
ATOM      3  C   UNL     1      46.799   6.146  13.063  0.00  0.00    +0.000 A 
ATOM      4  C   UNL     1      46.153   5.996  11.835  0.00  0.00    +0.000 A 
ATOM      5  C   UNL     1      45.416   4.839  11.580  0.00  0.00    +0.000 A 
ATOM      6  C   UNL     1      45.359   3.897  12.593  0.00  0.00    +0.000 A 
ATOM      7  N   UNL     1      45.984   4.024  13.793  0.00  0.00    +0.000 NA
ATOM      8  H   UNL     1      48.353   5.539  15.064  0.00  0.00    +0.000 HD
ENDROOT
BRANCH   5   9
ATOM      9  C   UNL     1      44.761   4.670  10.260  0.00  0.00    +0.000 C 
ATOM     10  N   UNL     1      45.406   5.100   9.135  0.00  0.00    +0.000 N 
ATOM     11  O   UNL     1      43.652   4.159  10.168  0.00  0.00    +0.000 OA
ATOM     12  H   UNL     1      46.317   5.527   9.091  0.00  0.00    +0.000 HD
ATOM     13  H   UNL     1      44.915   4.968   8.257  0.00  0.00    +0.000 HD
ENDBRANCH   5   9
BRANCH   1  14
ATOM     14  C   UNL     1      47.211   4.202  16.175  0.00  0.00    +0.000 C 
BRANCH  14  18
ATOM     15  C   UNL     1      50.905   2.552  17.362  0.00  0.00    +0.000 A 
ATOM     16  C   UNL     1      50.627   3.902  17.546  0.00  0.00    +0.000 A 
ATOM     17  N   UNL     1      49.457   4.471  17.168  0.00  0.00    +0.000 NA
ATOM     18  C   UNL     1      48.549   3.639  16.599  0.00  0.00    +0.000 A 
ATOM     19  C   UNL     1      48.836   2.290  16.404  0.00  0.00    +0.000 A 
ATOM     20  N   UNL     1      50.005   1.719  16.776  0.00  0.00    +0.000 NA
BRANCH  15  21
ATOM     21  C   UNL     1      52.192   1.959  17.886  0.00  0.00    +0.000 C 
BRANCH  21  23
ATOM     22  C   UNL     1      53.477  -0.092  18.020  0.00  0.00    +0.000 C 
ATOM     23  N   UNL     1      52.144   0.499  18.088  0.00  0.00    +0.000 NA
ATOM     24  H   UNL     1      51.758   0.318  19.014  0.00  0.00    +0.000 HD
ENDBRANCH  21  23
ENDBRANCH  15  21
ENDBRANCH  14  18
ENDBRANCH   1  14
TORSDOF 5
ENDMDL
MODEL 5
REMARK VINA RESULT:    -6.206      4.680      8.477
REMARK INTER + INTRA:          -8.234
REMARK INTER:                  -7.909
REMARK INTRA:                  -0.325
REMARK UNBOUND:                -0.214
REMARK  Name = 
REMARK  6 active torsions:
REMARK  status: ('A' for Active; 'I' for Inactive)
REMARK    1  A    between atoms: C_1  and  N_2
REMARK    2  A    between atoms: N_2  and  C_3
REMARK    3  A    between atoms: C_3  and  C_4
REMARK    4  A    between atoms: C_7  and  C_8
REMARK    5  A    between atoms: C_8  and  N_9
REMARK    6  A    between atoms: C_13  and  C_14
REMARK                            x       y       z     vdW  Elec       q    Type
REMARK                         _______ _______ _______ _____ _____    ______ ____
ROOT
ATOM      1  N   UNL     1      46.774   4.186  15.066  0.00  0.00    +0.000 N 
ATOM      2  C   UNL     1      47.595   4.312  16.192  0.00  0.00    +0.000 A 
ATOM      3  C   UNL     1      47.494   3.353  17.195  0.00  0.00    +0.000 A 
ATOM      4  C   UNL     1      48.311   3.446  18.324  0.00  0.00    +0.000 A 
ATOM      5  C   UNL     1      49.212   4.505  18.439  0.00  0.00    +0.000 A 
ATOM      6  C   UNL     1      49.227   5.429  17.408  0.00  0.00    +0.000 A 
ATOM      7  N   UNL     1      48.443   5.354  16.300  0.00  0.00    +0.000 NA
ATOM      8  H   UNL     1      46.872   3.259  14.667  0.00  0.00    +0.000 HD
ENDROOT
BRANCH   5   9
ATOM      9  C   UNL     1      50.100   4.579  19.625  0.00  0.00    +0.000 C 
ATOM     10  N   UNL     1      49.567   4.403  20.870  0.00  0.00    +0.000 N 
ATOM     11  O   UNL     1      51.298   4.800  19.501  0.00  0.00    +0.000 OA
ATOM     12  H   UNL     1      48.602   4.211  21.088  0.00  0.00    +0.000 HD
ATOM     13  H   UNL     1      50.212   4.468  21.649  0.00  0.00    +0.000 HD
ENDBRANCH   5   9
BRANCH   1  14
ATOM     14  C   UNL     1      46.939   5.253  14.078  0.00  0.00    +0.000 C 
BRANCH  14  18
ATOM     15  C   UNL     1      44.909   4.252  10.520  0.00  0.00    +0.000 A 
ATOM     16  C   UNL     1      45.518   5.493  10.678  0.00  0.00    +0.000 A 
ATOM     17  N   UNL     1      46.168   5.855  11.809  0.00  0.00    +0.000 NA
ATOM     18  C   UNL     1      46.207   4.925  12.796  0.00  0.00    +0.000 A 
ATOM     19  C   UNL     1      45.585   3.688  12.640  0.00  0.00    +0.000 A 
ATOM     20  N   UNL     1      44.930   3.324  11.513  0.00  0.00    +0.000 NA
BRANCH  15  21
ATOM     21  C   UNL     1      44.276   3.874   9.201  0.00  0.00    +0.000 C 
BRANCH  21  23
ATOM     22  C   UNL     1      46.027   3.409   7.591  0.00  0.00    +0.000 C 
ATOM     23  N   UNL     1      45.009   4.364   8.019  0.00  0.00    +0.000 NA
ATOM     24  H   UNL     1      44.342   4.486   7.259  0.00  0.00    +0.000 HD
ENDBRANCH  21  23
ENDBRANCH  15  21
ENDBRANCH  14  18
ENDBRANCH   1  14
TORSDOF 5
ENDMDL
MODEL 6
REMARK VINA RESULT:    -6.093      2.640      6.751
REMARK INTER + INTRA:          -8.088
REMARK INTER:                  -7.823
REMARK INTRA:                  -0.265
REMARK UNBOUND:                -0.214
REMARK  Name = 
REMARK  6 active torsions:
REMARK  status: ('A' for Active; 'I' for Inactive)
REMARK    1  A    between atoms: C_1  and  N_2
REMARK    2  A    between atoms: N_2  and  C_3
REMARK    3  A    between atoms: C_3  and  C_4
REMARK    4  A    between atoms: C_7  and  C_8
REMARK    5  A    between atoms: C_8  and  N_9
REMARK    6  A    between atoms: C_13  and  C_14
REMARK                            x       y       z     vdW  Elec       q    Type
REMARK                         _______ _______ _______ _____ _____    ______ ____
ROOT
ATOM      1  N   UNL     1      44.911   4.059  13.245  0.00  0.00    +0.000 N 
ATOM      2  C   UNL     1      45.967   4.862  13.690  0.00  0.00    +0.000 A 
ATOM      3  C   UNL     1      46.777   4.383  14.716  0.00  0.00    +0.000 A 
ATOM      4  C   UNL     1      47.846   5.157  15.170  0.00  0.00    +0.000 A 
ATOM      5  C   UNL     1      48.085   6.407  14.600  0.00  0.00    +0.000 A 
ATOM      6  C   UNL     1      47.215   6.818  13.604  0.00  0.00    +0.000 A 
ATOM      7  N   UNL     1      46.171   6.077  13.146  0.00  0.00    +0.000 NA
ATOM      8  H   UNL     1      45.254   3.134  13.010  0.00  0.00    +0.000 HD
ENDROOT
BRANCH   5   9
ATOM      9  C   UNL     1      49.244   7.209  15.064  0.00  0.00    +0.000 C 
ATOM     10  N   UNL     1      49.260   7.675  16.348  0.00  0.00    +0.000 N 
ATOM     11  O   UNL     1      50.176   7.461  14.312  0.00  0.00    +0.000 OA
ATOM     12  H   UNL     1      48.554   7.524  17.051  0.00  0.00    +0.000 HD
ATOM     13  H   UNL     1      50.070   8.223  16.617  0.00  0.00    +0.000 HD
ENDBRANCH   5   9
BRANCH   1  14
ATOM     14  C   UNL     1      44.106   4.658  12.180  0.00  0.00    +0.000 C 
BRANCH  14  18
ATOM     15  C   UNL     1      45.534   3.610   8.353  0.00  0.00    +0.000 A 
ATOM     16  C   UNL     1      44.920   2.671   9.175  0.00  0.00    +0.000 A 
ATOM     17  N   UNL     1      44.460   2.966  10.414  0.00  0.00    +0.000 NA
ATOM     18  C   UNL     1      44.620   4.252  10.817  0.00  0.00    +0.000 A 
ATOM     19  C   UNL     1      45.247   5.187   9.997  0.00  0.00    +0.000 A 
ATOM     20  N   UNL     1      45.713   4.894   8.760  0.00  0.00    +0.000 NA
BRANCH  15  21
ATOM     21  C   UNL     1      45.946   3.242   6.947  0.00  0.00    +0.000 C 
BRANCH  21  23
ATOM     22  C   UNL     1      48.077   2.179   6.497  0.00  0.00    +0.000 C 
ATOM     23  N   UNL     1      47.379   3.450   6.666  0.00  0.00    +0.000 NA
ATOM     24  H   UNL     1      47.460   3.979   5.800  0.00  0.00    +0.000 HD
ENDBRANCH  21  23
ENDBRANCH  15  21
ENDBRANCH  14  18
ENDBRANCH   1  14
TORSDOF 5
ENDMDL
MODEL 7
REMARK VINA RESULT:    -5.367      2.315      3.992
REMARK INTER + INTRA:          -7.149
REMARK INTER:                  -6.784
REMARK INTRA:                  -0.365
REMARK UNBOUND:                -0.214
REMARK  Name = 
REMARK  6 active torsions:
REMARK  status: ('A' for Active; 'I' for Inactive)
REMARK    1  A    between atoms: C_1  and  N_2
REMARK    2  A    between atoms: N_2  and  C_3
REMARK    3  A    between atoms: C_3  and  C_4
REMARK    4  A    between atoms: C_7  and  C_8
REMARK    5  A    between atoms: C_8  and  N_9
REMARK    6  A    between atoms: C_13  and  C_14
REMARK                            x       y       z     vdW  Elec       q    Type
REMARK                         _______ _______ _______ _____ _____    ______ ____
ROOT
ATOM      1  N   UNL     1      45.238   6.511  13.173  0.00  0.00    +0.000 N 
ATOM      2  C   UNL     1      45.137   5.623  12.096  0.00  0.00    +0.000 A 
ATOM      3  C   UNL     1      44.539   4.385  12.313  0.00  0.00    +0.000 A 
ATOM      4  C   UNL     1      44.412   3.485  11.253  0.00  0.00    +0.000 A 
ATOM      5  C   UNL     1      44.897   3.831   9.991  0.00  0.00    +0.000 A 
ATOM      6  C   UNL     1      45.501   5.071   9.871  0.00  0.00    +0.000 A 
ATOM      7  N   UNL     1      45.631   5.962  10.889  0.00  0.00    +0.000 NA
ATOM      8  H   UNL     1      44.329   6.638  13.605  0.00  0.00    +0.000 HD
ENDROOT
BRANCH   5   9
ATOM      9  C   UNL     1      44.728   2.884   8.862  0.00  0.00    +0.000 C 
ATOM     10  N   UNL     1      44.624   1.547   9.124  0.00  0.00    +0.000 N 
ATOM     11  O   UNL     1      44.687   3.283   7.706  0.00  0.00    +0.000 OA
ATOM     12  H   UNL     1      44.639   1.109  10.031  0.00  0.00    +0.000 HD
ATOM     13  H   UNL     1      44.517   0.939   8.319  0.00  0.00    +0.000 HD
ENDBRANCH   5   9
BRANCH   1  14
ATOM     14  C   UNL     1      45.899   7.776  12.852  0.00  0.00    +0.000 C 
BRANCH  14  18
ATOM     15  C   UNL     1      49.731   7.898  14.608  0.00  0.00    +0.000 A 
ATOM     16  C   UNL     1      48.768   8.856  14.910  0.00  0.00    +0.000 A 
ATOM     17  N   UNL     1      47.531   8.858  14.357  0.00  0.00    +0.000 NA
ATOM     18  C   UNL     1      47.269   7.851  13.486  0.00  0.00    +0.000 A 
ATOM     19  C   UNL     1      48.239   6.901  13.176  0.00  0.00    +0.000 A 
ATOM     20  N   UNL     1      49.478   6.899  13.722  0.00  0.00    +0.000 NA
BRANCH  15  21
ATOM     21  C   UNL     1      51.061   7.899  15.323  0.00  0.00    +0.000 C 
BRANCH  21  23
ATOM     22  C   UNL     1      50.996   6.076  16.918  0.00  0.00    +0.000 C 
ATOM     23  N   UNL     1      51.563   6.554  15.662  0.00  0.00    +0.000 NA
ATOM     24  H   UNL     1      51.287   5.915  14.919  0.00  0.00    +0.000 HD
ENDBRANCH  21  23
ENDBRANCH  15  21
ENDBRANCH  14  18
ENDBRANCH   1  14
TORSDOF 5
ENDMDL
MODEL 8
REMARK VINA RESULT:    -5.279      2.649      6.723
REMARK INTER + INTRA:          -7.036
REMARK INTER:                  -8.541
REMARK INTRA:                   1.505
REMARK UNBOUND:                -0.214
REMARK  Name = 
REMARK  6 active torsions:
REMARK  status: ('A' for Active; 'I' for Inactive)
REMARK    1  A    between atoms: C_1  and  N_2
REMARK    2  A    between atoms: N_2  and  C_3
REMARK    3  A    between atoms: C_3  and  C_4
REMARK    4  A    between atoms: C_7  and  C_8
REMARK    5  A    between atoms: C_8  and  N_9
REMARK    6  A    between atoms: C_13  and  C_14
REMARK                            x       y       z     vdW  Elec       q    Type
REMARK                         _______ _______ _______ _____ _____    ______ ____
ROOT
ATOM      1  N   UNL     1      43.640   5.701  10.694  0.00  0.00    +0.000 N 
ATOM      2  C   UNL     1      44.686   6.095  11.535  0.00  0.00    +0.000 A 
ATOM      3  C   UNL     1      44.906   7.456  11.726  0.00  0.00    +0.000 A 
ATOM      4  C   UNL     1      45.935   7.877  12.571  0.00  0.00    +0.000 A 
ATOM      5  C   UNL     1      46.739   6.930  13.206  0.00  0.00    +0.000 A 
ATOM      6  C   UNL     1      46.468   5.599  12.938  0.00  0.00    +0.000 A 
ATOM      7  N   UNL     1      45.469   5.169  12.123  0.00  0.00    +0.000 NA
ATOM      8  H   UNL     1      42.777   6.153  10.978  0.00  0.00    +0.000 HD
ENDROOT
BRANCH   5   9
ATOM      9  C   UNL     1      47.808   7.384  14.128  0.00  0.00    +0.000 C 
ATOM     10  N   UNL     1      48.193   6.570  15.155  0.00  0.00    +0.000 N 
ATOM     11  O   UNL     1      48.341   8.477  13.984  0.00  0.00    +0.000 OA
ATOM     12  H   UNL     1      47.829   5.654  15.364  0.00  0.00    +0.000 HD
ATOM     13  H   UNL     1      48.922   6.927  15.763  0.00  0.00    +0.000 HD
ENDBRANCH   5   9
BRANCH   1  14
ATOM     14  C   UNL     1      43.501   4.253  10.541  0.00  0.00    +0.000 C 
BRANCH  14  18
ATOM     15  C   UNL     1      46.350   2.800   7.792  0.00  0.00    +0.000 A 
ATOM     16  C   UNL     1      45.715   1.948   8.691  0.00  0.00    +0.000 A 
ATOM     17  N   UNL     1      44.804   2.379   9.596  0.00  0.00    +0.000 NA
ATOM     18  C   UNL     1      44.528   3.707   9.575  0.00  0.00    +0.000 A 
ATOM     19  C   UNL     1      45.175   4.559   8.683  0.00  0.00    +0.000 A 
ATOM     20  N   UNL     1      46.089   4.133   7.781  0.00  0.00    +0.000 NA
BRANCH  15  21
ATOM     21  C   UNL     1      47.290   2.246   6.748  0.00  0.00    +0.000 C 
BRANCH  21  23
ATOM     22  C   UNL     1      46.872   0.018   7.606  0.00  0.00    +0.000 C 
ATOM     23  N   UNL     1      47.044   0.832   6.406  0.00  0.00    +0.000 NA
ATOM     24  H   UNL     1      46.189   0.781   5.857  0.00  0.00    +0.000 HD
ENDBRANCH  21  23
ENDBRANCH  15  21
ENDBRANCH  14  18
ENDBRANCH   1  14
TORSDOF 5
ENDMDL
MODEL 9
REMARK VINA RESULT:    -5.189      2.282      3.913
REMARK INTER + INTRA:          -6.919
REMARK INTER:                  -6.527
REMARK INTRA:                  -0.392
REMARK UNBOUND:                -0.214
REMARK  Name = 
REMARK  6 active torsions:
REMARK  status: ('A' for Active; 'I' for Inactive)
REMARK    1  A    between atoms: C_1  and  N_2
REMARK    2  A    between atoms: N_2  and  C_3
REMARK    3  A    between atoms: C_3  and  C_4
REMARK    4  A    between atoms: C_7  and  C_8
REMARK    5  A    between atoms: C_8  and  N_9
REMARK    6  A    between atoms: C_13  and  C_14
REMARK                            x       y       z     vdW  Elec       q    Type
REMARK                         _______ _______ _______ _____ _____    ______ ____
ROOT
ATOM      1  N   UNL     1      45.657   6.294  13.273  0.00  0.00    +0.000 N 
ATOM      2  C   UNL     1      45.418   5.439  12.191  0.00  0.00    +0.000 A 
ATOM      3  C   UNL     1      45.128   4.104  12.454  0.00  0.00    +0.000 A 
ATOM      4  C   UNL     1      44.873   3.231  11.394  0.00  0.00    +0.000 A 
ATOM      5  C   UNL     1      44.921   3.705  10.082  0.00  0.00    +0.000 A 
ATOM      6  C   UNL     1      45.243   5.041   9.911  0.00  0.00    +0.000 A 
ATOM      7  N   UNL     1      45.491   5.906  10.929  0.00  0.00    +0.000 NA
ATOM      8  H   UNL     1      44.895   6.230  13.940  0.00  0.00    +0.000 HD
ENDROOT
BRANCH   5   9
ATOM      9  C   UNL     1      44.614   2.781   8.964  0.00  0.00    +0.000 C 
ATOM     10  N   UNL     1      44.447   3.288   7.706  0.00  0.00    +0.000 N 
ATOM     11  O   UNL     1      44.504   1.577   9.154  0.00  0.00    +0.000 OA
ATOM     12  H   UNL     1      44.520   4.256   7.434  0.00  0.00    +0.000 HD
ATOM     13  H   UNL     1      44.233   2.618   6.976  0.00  0.00    +0.000 HD
ENDBRANCH   5   9
BRANCH   1  14
ATOM     14  C   UNL     1      45.971   7.672  12.895  0.00  0.00    +0.000 C 
BRANCH  14  18
ATOM     15  C   UNL     1      50.118   8.387  13.164  0.00  0.00    +0.000 A 
ATOM     16  C   UNL     1      49.302   8.442  14.290  0.00  0.00    +0.000 A 
ATOM     17  N   UNL     1      47.965   8.230  14.242  0.00  0.00    +0.000 NA
ATOM     18  C   UNL     1      47.453   7.945  13.018  0.00  0.00    +0.000 A 
ATOM     19  C   UNL     1      48.270   7.904  11.891  0.00  0.00    +0.000 A 
ATOM     20  N   UNL     1      49.606   8.121  11.935  0.00  0.00    +0.000 NA
BRANCH  15  21
ATOM     21  C   UNL     1      51.615   8.545  13.297  0.00  0.00    +0.000 C 
BRANCH  21  23
ATOM     22  C   UNL     1      53.196   9.004  11.519  0.00  0.00    +0.000 C 
ATOM     23  N   UNL     1      52.381   7.983  12.170  0.00  0.00    +0.000 NA
ATOM     24  H   UNL     1      53.000   7.261  12.534  0.00  0.00    +0.000 HD
ENDBRANCH  21  23
ENDBRANCH  15  21
ENDBRANCH  14  18
ENDBRANCH   1  14
TORSDOF 5
ENDMDL
