MODEL 1
REMARK VINA RESULT:    -9.227      0.000      0.000
REMARK INTER + INTRA:         -13.668
REMARK INTER:                 -12.463
REMARK INTRA:                  -1.205
REMARK UNBOUND:                -1.205
REMARK  Name = 
REMARK  6 active torsions:
REMARK  status: ('A' for Active; 'I' for Inactive)
REMARK    1  A    between atoms: C_2  and  C_4
REMARK    2  A    between atoms: C_7  and  N_8
REMARK    3  A    between atoms: N_8  and  C_9
REMARK    4  A    between atoms: C_9  and  C_10
REMARK    5  A    between atoms: C_10  and  C_13
REMARK    6  A    between atoms: C_17  and  C_18
REMARK                            x       y       z     vdW  Elec       q    Type
REMARK                         _______ _______ _______ _____ _____    ______ ____
ROOT
ATOM      1  C   UNL     1      43.566   5.341  12.131  0.00  0.00    +0.000 C 
ATOM      2  F   UNL     1      42.999   6.309  11.353  0.00  0.00    +0.000 F 
ATOM      3  F   UNL     1      42.823   5.316  13.279  0.00  0.00    +0.000 F 
ENDROOT
BRANCH   1   4
ATOM      4  C   UNL     1      45.033   5.620  12.398  0.00  0.00    +0.000 A 
ATOM      5  C   UNL     1      45.781   6.423  11.529  0.00  0.00    +0.000 A 
ATOM      6  C   UNL     1      47.110   6.717  11.816  0.00  0.00    +0.000 A 
ATOM      7  C   UNL     1      47.694   6.235  12.990  0.00  0.00    +0.000 A 
ATOM      8  C   UNL     1      46.966   5.458  13.910  0.00  0.00    +0.000 A 
ATOM      9  C   UNL     1      45.640   5.134  13.572  0.00  0.00    +0.000 A 
BRANCH   8  10
ATOM     10  C   UNL     1      47.545   5.075  15.215  0.00  0.00    +0.000 A 
ATOM     11  C   UNL     1      48.559   5.816  15.838  0.00  0.00    +0.000 A 
ATOM     12  C   UNL     1      49.096   5.360  17.035  0.00  0.00    +0.000 A 
ATOM     13  N   UNL     1      48.698   4.237  17.659  0.00  0.00    +0.000 NA
ATOM     14  C   UNL     1      47.720   3.535  17.054  0.00  0.00    +0.000 A 
ATOM     15  F   UNL     1      47.306   2.404  17.647  0.00  0.00    +0.000 F 
ATOM     16  C   UNL     1      47.130   3.903  15.860  0.00  0.00    +0.000 A 
ENDBRANCH   8  10
ENDBRANCH   1   4
BRANCH   1  17
ATOM     17  C   UNL     1      43.414   3.968  11.425  0.00  0.00    +0.000 C 
BRANCH  17  18
ATOM     18  N   UNL     1      43.452   4.051   9.954  0.00  0.00    +0.000 N 
ATOM     19  H   UNL     1      42.558   3.884   9.493  0.00  0.00    +0.000 HD
BRANCH  18  23
ATOM     20  C   UNL     1      46.638   2.532   7.648  0.00  0.00    +0.000 A 
ATOM     21  C   UNL     1      46.382   3.902   7.649  0.00  0.00    +0.000 A 
ATOM     22  C   UNL     1      45.345   4.420   8.430  0.00  0.00    +0.000 A 
ATOM     23  C   UNL     1      44.560   3.594   9.243  0.00  0.00    +0.000 A 
ATOM     24  C   UNL     1      44.821   2.217   9.217  0.00  0.00    +0.000 A 
ATOM     25  C   UNL     1      45.845   1.683   8.425  0.00  0.00    +0.000 A 
BRANCH  20  27
ATOM     26  N   UNL     1      48.664   2.803   6.330  0.00  0.00    +0.000 N 
ATOM     27  C   UNL     1      47.705   1.948   6.790  0.00  0.00    +0.000 C 
ATOM     28  O   UNL     1      47.742   0.751   6.536  0.00  0.00    +0.000 OA
ATOM     29  H   UNL     1      49.432   2.383   5.821  0.00  0.00    +0.000 HD
ATOM     30  H   UNL     1      48.804   3.722   6.719  0.00  0.00    +0.000 HD
ENDBRANCH  20  27
ENDBRANCH  18  23
ENDBRANCH  17  18
ENDBRANCH   1  17
TORSDOF 6
ENDMDL
MODEL 2
REMARK VINA RESULT:    -9.139      2.645      4.101
REMARK INTER + INTRA:         -13.550
REMARK INTER:                 -12.405
REMARK INTRA:                  -1.145
REMARK UNBOUND:                -1.205
REMARK  Name = 
REMARK  6 active torsions:
REMARK  status: ('A' for Active; 'I' for Inactive)
REMARK    1  A    between atoms: C_2  and  C_4
REMARK    2  A    between atoms: C_7  and  N_8
REMARK    3  A    between atoms: N_8  and  C_9
REMARK    4  A    between atoms: C_9  and  C_10
REMARK    5  A    between atoms: C_10  and  C_13
REMARK    6  A    between atoms: C_17  and  C_18
REMARK                            x       y       z     vdW  Elec       q    Type
REMARK                         _______ _______ _______ _____ _____    ______ ____
ROOT
ATOM      1  C   UNL     1      43.225   4.986  12.566  0.00  0.00    +0.000 C 
ATOM      2  F   UNL     1      42.415   6.061  12.340  0.00  0.00    +0.000 F 
ATOM      3  F   UNL     1      42.672   4.333  13.633  0.00  0.00    +0.000 F 
ENDROOT
BRANCH   1   4
ATOM      4  C   UNL     1      44.659   5.405  12.826  0.00  0.00    +0.000 A 
ATOM      5  C   UNL     1      45.618   4.471  13.236  0.00  0.00    +0.000 A 
ATOM      6  C   UNL     1      46.942   4.859  13.416  0.00  0.00    +0.000 A 
ATOM      7  C   UNL     1      47.324   6.177  13.158  0.00  0.00    +0.000 A 
ATOM      8  C   UNL     1      46.401   7.137  12.705  0.00  0.00    +0.000 A 
ATOM      9  C   UNL     1      45.060   6.732  12.579  0.00  0.00    +0.000 A 
BRANCH   8  10
ATOM     10  C   UNL     1      46.841   8.488  12.296  0.00  0.00    +0.000 A 
ATOM     11  C   UNL     1      45.954   9.567  12.178  0.00  0.00    +0.000 A 
ATOM     12  C   UNL     1      46.431  10.793  11.730  0.00  0.00    +0.000 A 
ATOM     13  N   UNL     1      47.715  11.025  11.401  0.00  0.00    +0.000 NA
ATOM     14  C   UNL     1      48.559   9.983  11.524  0.00  0.00    +0.000 A 
ATOM     15  F   UNL     1      49.845  10.181  11.196  0.00  0.00    +0.000 F 
ATOM     16  C   UNL     1      48.178   8.727  11.953  0.00  0.00    +0.000 A 
ENDBRANCH   8  10
ENDBRANCH   1   4
BRANCH   1  17
ATOM     17  C   UNL     1      43.169   4.040  11.338  0.00  0.00    +0.000 C 
BRANCH  17  18
ATOM     18  N   UNL     1      43.757   4.619  10.117  0.00  0.00    +0.000 N 
ATOM     19  H   UNL     1      43.110   5.167   9.550  0.00  0.00    +0.000 HD
BRANCH  18  23
ATOM     20  C   UNL     1      46.449   2.375   7.772  0.00  0.00    +0.000 A 
ATOM     21  C   UNL     1      46.410   3.762   7.638  0.00  0.00    +0.000 A 
ATOM     22  C   UNL     1      45.540   4.518   8.428  0.00  0.00    +0.000 A 
ATOM     23  C   UNL     1      44.712   3.918   9.384  0.00  0.00    +0.000 A 
ATOM     24  C   UNL     1      44.753   2.521   9.495  0.00  0.00    +0.000 A 
ATOM     25  C   UNL     1      45.607   1.750   8.696  0.00  0.00    +0.000 A 
BRANCH  20  27
ATOM     26  N   UNL     1      48.451   2.141   6.412  0.00  0.00    +0.000 N 
ATOM     27  C   UNL     1      47.331   1.542   6.911  0.00  0.00    +0.000 C 
ATOM     28  O   UNL     1      47.083   0.364   6.687  0.00  0.00    +0.000 OA
ATOM     29  H   UNL     1      49.088   1.544   5.901  0.00  0.00    +0.000 HD
ATOM     30  H   UNL     1      48.810   3.011   6.775  0.00  0.00    +0.000 HD
ENDBRANCH  20  27
ENDBRANCH  18  23
ENDBRANCH  17  18
ENDBRANCH   1  17
TORSDOF 6
ENDMDL
MODEL 3
REMARK VINA RESULT:    -8.233      2.447      3.169
REMARK INTER + INTRA:         -12.326
REMARK INTER:                 -11.567
REMARK INTRA:                  -0.759
REMARK UNBOUND:                -1.205
REMARK  Name = 
REMARK  6 active torsions:
REMARK  status: ('A' for Active; 'I' for Inactive)
REMARK    1  A    between atoms: C_2  and  C_4
REMARK    2  A    between atoms: C_7  and  N_8
REMARK    3  A    between atoms: N_8  and  C_9
REMARK    4  A    between atoms: C_9  and  C_10
REMARK    5  A    between atoms: C_10  and  C_13
REMARK    6  A    between atoms: C_17  and  C_18
REMARK                            x       y       z     vdW  Elec       q    Type
REMARK                         _______ _______ _______ _____ _____    ______ ____
ROOT
ATOM      1  C   UNL     1      44.714   4.527  12.332  0.00  0.00    +0.000 C 
ATOM      2  F   UNL     1      44.344   4.295  13.626  0.00  0.00    +0.000 F 
ATOM      3  F   UNL     1      45.630   3.555  12.037  0.00  0.00    +0.000 F 
ENDROOT
BRANCH   1   4
ATOM      4  C   UNL     1      45.275   5.925  12.148  0.00  0.00    +0.000 A 
ATOM      5  C   UNL     1      44.446   6.986  11.768  0.00  0.00    +0.000 A 
ATOM      6  C   UNL     1      44.963   8.273  11.657  0.00  0.00    +0.000 A 
ATOM      7  C   UNL     1      46.306   8.515  11.956  0.00  0.00    +0.000 A 
ATOM      8  C   UNL     1      47.163   7.483  12.381  0.00  0.00    +0.000 A 
ATOM      9  C   UNL     1      46.629   6.183  12.436  0.00  0.00    +0.000 A 
BRANCH   8  10
ATOM     10  C   UNL     1      48.541   7.771  12.833  0.00  0.00    +0.000 A 
ATOM     11  C   UNL     1      49.486   8.407  12.017  0.00  0.00    +0.000 A 
ATOM     12  C   UNL     1      50.779   8.590  12.490  0.00  0.00    +0.000 A 
ATOM     13  N   UNL     1      51.197   8.198  13.707  0.00  0.00    +0.000 NA
ATOM     14  C   UNL     1      50.279   7.593  14.485  0.00  0.00    +0.000 A 
ATOM     15  F   UNL     1      50.667   7.182  15.702  0.00  0.00    +0.000 F 
ATOM     16  C   UNL     1      48.973   7.360  14.100  0.00  0.00    +0.000 A 
ENDBRANCH   8  10
ENDBRANCH   1   4
BRANCH   1  17
ATOM     17  C   UNL     1      43.484   4.330  11.409  0.00  0.00    +0.000 C 
BRANCH  17  18
ATOM     18  N   UNL     1      43.727   4.715  10.007  0.00  0.00    +0.000 N 
ATOM     19  H   UNL     1      42.923   5.122   9.530  0.00  0.00    +0.000 HD
BRANCH  18  23
ATOM     20  C   UNL     1      46.427   2.475   7.667  0.00  0.00    +0.000 A 
ATOM     21  C   UNL     1      45.508   1.813   8.481  0.00  0.00    +0.000 A 
ATOM     22  C   UNL     1      44.592   2.545   9.241  0.00  0.00    +0.000 A 
ATOM     23  C   UNL     1      44.551   3.944   9.190  0.00  0.00    +0.000 A 
ATOM     24  C   UNL     1      45.492   4.593   8.378  0.00  0.00    +0.000 A 
ATOM     25  C   UNL     1      46.428   3.872   7.626  0.00  0.00    +0.000 A 
BRANCH  20  27
ATOM     26  N   UNL     1      48.530   2.424   6.447  0.00  0.00    +0.000 N 
ATOM     27  C   UNL     1      47.444   1.722   6.884  0.00  0.00    +0.000 C 
ATOM     28  O   UNL     1      47.331   0.522   6.669  0.00  0.00    +0.000 OA
ATOM     29  H   UNL     1      49.256   1.887   5.992  0.00  0.00    +0.000 HD
ATOM     30  H   UNL     1      48.774   3.331   6.814  0.00  0.00    +0.000 HD
ENDBRANCH  20  27
ENDBRANCH  18  23
ENDBRANCH  17  18
ENDBRANCH   1  17
TORSDOF 6
ENDMDL
MODEL 4
REMARK VINA RESULT:    -8.052      1.283      1.760
REMARK INTER + INTRA:         -12.081
REMARK INTER:                 -11.158
REMARK INTRA:                  -0.924
REMARK UNBOUND:                -1.205
REMARK  Name = 
REMARK  6 active torsions:
REMARK  status: ('A' for Active; 'I' for Inactive)
REMARK    1  A    between atoms: C_2  and  C_4
REMARK    2  A    between atoms: C_7  and  N_8
REMARK    3  A    between atoms: N_8  and  C_9
REMARK    4  A    between atoms: C_9  and  C_10
REMARK    5  A    between atoms: C_10  and  C_13
REMARK    6  A    between atoms: C_17  and  C_18
REMARK                            x       y       z     vdW  Elec       q    Type
REMARK                         _______ _______ _______ _____ _____    ______ ____
ROOT
ATOM      1  C   UNL     1      45.145   6.719  11.777  0.00  0.00    +0.000 C 
ATOM      2  F   UNL     1      45.166   7.401  10.594  0.00  0.00    +0.000 F 
ATOM      3  F   UNL     1      44.185   7.335  12.533  0.00  0.00    +0.000 F 
ENDROOT
BRANCH   1   4
ATOM      4  C   UNL     1      46.502   6.720  12.453  0.00  0.00    +0.000 A 
ATOM      5  C   UNL     1      47.552   7.500  11.954  0.00  0.00    +0.000 A 
ATOM      6  C   UNL     1      48.775   7.535  12.617  0.00  0.00    +0.000 A 
ATOM      7  C   UNL     1      48.949   6.813  13.800  0.00  0.00    +0.000 A 
ATOM      8  C   UNL     1      47.907   6.049  14.357  0.00  0.00    +0.000 A 
ATOM      9  C   UNL     1      46.698   5.991  13.642  0.00  0.00    +0.000 A 
BRANCH   8  10
ATOM     10  C   UNL     1      48.052   5.407  15.681  0.00  0.00    +0.000 A 
ATOM     11  C   UNL     1      49.003   5.825  16.622  0.00  0.00    +0.000 A 
ATOM     12  C   UNL     1      49.120   5.134  17.822  0.00  0.00    +0.000 A 
ATOM     13  N   UNL     1      48.364   4.074  18.156  0.00  0.00    +0.000 NA
ATOM     14  C   UNL     1      47.450   3.685  17.247  0.00  0.00    +0.000 A 
ATOM     15  F   UNL     1      46.684   2.624  17.547  0.00  0.00    +0.000 F 
ATOM     16  C   UNL     1      47.264   4.302  16.025  0.00  0.00    +0.000 A 
ENDBRANCH   8  10
ENDBRANCH   1   4
BRANCH   1  17
ATOM     17  C   UNL     1      44.691   5.260  11.514  0.00  0.00    +0.000 C 
BRANCH  17  18
ATOM     18  N   UNL     1      44.267   5.013  10.123  0.00  0.00    +0.000 N 
ATOM     19  H   UNL     1      43.270   5.147   9.951  0.00  0.00    +0.000 HD
BRANCH  18  23
ATOM     20  C   UNL     1      46.263   2.005   7.945  0.00  0.00    +0.000 A 
ATOM     21  C   UNL     1      45.340   1.646   8.927  0.00  0.00    +0.000 A 
ATOM     22  C   UNL     1      44.654   2.635   9.638  0.00  0.00    +0.000 A 
ATOM     23  C   UNL     1      44.849   3.996   9.371  0.00  0.00    +0.000 A 
ATOM     24  C   UNL     1      45.791   4.338   8.391  0.00  0.00    +0.000 A 
ATOM     25  C   UNL     1      46.500   3.357   7.685  0.00  0.00    +0.000 A 
BRANCH  20  27
ATOM     26  N   UNL     1      46.803  -0.330   7.530  0.00  0.00    +0.000 N 
ATOM     27  C   UNL     1      47.042   0.974   7.207  0.00  0.00    +0.000 C 
ATOM     28  O   UNL     1      47.837   1.279   6.327  0.00  0.00    +0.000 OA
ATOM     29  H   UNL     1      47.272  -1.025   6.964  0.00  0.00    +0.000 HD
ATOM     30  H   UNL     1      45.992  -0.619   8.056  0.00  0.00    +0.000 HD
ENDBRANCH  20  27
ENDBRANCH  18  23
ENDBRANCH  17  18
ENDBRANCH   1  17
TORSDOF 6
ENDMDL
MODEL 5
REMARK VINA RESULT:    -7.755      3.130      7.493
REMARK INTER + INTRA:         -11.680
REMARK INTER:                 -10.373
REMARK INTRA:                  -1.308
REMARK UNBOUND:                -1.205
REMARK  Name = 
REMARK  6 active torsions:
REMARK  status: ('A' for Active; 'I' for Inactive)
REMARK    1  A    between atoms: C_2  and  C_4
REMARK    2  A    between atoms: C_7  and  N_8
REMARK    3  A    between atoms: N_8  and  C_9
REMARK    4  A    between atoms: C_9  and  C_10
REMARK    5  A    between atoms: C_10  and  C_13
REMARK    6  A    between atoms: C_17  and  C_18
REMARK                            x       y       z     vdW  Elec       q    Type
REMARK                         _______ _______ _______ _____ _____    ______ ____
ROOT
ATOM      1  C   UNL     1      44.549   6.710  11.344  0.00  0.00    +0.000 C 
ATOM      2  F   UNL     1      43.327   7.319  11.366  0.00  0.00    +0.000 F 
ATOM      3  F   UNL     1      45.268   7.376  10.390  0.00  0.00    +0.000 F 
ENDROOT
BRANCH   1   4
ATOM      4  C   UNL     1      44.434   5.226  11.051  0.00  0.00    +0.000 A 
ATOM      5  C   UNL     1      43.480   4.438  11.705  0.00  0.00    +0.000 A 
ATOM      6  C   UNL     1      43.349   3.090  11.386  0.00  0.00    +0.000 A 
ATOM      7  C   UNL     1      44.150   2.527  10.389  0.00  0.00    +0.000 A 
ATOM      8  C   UNL     1      45.092   3.293   9.681  0.00  0.00    +0.000 A 
ATOM      9  C   UNL     1      45.241   4.640  10.057  0.00  0.00    +0.000 A 
BRANCH   8  10
ATOM     10  C   UNL     1      45.831   2.727   8.532  0.00  0.00    +0.000 A 
ATOM     11  C   UNL     1      46.306   3.517   7.476  0.00  0.00    +0.000 A 
ATOM     12  C   UNL     1      46.939   2.905   6.402  0.00  0.00    +0.000 A 
ATOM     13  N   UNL     1      47.141   1.579   6.303  0.00  0.00    +0.000 NA
ATOM     14  C   UNL     1      46.686   0.830   7.326  0.00  0.00    +0.000 A 
ATOM     15  F   UNL     1      46.864  -0.498   7.254  0.00  0.00    +0.000 F 
ATOM     16  C   UNL     1      46.038   1.345   8.432  0.00  0.00    +0.000 A 
ENDBRANCH   8  10
ENDBRANCH   1   4
BRANCH   1  17
ATOM     17  C   UNL     1      45.247   6.922  12.712  0.00  0.00    +0.000 C 
BRANCH  17  18
ATOM     18  N   UNL     1      46.642   6.447  12.746  0.00  0.00    +0.000 N 
ATOM     19  H   UNL     1      47.070   6.313  11.830  0.00  0.00    +0.000 HD
BRANCH  18  23
ATOM     20  C   UNL     1      47.739   3.806  15.845  0.00  0.00    +0.000 A 
ATOM     21  C   UNL     1      47.130   3.304  14.696  0.00  0.00    +0.000 A 
ATOM     22  C   UNL     1      46.785   4.166  13.652  0.00  0.00    +0.000 A 
ATOM     23  C   UNL     1      47.061   5.537  13.714  0.00  0.00    +0.000 A 
ATOM     24  C   UNL     1      47.661   6.028  14.883  0.00  0.00    +0.000 A 
ATOM     25  C   UNL     1      47.994   5.176  15.945  0.00  0.00    +0.000 A 
BRANCH  20  27
ATOM     26  N   UNL     1      47.055   2.595  17.840  0.00  0.00    +0.000 N 
ATOM     27  C   UNL     1      48.074   2.918  16.991  0.00  0.00    +0.000 C 
ATOM     28  O   UNL     1      49.202   2.470  17.148  0.00  0.00    +0.000 OA
ATOM     29  H   UNL     1      47.272   1.922  18.564  0.00  0.00    +0.000 HD
ATOM     30  H   UNL     1      46.085   2.735  17.602  0.00  0.00    +0.000 HD
ENDBRANCH  20  27
ENDBRANCH  18  23
ENDBRANCH  17  18
ENDBRANCH   1  17
TORSDOF 6
ENDMDL
MODEL 6
REMARK VINA RESULT:    -7.582      3.431      7.480
REMARK INTER + INTRA:         -11.447
REMARK INTER:                 -10.486
REMARK INTRA:                  -0.961
REMARK UNBOUND:                -1.205
REMARK  Name = 
REMARK  6 active torsions:
REMARK  status: ('A' for Active; 'I' for Inactive)
REMARK    1  A    between atoms: C_2  and  C_4
REMARK    2  A    between atoms: C_7  and  N_8
REMARK    3  A    between atoms: N_8  and  C_9
REMARK    4  A    between atoms: C_9  and  C_10
REMARK    5  A    between atoms: C_10  and  C_13
REMARK    6  A    between atoms: C_17  and  C_18
REMARK                            x       y       z     vdW  Elec       q    Type
REMARK                         _______ _______ _______ _____ _____    ______ ____
ROOT
ATOM      1  C   UNL     1      44.268   6.346  11.419  0.00  0.00    +0.000 C 
ATOM      2  F   UNL     1      43.026   6.908  11.331  0.00  0.00    +0.000 F 
ATOM      3  F   UNL     1      45.055   7.072  10.569  0.00  0.00    +0.000 F 
ENDROOT
BRANCH   1   4
ATOM      4  C   UNL     1      44.245   4.870  11.069  0.00  0.00    +0.000 A 
ATOM      5  C   UNL     1      43.372   3.992  11.722  0.00  0.00    +0.000 A 
ATOM      6  C   UNL     1      43.322   2.651  11.351  0.00  0.00    +0.000 A 
ATOM      7  C   UNL     1      44.122   2.185  10.305  0.00  0.00    +0.000 A 
ATOM      8  C   UNL     1      44.982   3.044   9.597  0.00  0.00    +0.000 A 
ATOM      9  C   UNL     1      45.051   4.382  10.024  0.00  0.00    +0.000 A 
BRANCH   8  10
ATOM     10  C   UNL     1      45.715   2.576   8.401  0.00  0.00    +0.000 A 
ATOM     11  C   UNL     1      46.283   1.298   8.315  0.00  0.00    +0.000 A 
ATOM     12  C   UNL     1      47.009   0.952   7.182  0.00  0.00    +0.000 A 
ATOM     13  N   UNL     1      47.203   1.772   6.134  0.00  0.00    +0.000 NA
ATOM     14  C   UNL     1      46.648   2.995   6.224  0.00  0.00    +0.000 A 
ATOM     15  F   UNL     1      46.831   3.840   5.198  0.00  0.00    +0.000 F 
ATOM     16  C   UNL     1      45.917   3.433   7.312  0.00  0.00    +0.000 A 
ENDBRANCH   8  10
ENDBRANCH   1   4
BRANCH   1  17
ATOM     17  C   UNL     1      44.809   6.535  12.860  0.00  0.00    +0.000 C 
BRANCH  17  18
ATOM     18  N   UNL     1      46.105   5.872  13.098  0.00  0.00    +0.000 N 
ATOM     19  H   UNL     1      46.093   5.163  13.831  0.00  0.00    +0.000 HD
BRANCH  18  23
ATOM     20  C   UNL     1      49.845   7.804  12.859  0.00  0.00    +0.000 A 
ATOM     21  C   UNL     1      49.016   7.767  11.739  0.00  0.00    +0.000 A 
ATOM     22  C   UNL     1      47.764   7.151  11.813  0.00  0.00    +0.000 A 
ATOM     23  C   UNL     1      47.297   6.585  13.006  0.00  0.00    +0.000 A 
ATOM     24  C   UNL     1      48.149   6.618  14.119  0.00  0.00    +0.000 A 
ATOM     25  C   UNL     1      49.415   7.215  14.052  0.00  0.00    +0.000 A 
BRANCH  20  27
ATOM     26  N   UNL     1      52.053   8.131  13.825  0.00  0.00    +0.000 N 
ATOM     27  C   UNL     1      51.202   8.410  12.795  0.00  0.00    +0.000 C 
ATOM     28  O   UNL     1      51.552   9.101  11.847  0.00  0.00    +0.000 OA
ATOM     29  H   UNL     1      53.000   8.475  13.729  0.00  0.00    +0.000 HD
ATOM     30  H   UNL     1      51.889   7.378  14.476  0.00  0.00    +0.000 HD
ENDBRANCH  20  27
ENDBRANCH  18  23
ENDBRANCH  17  18
ENDBRANCH   1  17
TORSDOF 6
ENDMDL
MODEL 7
REMARK VINA RESULT:    -7.512      1.938      2.601
REMARK INTER + INTRA:         -11.352
REMARK INTER:                 -10.328
REMARK INTRA:                  -1.024
REMARK UNBOUND:                -1.205
REMARK  Name = 
REMARK  6 active torsions:
REMARK  status: ('A' for Active; 'I' for Inactive)
REMARK    1  A    between atoms: C_2  and  C_4
REMARK    2  A    between atoms: C_7  and  N_8
REMARK    3  A    between atoms: N_8  and  C_9
REMARK    4  A    between atoms: C_9  and  C_10
REMARK    5  A    between atoms: C_10  and  C_13
REMARK    6  A    between atoms: C_17  and  C_18
REMARK                            x       y       z     vdW  Elec       q    Type
REMARK                         _______ _______ _______ _____ _____    ______ ____
ROOT
ATOM      1  C   UNL     1      45.404   6.469  12.070  0.00  0.00    +0.000 C 
ATOM      2  F   UNL     1      44.957   7.107  10.948  0.00  0.00    +0.000 F 
ATOM      3  F   UNL     1      44.591   6.901  13.081  0.00  0.00    +0.000 F 
ENDROOT
BRANCH   1   4
ATOM      4  C   UNL     1      46.868   6.761  12.339  0.00  0.00    +0.000 A 
ATOM      5  C   UNL     1      47.657   7.414  11.385  0.00  0.00    +0.000 A 
ATOM      6  C   UNL     1      48.983   7.726  11.668  0.00  0.00    +0.000 A 
ATOM      7  C   UNL     1      49.522   7.414  12.918  0.00  0.00    +0.000 A 
ATOM      8  C   UNL     1      48.752   6.795  13.919  0.00  0.00    +0.000 A 
ATOM      9  C   UNL     1      47.430   6.445  13.591  0.00  0.00    +0.000 A 
BRANCH   8  10
ATOM     10  C   UNL     1      49.285   6.601  15.285  0.00  0.00    +0.000 A 
ATOM     11  C   UNL     1      48.550   5.973  16.300  0.00  0.00    +0.000 A 
ATOM     12  C   UNL     1      49.095   5.881  17.575  0.00  0.00    +0.000 A 
ATOM     13  N   UNL     1      50.308   6.355  17.911  0.00  0.00    +0.000 NA
ATOM     14  C   UNL     1      51.007   6.951  16.926  0.00  0.00    +0.000 A 
ATOM     15  F   UNL     1      52.219   7.442  17.231  0.00  0.00    +0.000 F 
ATOM     16  C   UNL     1      50.548   7.097  15.631  0.00  0.00    +0.000 A 
ENDBRANCH   8  10
ENDBRANCH   1   4
BRANCH   1  17
ATOM     17  C   UNL     1      45.197   4.941  11.901  0.00  0.00    +0.000 C 
BRANCH  17  18
ATOM     18  N   UNL     1      44.407   4.578  10.710  0.00  0.00    +0.000 N 
ATOM     19  H   UNL     1      43.446   4.298  10.905  0.00  0.00    +0.000 HD
BRANCH  18  23
ATOM     20  C   UNL     1      46.429   2.630   7.565  0.00  0.00    +0.000 A 
ATOM     21  C   UNL     1      45.731   1.875   8.506  0.00  0.00    +0.000 A 
ATOM     22  C   UNL     1      45.036   2.512   9.538  0.00  0.00    +0.000 A 
ATOM     23  C   UNL     1      44.998   3.907   9.642  0.00  0.00    +0.000 A 
ATOM     24  C   UNL     1      45.718   4.650   8.696  0.00  0.00    +0.000 A 
ATOM     25  C   UNL     1      46.434   4.024   7.668  0.00  0.00    +0.000 A 
BRANCH  20  27
ATOM     26  N   UNL     1      47.865   2.800   5.609  0.00  0.00    +0.000 N 
ATOM     27  C   UNL     1      47.216   1.977   6.484  0.00  0.00    +0.000 C 
ATOM     28  O   UNL     1      47.307   0.759   6.401  0.00  0.00    +0.000 OA
ATOM     29  H   UNL     1      48.466   2.349   4.932  0.00  0.00    +0.000 HD
ATOM     30  H   UNL     1      48.016   3.780   5.795  0.00  0.00    +0.000 HD
ENDBRANCH  20  27
ENDBRANCH  18  23
ENDBRANCH  17  18
ENDBRANCH   1  17
TORSDOF 6
ENDMDL
MODEL 8
REMARK VINA RESULT:    -7.318      3.598      7.913
REMARK INTER + INTRA:         -11.090
REMARK INTER:                  -9.854
REMARK INTRA:                  -1.236
REMARK UNBOUND:                -1.205
REMARK  Name = 
REMARK  6 active torsions:
REMARK  status: ('A' for Active; 'I' for Inactive)
REMARK    1  A    between atoms: C_2  and  C_4
REMARK    2  A    between atoms: C_7  and  N_8
REMARK    3  A    between atoms: N_8  and  C_9
REMARK    4  A    between atoms: C_9  and  C_10
REMARK    5  A    between atoms: C_10  and  C_13
REMARK    6  A    between atoms: C_17  and  C_18
REMARK                            x       y       z     vdW  Elec       q    Type
REMARK                         _______ _______ _______ _____ _____    ______ ____
ROOT
ATOM      1  C   UNL     1      48.726   8.211  12.185  0.00  0.00    +0.000 C 
ATOM      2  F   UNL     1      49.115   9.281  11.431  0.00  0.00    +0.000 F 
ATOM      3  F   UNL     1      49.562   7.190  11.824  0.00  0.00    +0.000 F 
ENDROOT
BRANCH   1   4
ATOM      4  C   UNL     1      47.265   7.868  11.966  0.00  0.00    +0.000 A 
ATOM      5  C   UNL     1      46.260   8.804  12.233  0.00  0.00    +0.000 A 
ATOM      6  C   UNL     1      44.928   8.495  11.974  0.00  0.00    +0.000 A 
ATOM      7  C   UNL     1      44.594   7.258  11.418  0.00  0.00    +0.000 A 
ATOM      8  C   UNL     1      45.577   6.304  11.098  0.00  0.00    +0.000 A 
ATOM      9  C   UNL     1      46.910   6.621  11.416  0.00  0.00    +0.000 A 
BRANCH   8  10
ATOM     10  C   UNL     1      45.230   5.060  10.379  0.00  0.00    +0.000 A 
ATOM     11  C   UNL     1      44.600   3.976  11.005  0.00  0.00    +0.000 A 
ATOM     12  C   UNL     1      44.360   2.817  10.278  0.00  0.00    +0.000 A 
ATOM     13  N   UNL     1      44.690   2.659   8.984  0.00  0.00    +0.000 NA
ATOM     14  C   UNL     1      45.290   3.708   8.390  0.00  0.00    +0.000 A 
ATOM     15  F   UNL     1      45.640   3.580   7.101  0.00  0.00    +0.000 F 
ATOM     16  C   UNL     1      45.577   4.898   9.031  0.00  0.00    +0.000 A 
ENDBRANCH   8  10
ENDBRANCH   1   4
BRANCH   1  17
ATOM     17  C   UNL     1      48.971   8.530  13.683  0.00  0.00    +0.000 C 
BRANCH  17  18
ATOM     18  N   UNL     1      49.828   7.544  14.366  0.00  0.00    +0.000 N 
ATOM     19  H   UNL     1      50.584   7.168  13.795  0.00  0.00    +0.000 HD
BRANCH  18  23
ATOM     20  C   UNL     1      48.234   4.608  16.938  0.00  0.00    +0.000 A 
ATOM     21  C   UNL     1      49.394   5.288  17.305  0.00  0.00    +0.000 A 
ATOM     22  C   UNL     1      49.917   6.281  16.473  0.00  0.00    +0.000 A 
ATOM     23  C   UNL     1      49.287   6.638  15.274  0.00  0.00    +0.000 A 
ATOM     24  C   UNL     1      48.130   5.933  14.913  0.00  0.00    +0.000 A 
ATOM     25  C   UNL     1      47.606   4.922  15.730  0.00  0.00    +0.000 A 
BRANCH  20  27
ATOM     26  N   UNL     1      48.359   3.216  18.928  0.00  0.00    +0.000 N 
ATOM     27  C   UNL     1      47.681   3.514  17.782  0.00  0.00    +0.000 C 
ATOM     28  O   UNL     1      46.649   2.929  17.481  0.00  0.00    +0.000 OA
ATOM     29  H   UNL     1      47.929   2.533  19.538  0.00  0.00    +0.000 HD
ATOM     30  H   UNL     1      49.052   3.833  19.326  0.00  0.00    +0.000 HD
ENDBRANCH  20  27
ENDBRANCH  18  23
ENDBRANCH  17  18
ENDBRANCH   1  17
TORSDOF 6
ENDMDL
MODEL 9
REMARK VINA RESULT:    -6.963      3.739      8.236
REMARK INTER + INTRA:         -10.610
REMARK INTER:                  -9.680
REMARK INTRA:                  -0.930
REMARK UNBOUND:                -1.205
REMARK  Name = 
REMARK  6 active torsions:
REMARK  status: ('A' for Active; 'I' for Inactive)
REMARK    1  A    between atoms: C_2  and  C_4
REMARK    2  A    between atoms: C_7  and  N_8
REMARK    3  A    between atoms: N_8  and  C_9
REMARK    4  A    between atoms: C_9  and  C_10
REMARK    5  A    between atoms: C_10  and  C_13
REMARK    6  A    between atoms: C_17  and  C_18
REMARK                            x       y       z     vdW  Elec       q    Type
REMARK                         _______ _______ _______ _____ _____    ______ ____
ROOT
ATOM      1  C   UNL     1      48.792   6.525  15.553  0.00  0.00    +0.000 C 
ATOM      2  F   UNL     1      48.480   7.582  16.360  0.00  0.00    +0.000 F 
ATOM      3  F   UNL     1      50.157   6.443  15.575  0.00  0.00    +0.000 F 
ENDROOT
BRANCH   1   4
ATOM      4  C   UNL     1      48.246   6.707  14.150  0.00  0.00    +0.000 A 
ATOM      5  C   UNL     1      48.954   7.445  13.194  0.00  0.00    +0.000 A 
ATOM      6  C   UNL     1      48.468   7.557  11.895  0.00  0.00    +0.000 A 
ATOM      7  C   UNL     1      47.286   6.907  11.533  0.00  0.00    +0.000 A 
ATOM      8  C   UNL     1      46.565   6.123  12.452  0.00  0.00    +0.000 A 
ATOM      9  C   UNL     1      47.050   6.067  13.771  0.00  0.00    +0.000 A 
BRANCH   8  10
ATOM     10  C   UNL     1      45.398   5.322  12.025  0.00  0.00    +0.000 A 
ATOM     11  C   UNL     1      44.548   4.680  12.936  0.00  0.00    +0.000 A 
ATOM     12  C   UNL     1      43.507   3.896  12.457  0.00  0.00    +0.000 A 
ATOM     13  N   UNL     1      43.243   3.711  11.151  0.00  0.00    +0.000 NA
ATOM     14  C   UNL     1      44.062   4.337  10.285  0.00  0.00    +0.000 A 
ATOM     15  F   UNL     1      43.830   4.167   8.974  0.00  0.00    +0.000 F 
ATOM     16  C   UNL     1      45.127   5.131  10.664  0.00  0.00    +0.000 A 
ENDBRANCH   8  10
ENDBRANCH   1   4
BRANCH   1  17
ATOM     17  C   UNL     1      48.218   5.226  16.175  0.00  0.00    +0.000 C 
BRANCH  17  18
ATOM     18  N   UNL     1      48.767   4.914  17.507  0.00  0.00    +0.000 N 
ATOM     19  H   UNL     1      48.801   5.705  18.150  0.00  0.00    +0.000 HD
BRANCH  18  23
ATOM     20  C   UNL     1      51.937   2.140  17.682  0.00  0.00    +0.000 A 
ATOM     21  C   UNL     1      52.165   3.469  18.035  0.00  0.00    +0.000 A 
ATOM     22  C   UNL     1      51.116   4.392  18.006  0.00  0.00    +0.000 A 
ATOM     23  C   UNL     1      49.816   4.010  17.652  0.00  0.00    +0.000 A 
ATOM     24  C   UNL     1      49.608   2.673  17.285  0.00  0.00    +0.000 A 
ATOM     25  C   UNL     1      50.656   1.742  17.292  0.00  0.00    +0.000 A 
BRANCH  20  27
ATOM     26  N   UNL     1      52.765  -0.102  18.131  0.00  0.00    +0.000 N 
ATOM     27  C   UNL     1      53.046   1.148  17.659  0.00  0.00    +0.000 C 
ATOM     28  O   UNL     1      54.149   1.427  17.208  0.00  0.00    +0.000 OA
ATOM     29  H   UNL     1      53.498  -0.793  18.030  0.00  0.00    +0.000 HD
ATOM     30  H   UNL     1      51.822  -0.432  18.269  0.00  0.00    +0.000 HD
ENDBRANCH  20  27
ENDBRANCH  18  23
ENDBRANCH  17  18
ENDBRANCH   1  17
TORSDOF 6
ENDMDL
