MODEL 1
REMARK VINA RESULT:    -8.826      0.000      0.000
REMARK INTER + INTRA:         -12.557
REMARK INTER:                 -11.406
REMARK INTRA:                  -1.151
REMARK UNBOUND:                -1.151
REMARK  Name = 
REMARK  5 active torsions:
REMARK  status: ('A' for Active; 'I' for Inactive)
REMARK    1  A    between atoms: C_2  and  C_4
REMARK    2  A    between atoms: C_7  and  N_8
REMARK    3  A    between atoms: N_8  and  C_9
REMARK    4  A    between atoms: C_9  and  C_10
REMARK    5  A    between atoms: C_14  and  C_15
REMARK                            x       y       z     vdW  Elec       q    Type
REMARK                         _______ _______ _______ _____ _____    ______ ____
ROOT
ATOM      1  C   UNL     1      43.645   4.797  11.360  0.00  0.00    +0.000 C 
ENDROOT
BRANCH   1   2
ATOM      2  C   UNL     1      44.960   5.049  12.055  0.00  0.00    +0.000 A 
ATOM      3  C   UNL     1      45.525   4.079  12.889  0.00  0.00    +0.000 A 
ATOM      4  C   UNL     1      46.713   4.345  13.563  0.00  0.00    +0.000 A 
ATOM      5  C   UNL     1      47.354   5.575  13.394  0.00  0.00    +0.000 A 
ATOM      6  C   UNL     1      46.841   6.560  12.531  0.00  0.00    +0.000 A 
ATOM      7  C   UNL     1      45.620   6.278  11.890  0.00  0.00    +0.000 A 
BRANCH   6   8
ATOM      8  C   UNL     1      47.587   7.807  12.235  0.00  0.00    +0.000 A 
ATOM      9  C   UNL     1      48.943   7.758  11.853  0.00  0.00    +0.000 A 
ATOM     10  C   UNL     1      49.642   8.906  11.465  0.00  0.00    +0.000 A 
ATOM     11  C   UNL     1      48.995  10.136  11.445  0.00  0.00    +0.000 A 
ATOM     12  C   UNL     1      47.666  10.206  11.839  0.00  0.00    +0.000 A 
ATOM     13  F   UNL     1      47.036  11.388  11.813  0.00  0.00    +0.000 F 
ATOM     14  C   UNL     1      46.967   9.068  12.241  0.00  0.00    +0.000 A 
ENDBRANCH   6   8
ENDBRANCH   1   2
BRANCH   1  15
ATOM     15  N   UNL     1      43.783   4.941   9.919  0.00  0.00    +0.000 N 
ATOM     16  H   UNL     1      42.913   5.169   9.441  0.00  0.00    +0.000 HD
BRANCH  15  20
ATOM     17  C   UNL     1      46.368   2.311   7.863  0.00  0.00    +0.000 A 
ATOM     18  C   UNL     1      45.417   1.794   8.741  0.00  0.00    +0.000 A 
ATOM     19  C   UNL     1      44.543   2.656   9.413  0.00  0.00    +0.000 A 
ATOM     20  C   UNL     1      44.578   4.041   9.208  0.00  0.00    +0.000 A 
ATOM     21  C   UNL     1      45.561   4.545   8.343  0.00  0.00    +0.000 A 
ATOM     22  C   UNL     1      46.453   3.692   7.679  0.00  0.00    +0.000 A 
BRANCH  17  24
ATOM     23  N   UNL     1      48.382   2.028   6.533  0.00  0.00    +0.000 N 
ATOM     24  C   UNL     1      47.328   1.423   7.161  0.00  0.00    +0.000 C 
ATOM     25  O   UNL     1      47.214   0.204   7.177  0.00  0.00    +0.000 OA
ATOM     26  H   UNL     1      49.085   1.414   6.141  0.00  0.00    +0.000 HD
ATOM     27  H   UNL     1      48.643   2.988   6.712  0.00  0.00    +0.000 HD
ENDBRANCH  17  24
ENDBRANCH  15  20
ENDBRANCH   1  15
TORSDOF 5
ENDMDL
MODEL 2
REMARK VINA RESULT:    -8.806      2.716      4.051
REMARK INTER + INTRA:         -12.531
REMARK INTER:                 -11.626
REMARK INTRA:                  -0.905
REMARK UNBOUND:                -1.151
REMARK  Name = 
REMARK  5 active torsions:
REMARK  status: ('A' for Active; 'I' for Inactive)
REMARK    1  A    between atoms: C_2  and  C_4
REMARK    2  A    between atoms: C_7  and  N_8
REMARK    3  A    between atoms: N_8  and  C_9
REMARK    4  A    between atoms: C_9  and  C_10
REMARK    5  A    between atoms: C_14  and  C_15
REMARK                            x       y       z     vdW  Elec       q    Type
REMARK                         _______ _______ _______ _____ _____    ______ ____
ROOT
ATOM      1  C   UNL     1      43.927   4.853  11.499  0.00  0.00    +0.000 C 
ENDROOT
BRANCH   1   2
ATOM      2  C   UNL     1      45.198   5.474  12.022  0.00  0.00    +0.000 A 
ATOM      3  C   UNL     1      45.816   6.525  11.336  0.00  0.00    +0.000 A 
ATOM      4  C   UNL     1      47.015   7.053  11.803  0.00  0.00    +0.000 A 
ATOM      5  C   UNL     1      47.595   6.550  12.971  0.00  0.00    +0.000 A 
ATOM      6  C   UNL     1      46.982   5.525  13.714  0.00  0.00    +0.000 A 
ATOM      7  C   UNL     1      45.790   4.985  13.198  0.00  0.00    +0.000 A 
BRANCH   6   8
ATOM      8  C   UNL     1      47.514   5.085  15.027  0.00  0.00    +0.000 A 
ATOM      9  C   UNL     1      48.471   5.863  15.710  0.00  0.00    +0.000 A 
ATOM     10  C   UNL     1      48.910   5.529  16.995  0.00  0.00    +0.000 A 
ATOM     11  C   UNL     1      48.396   4.406  17.632  0.00  0.00    +0.000 A 
ATOM     12  C   UNL     1      47.470   3.616  16.966  0.00  0.00    +0.000 A 
ATOM     13  F   UNL     1      46.964   2.537  17.579  0.00  0.00    +0.000 F 
ATOM     14  C   UNL     1      47.038   3.935  15.679  0.00  0.00    +0.000 A 
ENDBRANCH   6   8
ENDBRANCH   1   2
BRANCH   1  15
ATOM     15  N   UNL     1      43.879   4.915  10.047  0.00  0.00    +0.000 N 
ATOM     16  H   UNL     1      42.943   5.053   9.669  0.00  0.00    +0.000 HD
BRANCH  15  20
ATOM     17  C   UNL     1      46.386   2.325   7.849  0.00  0.00    +0.000 A 
ATOM     18  C   UNL     1      45.486   1.792   8.770  0.00  0.00    +0.000 A 
ATOM     19  C   UNL     1      44.637   2.641   9.489  0.00  0.00    +0.000 A 
ATOM     20  C   UNL     1      44.647   4.027   9.291  0.00  0.00    +0.000 A 
ATOM     21  C   UNL     1      45.581   4.547   8.382  0.00  0.00    +0.000 A 
ATOM     22  C   UNL     1      46.448   3.708   7.670  0.00  0.00    +0.000 A 
BRANCH  17  24
ATOM     23  N   UNL     1      48.409   2.056   6.530  0.00  0.00    +0.000 N 
ATOM     24  C   UNL     1      47.320   1.451   7.095  0.00  0.00    +0.000 C 
ATOM     25  O   UNL     1      47.154   0.241   7.017  0.00  0.00    +0.000 OA
ATOM     26  H   UNL     1      49.093   1.443   6.103  0.00  0.00    +0.000 HD
ATOM     27  H   UNL     1      48.708   2.987   6.785  0.00  0.00    +0.000 HD
ENDBRANCH  17  24
ENDBRANCH  15  20
ENDBRANCH   1  15
TORSDOF 5
ENDMDL
MODEL 3
REMARK VINA RESULT:    -8.201      3.961      7.032
REMARK INTER + INTRA:         -11.750
REMARK INTER:                 -10.722
REMARK INTRA:                  -1.028
REMARK UNBOUND:                -1.151
REMARK  Name = 
REMARK  5 active torsions:
REMARK  status: ('A' for Active; 'I' for Inactive)
REMARK    1  A    between atoms: C_2  and  C_4
REMARK    2  A    between atoms: C_7  and  N_8
REMARK    3  A    between atoms: N_8  and  C_9
REMARK    4  A    between atoms: C_9  and  C_10
REMARK    5  A    between atoms: C_14  and  C_15
REMARK                            x       y       z     vdW  Elec       q    Type
REMARK                         _______ _______ _______ _____ _____    ______ ____
ROOT
ATOM      1  C   UNL     1      43.949   6.749  11.400  0.00  0.00    +0.000 C 
ENDROOT
BRANCH   1   2
ATOM      2  C   UNL     1      43.958   5.265  11.131  0.00  0.00    +0.000 A 
ATOM      3  C   UNL     1      43.197   4.392  11.915  0.00  0.00    +0.000 A 
ATOM      4  C   UNL     1      43.254   3.020  11.687  0.00  0.00    +0.000 A 
ATOM      5  C   UNL     1      44.057   2.513  10.662  0.00  0.00    +0.000 A 
ATOM      6  C   UNL     1      44.803   3.361   9.824  0.00  0.00    +0.000 A 
ATOM      7  C   UNL     1      44.754   4.740  10.100  0.00  0.00    +0.000 A 
BRANCH   6   8
ATOM      8  C   UNL     1      45.542   2.845   8.646  0.00  0.00    +0.000 A 
ATOM      9  C   UNL     1      46.002   3.724   7.646  0.00  0.00    +0.000 A 
ATOM     10  C   UNL     1      46.791   3.281   6.580  0.00  0.00    +0.000 A 
ATOM     11  C   UNL     1      47.145   1.939   6.493  0.00  0.00    +0.000 A 
ATOM     12  C   UNL     1      46.682   1.055   7.457  0.00  0.00    +0.000 A 
ATOM     13  F   UNL     1      47.028  -0.238   7.382  0.00  0.00    +0.000 F 
ATOM     14  C   UNL     1      45.883   1.488   8.514  0.00  0.00    +0.000 A 
ENDBRANCH   6   8
ENDBRANCH   1   2
BRANCH   1  15
ATOM     15  N   UNL     1      44.630   7.054  12.648  0.00  0.00    +0.000 N 
ATOM     16  H   UNL     1      44.101   7.662  13.271  0.00  0.00    +0.000 HD
BRANCH  15  20
ATOM     17  C   UNL     1      48.789   7.762  12.458  0.00  0.00    +0.000 A 
ATOM     18  C   UNL     1      47.901   8.793  12.156  0.00  0.00    +0.000 A 
ATOM     19  C   UNL     1      46.522   8.574  12.235  0.00  0.00    +0.000 A 
ATOM     20  C   UNL     1      45.997   7.340  12.638  0.00  0.00    +0.000 A 
ATOM     21  C   UNL     1      46.906   6.306  12.909  0.00  0.00    +0.000 A 
ATOM     22  C   UNL     1      48.289   6.509  12.816  0.00  0.00    +0.000 A 
BRANCH  17  24
ATOM     23  N   UNL     1      50.890   7.324  11.318  0.00  0.00    +0.000 N 
ATOM     24  C   UNL     1      50.257   7.956  12.353  0.00  0.00    +0.000 C 
ATOM     25  O   UNL     1      50.871   8.682  13.124  0.00  0.00    +0.000 OA
ATOM     26  H   UNL     1      51.871   7.538  11.193  0.00  0.00    +0.000 HD
ATOM     27  H   UNL     1      50.390   6.935  10.531  0.00  0.00    +0.000 HD
ENDBRANCH  17  24
ENDBRANCH  15  20
ENDBRANCH   1  15
TORSDOF 5
ENDMDL
MODEL 4
REMARK VINA RESULT:    -8.044      1.930      2.623
REMARK INTER + INTRA:         -11.547
REMARK INTER:                 -10.599
REMARK INTRA:                  -0.948
REMARK UNBOUND:                -1.151
REMARK  Name = 
REMARK  5 active torsions:
REMARK  status: ('A' for Active; 'I' for Inactive)
REMARK    1  A    between atoms: C_2  and  C_4
REMARK    2  A    between atoms: C_7  and  N_8
REMARK    3  A    between atoms: N_8  and  C_9
REMARK    4  A    between atoms: C_9  and  C_10
REMARK    5  A    between atoms: C_14  and  C_15
REMARK                            x       y       z     vdW  Elec       q    Type
REMARK                         _______ _______ _______ _____ _____    ______ ____
ROOT
ATOM      1  C   UNL     1      44.212   3.585  11.799  0.00  0.00    +0.000 C 
ENDROOT
BRANCH   1   2
ATOM      2  C   UNL     1      44.661   5.024  11.830  0.00  0.00    +0.000 A 
ATOM      3  C   UNL     1      43.776   6.057  11.503  0.00  0.00    +0.000 A 
ATOM      4  C   UNL     1      44.218   7.376  11.486  0.00  0.00    +0.000 A 
ATOM      5  C   UNL     1      45.543   7.675  11.816  0.00  0.00    +0.000 A 
ATOM      6  C   UNL     1      46.453   6.670  12.192  0.00  0.00    +0.000 A 
ATOM      7  C   UNL     1      45.988   5.342  12.166  0.00  0.00    +0.000 A 
BRANCH   6   8
ATOM      8  C   UNL     1      47.815   6.991  12.682  0.00  0.00    +0.000 A 
ATOM      9  C   UNL     1      48.761   7.593  11.827  0.00  0.00    +0.000 A 
ATOM     10  C   UNL     1      50.015   8.004  12.289  0.00  0.00    +0.000 A 
ATOM     11  C   UNL     1      50.353   7.825  13.625  0.00  0.00    +0.000 A 
ATOM     12  C   UNL     1      49.443   7.214  14.476  0.00  0.00    +0.000 A 
ATOM     13  F   UNL     1      49.761   7.048  15.767  0.00  0.00    +0.000 F 
ATOM     14  C   UNL     1      48.196   6.789  14.019  0.00  0.00    +0.000 A 
ENDBRANCH   6   8
ENDBRANCH   1   2
BRANCH   1  15
ATOM     15  N   UNL     1      43.807   3.196  10.457  0.00  0.00    +0.000 N 
ATOM     16  H   UNL     1      43.095   2.468  10.434  0.00  0.00    +0.000 HD
BRANCH  15  20
ATOM     17  C   UNL     1      46.587   2.611   7.334  0.00  0.00    +0.000 A 
ATOM     18  C   UNL     1      46.102   3.892   7.591  0.00  0.00    +0.000 A 
ATOM     19  C   UNL     1      45.196   4.099   8.637  0.00  0.00    +0.000 A 
ATOM     20  C   UNL     1      44.773   3.048   9.460  0.00  0.00    +0.000 A 
ATOM     21  C   UNL     1      45.249   1.761   9.166  0.00  0.00    +0.000 A 
ATOM     22  C   UNL     1      46.143   1.540   8.111  0.00  0.00    +0.000 A 
BRANCH  17  24
ATOM     23  N   UNL     1      47.419   3.175   5.121  0.00  0.00    +0.000 N 
ATOM     24  C   UNL     1      47.525   2.356   6.211  0.00  0.00    +0.000 C 
ATOM     25  O   UNL     1      48.385   1.487   6.271  0.00  0.00    +0.000 OA
ATOM     26  H   UNL     1      48.123   3.062   4.403  0.00  0.00    +0.000 HD
ATOM     27  H   UNL     1      46.906   4.046   5.143  0.00  0.00    +0.000 HD
ENDBRANCH  17  24
ENDBRANCH  15  20
ENDBRANCH   1  15
TORSDOF 5
ENDMDL
MODEL 5
REMARK VINA RESULT:    -7.824      4.287      7.559
REMARK INTER + INTRA:         -11.262
REMARK INTER:                 -10.481
REMARK INTRA:                  -0.781
REMARK UNBOUND:                -1.151
REMARK  Name = 
REMARK  5 active torsions:
REMARK  status: ('A' for Active; 'I' for Inactive)
REMARK    1  A    between atoms: C_2  and  C_4
REMARK    2  A    between atoms: C_7  and  N_8
REMARK    3  A    between atoms: N_8  and  C_9
REMARK    4  A    between atoms: C_9  and  C_10
REMARK    5  A    between atoms: C_14  and  C_15
REMARK                            x       y       z     vdW  Elec       q    Type
REMARK                         _______ _______ _______ _____ _____    ______ ____
ROOT
ATOM      1  C   UNL     1      45.869   7.122  11.732  0.00  0.00    +0.000 C 
ENDROOT
BRANCH   1   2
ATOM      2  C   UNL     1      45.114   5.946  11.164  0.00  0.00    +0.000 A 
ATOM      3  C   UNL     1      43.816   5.653  11.596  0.00  0.00    +0.000 A 
ATOM      4  C   UNL     1      43.152   4.535  11.101  0.00  0.00    +0.000 A 
ATOM      5  C   UNL     1      43.772   3.714  10.155  0.00  0.00    +0.000 A 
ATOM      6  C   UNL     1      45.058   3.999   9.663  0.00  0.00    +0.000 A 
ATOM      7  C   UNL     1      45.720   5.114  10.208  0.00  0.00    +0.000 A 
BRANCH   6   8
ATOM      8  C   UNL     1      45.664   3.217   8.558  0.00  0.00    +0.000 A 
ATOM      9  C   UNL     1      46.155   3.865   7.406  0.00  0.00    +0.000 A 
ATOM     10  C   UNL     1      46.826   3.167   6.397  0.00  0.00    +0.000 A 
ATOM     11  C   UNL     1      47.027   1.797   6.520  0.00  0.00    +0.000 A 
ATOM     12  C   UNL     1      46.531   1.139   7.636  0.00  0.00    +0.000 A 
ATOM     13  F   UNL     1      46.730  -0.180   7.763  0.00  0.00    +0.000 F 
ATOM     14  C   UNL     1      45.849   1.826   8.640  0.00  0.00    +0.000 A 
ENDBRANCH   6   8
ENDBRANCH   1   2
BRANCH   1  15
ATOM     15  N   UNL     1      47.201   6.727  12.158  0.00  0.00    +0.000 N 
ATOM     16  H   UNL     1      47.731   6.224  11.449  0.00  0.00    +0.000 HD
BRANCH  15  20
ATOM     17  C   UNL     1      47.867   5.012  15.958  0.00  0.00    +0.000 A 
ATOM     18  C   UNL     1      48.508   6.203  15.620  0.00  0.00    +0.000 A 
ATOM     19  C   UNL     1      48.278   6.789  14.371  0.00  0.00    +0.000 A 
ATOM     20  C   UNL     1      47.393   6.221  13.445  0.00  0.00    +0.000 A 
ATOM     21  C   UNL     1      46.781   5.007  13.793  0.00  0.00    +0.000 A 
ATOM     22  C   UNL     1      47.017   4.402  15.034  0.00  0.00    +0.000 A 
BRANCH  17  24
ATOM     23  N   UNL     1      47.194   3.426  17.672  0.00  0.00    +0.000 N 
ATOM     24  C   UNL     1      48.115   4.351  17.265  0.00  0.00    +0.000 C 
ATOM     25  O   UNL     1      49.117   4.584  17.928  0.00  0.00    +0.000 OA
ATOM     26  H   UNL     1      47.417   2.909  18.513  0.00  0.00    +0.000 HD
ATOM     27  H   UNL     1      46.506   3.031  17.046  0.00  0.00    +0.000 HD
ENDBRANCH  17  24
ENDBRANCH  15  20
ENDBRANCH   1  15
TORSDOF 5
ENDMDL
MODEL 6
REMARK VINA RESULT:    -7.308      5.014      8.142
REMARK INTER + INTRA:         -10.596
REMARK INTER:                  -9.992
REMARK INTRA:                  -0.604
REMARK UNBOUND:                -1.151
REMARK  Name = 
REMARK  5 active torsions:
REMARK  status: ('A' for Active; 'I' for Inactive)
REMARK    1  A    between atoms: C_2  and  C_4
REMARK    2  A    between atoms: C_7  and  N_8
REMARK    3  A    between atoms: N_8  and  C_9
REMARK    4  A    between atoms: C_9  and  C_10
REMARK    5  A    between atoms: C_14  and  C_15
REMARK                            x       y       z     vdW  Elec       q    Type
REMARK                         _______ _______ _______ _____ _____    ______ ____
ROOT
ATOM      1  C   UNL     1      46.154   5.501  13.911  0.00  0.00    +0.000 C 
ENDROOT
BRANCH   1   2
ATOM      2  C   UNL     1      45.188   5.157  12.805  0.00  0.00    +0.000 A 
ATOM      3  C   UNL     1      43.837   5.509  12.900  0.00  0.00    +0.000 A 
ATOM      4  C   UNL     1      42.948   5.141  11.896  0.00  0.00    +0.000 A 
ATOM      5  C   UNL     1      43.405   4.435  10.779  0.00  0.00    +0.000 A 
ATOM      6  C   UNL     1      44.762   4.101  10.625  0.00  0.00    +0.000 A 
ATOM      7  C   UNL     1      45.632   4.455  11.673  0.00  0.00    +0.000 A 
BRANCH   6   8
ATOM      8  C   UNL     1      45.279   3.482   9.380  0.00  0.00    +0.000 A 
ATOM      9  C   UNL     1      45.737   4.286   8.317  0.00  0.00    +0.000 A 
ATOM     10  C   UNL     1      46.327   3.732   7.176  0.00  0.00    +0.000 A 
ATOM     11  C   UNL     1      46.478   2.354   7.074  0.00  0.00    +0.000 A 
ATOM     12  C   UNL     1      46.012   1.546   8.102  0.00  0.00    +0.000 A 
ATOM     13  F   UNL     1      46.163   0.218   8.013  0.00  0.00    +0.000 F 
ATOM     14  C   UNL     1      45.410   2.091   9.236  0.00  0.00    +0.000 A 
ENDBRANCH   6   8
ENDBRANCH   1   2
BRANCH   1  15
ATOM     15  N   UNL     1      46.397   4.349  14.765  0.00  0.00    +0.000 N 
ATOM     16  H   UNL     1      45.548   3.896  15.100  0.00  0.00    +0.000 HD
BRANCH  15  20
ATOM     17  C   UNL     1      49.555   4.364  17.566  0.00  0.00    +0.000 A 
ATOM     18  C   UNL     1      49.240   5.535  16.880  0.00  0.00    +0.000 A 
ATOM     19  C   UNL     1      48.183   5.545  15.964  0.00  0.00    +0.000 A 
ATOM     20  C   UNL     1      47.404   4.405  15.730  0.00  0.00    +0.000 A 
ATOM     21  C   UNL     1      47.756   3.228  16.409  0.00  0.00    +0.000 A 
ATOM     22  C   UNL     1      48.823   3.202  17.315  0.00  0.00    +0.000 A 
BRANCH  17  24
ATOM     23  N   UNL     1      50.386   4.433  19.849  0.00  0.00    +0.000 N 
ATOM     24  C   UNL     1      50.692   4.315  18.521  0.00  0.00    +0.000 C 
ATOM     25  O   UNL     1      51.843   4.134  18.148  0.00  0.00    +0.000 OA
ATOM     26  H   UNL     1      51.150   4.300  20.500  0.00  0.00    +0.000 HD
ATOM     27  H   UNL     1      49.446   4.328  20.202  0.00  0.00    +0.000 HD
ENDBRANCH  17  24
ENDBRANCH  15  20
ENDBRANCH   1  15
TORSDOF 5
ENDMDL
MODEL 7
REMARK VINA RESULT:    -6.783      5.323      7.946
REMARK INTER + INTRA:          -9.917
REMARK INTER:                  -9.016
REMARK INTRA:                  -0.900
REMARK UNBOUND:                -1.151
REMARK  Name = 
REMARK  5 active torsions:
REMARK  status: ('A' for Active; 'I' for Inactive)
REMARK    1  A    between atoms: C_2  and  C_4
REMARK    2  A    between atoms: C_7  and  N_8
REMARK    3  A    between atoms: N_8  and  C_9
REMARK    4  A    between atoms: C_9  and  C_10
REMARK    5  A    between atoms: C_14  and  C_15
REMARK                            x       y       z     vdW  Elec       q    Type
REMARK                         _______ _______ _______ _____ _____    ______ ____
ROOT
ATOM      1  C   UNL     1      48.528   6.667  15.944  0.00  0.00    +0.000 C 
ENDROOT
BRANCH   1   2
ATOM      2  C   UNL     1      48.292   6.725  14.455  0.00  0.00    +0.000 A 
ATOM      3  C   UNL     1      49.155   7.443  13.621  0.00  0.00    +0.000 A 
ATOM      4  C   UNL     1      48.895   7.530  12.257  0.00  0.00    +0.000 A 
ATOM      5  C   UNL     1      47.782   6.883  11.713  0.00  0.00    +0.000 A 
ATOM      6  C   UNL     1      46.914   6.115  12.511  0.00  0.00    +0.000 A 
ATOM      7  C   UNL     1      47.181   6.075  13.892  0.00  0.00    +0.000 A 
BRANCH   6   8
ATOM      8  C   UNL     1      45.817   5.310  11.922  0.00  0.00    +0.000 A 
ATOM      9  C   UNL     1      45.481   5.443  10.560  0.00  0.00    +0.000 A 
ATOM     10  C   UNL     1      44.524   4.622   9.953  0.00  0.00    +0.000 A 
ATOM     11  C   UNL     1      43.883   3.640  10.698  0.00  0.00    +0.000 A 
ATOM     12  C   UNL     1      44.185   3.509  12.046  0.00  0.00    +0.000 A 
ATOM     13  F   UNL     1      43.576   2.558  12.766  0.00  0.00    +0.000 F 
ATOM     14  C   UNL     1      45.127   4.333  12.661  0.00  0.00    +0.000 A 
ENDBRANCH   6   8
ENDBRANCH   1   2
BRANCH   1  15
ATOM     15  N   UNL     1      48.099   5.389  16.489  0.00  0.00    +0.000 N 
ATOM     16  H   UNL     1      47.324   5.459  17.146  0.00  0.00    +0.000 HD
BRANCH  15  20
ATOM     17  C   UNL     1      50.988   2.456  17.423  0.00  0.00    +0.000 A 
ATOM     18  C   UNL     1      51.300   3.804  17.586  0.00  0.00    +0.000 A 
ATOM     19  C   UNL     1      50.343   4.783  17.297  0.00  0.00    +0.000 A 
ATOM     20  C   UNL     1      49.054   4.444  16.867  0.00  0.00    +0.000 A 
ATOM     21  C   UNL     1      48.768   3.083  16.681  0.00  0.00    +0.000 A 
ATOM     22  C   UNL     1      49.725   2.095  16.950  0.00  0.00    +0.000 A 
BRANCH  17  24
ATOM     23  N   UNL     1      51.520   0.201  18.157  0.00  0.00    +0.000 N 
ATOM     24  C   UNL     1      51.993   1.397  17.692  0.00  0.00    +0.000 C 
ATOM     25  O   UNL     1      53.185   1.564  17.468  0.00  0.00    +0.000 OA
ATOM     26  H   UNL     1      52.196  -0.548  18.244  0.00  0.00    +0.000 HD
ATOM     27  H   UNL     1      50.543  -0.053  18.110  0.00  0.00    +0.000 HD
ENDBRANCH  17  24
ENDBRANCH  15  20
ENDBRANCH   1  15
TORSDOF 5
ENDMDL
MODEL 8
REMARK VINA RESULT:    -6.600      4.488      7.649
REMARK INTER + INTRA:          -9.681
REMARK INTER:                  -8.841
REMARK INTRA:                  -0.840
REMARK UNBOUND:                -1.151
REMARK  Name = 
REMARK  5 active torsions:
REMARK  status: ('A' for Active; 'I' for Inactive)
REMARK    1  A    between atoms: C_2  and  C_4
REMARK    2  A    between atoms: C_7  and  N_8
REMARK    3  A    between atoms: N_8  and  C_9
REMARK    4  A    between atoms: C_9  and  C_10
REMARK    5  A    between atoms: C_14  and  C_15
REMARK                            x       y       z     vdW  Elec       q    Type
REMARK                         _______ _______ _______ _____ _____    ______ ____
ROOT
ATOM      1  C   UNL     1      48.334   7.667  13.341  0.00  0.00    +0.000 C 
ENDROOT
BRANCH   1   2
ATOM      2  C   UNL     1      47.034   7.536  12.588  0.00  0.00    +0.000 A 
ATOM      3  C   UNL     1      46.108   8.585  12.571  0.00  0.00    +0.000 A 
ATOM      4  C   UNL     1      44.891   8.430  11.915  0.00  0.00    +0.000 A 
ATOM      5  C   UNL     1      44.597   7.234  11.255  0.00  0.00    +0.000 A 
ATOM      6  C   UNL     1      45.519   6.172  11.212  0.00  0.00    +0.000 A 
ATOM      7  C   UNL     1      46.726   6.343  11.914  0.00  0.00    +0.000 A 
BRANCH   6   8
ATOM      8  C   UNL     1      45.277   4.958  10.395  0.00  0.00    +0.000 A 
ATOM      9  C   UNL     1      44.563   3.866  10.928  0.00  0.00    +0.000 A 
ATOM     10  C   UNL     1      44.228   2.754  10.149  0.00  0.00    +0.000 A 
ATOM     11  C   UNL     1      44.596   2.711   8.809  0.00  0.00    +0.000 A 
ATOM     12  C   UNL     1      45.318   3.768   8.274  0.00  0.00    +0.000 A 
ATOM     13  F   UNL     1      45.668   3.736   6.980  0.00  0.00    +0.000 F 
ATOM     14  C   UNL     1      45.668   4.873   9.048  0.00  0.00    +0.000 A 
ENDBRANCH   6   8
ENDBRANCH   1   2
BRANCH   1  15
ATOM     15  N   UNL     1      48.108   7.636  14.777  0.00  0.00    +0.000 N 
ATOM     16  H   UNL     1      48.410   8.479  15.262  0.00  0.00    +0.000 HD
BRANCH  15  20
ATOM     17  C   UNL     1      48.881   4.218  17.132  0.00  0.00    +0.000 A 
ATOM     18  C   UNL     1      47.819   4.205  16.230  0.00  0.00    +0.000 A 
ATOM     19  C   UNL     1      47.566   5.326  15.431  0.00  0.00    +0.000 A 
ATOM     20  C   UNL     1      48.375   6.468  15.494  0.00  0.00    +0.000 A 
ATOM     21  C   UNL     1      49.421   6.473  16.429  0.00  0.00    +0.000 A 
ATOM     22  C   UNL     1      49.672   5.363  17.246  0.00  0.00    +0.000 A 
BRANCH  17  24
ATOM     23  N   UNL     1      48.437   2.983  19.177  0.00  0.00    +0.000 N 
ATOM     24  C   UNL     1      49.153   3.055  18.014  0.00  0.00    +0.000 C 
ATOM     25  O   UNL     1      49.945   2.176  17.701  0.00  0.00    +0.000 OA
ATOM     26  H   UNL     1      48.554   2.141  19.726  0.00  0.00    +0.000 HD
ATOM     27  H   UNL     1      47.611   3.540  19.343  0.00  0.00    +0.000 HD
ENDBRANCH  17  24
ENDBRANCH  15  20
ENDBRANCH   1  15
TORSDOF 5
ENDMDL
MODEL 9
REMARK VINA RESULT:    -6.320      5.228      8.143
REMARK INTER + INTRA:          -9.318
REMARK INTER:                  -8.671
REMARK INTRA:                  -0.648
REMARK UNBOUND:                -1.151
REMARK  Name = 
REMARK  5 active torsions:
REMARK  status: ('A' for Active; 'I' for Inactive)
REMARK    1  A    between atoms: C_2  and  C_4
REMARK    2  A    between atoms: C_7  and  N_8
REMARK    3  A    between atoms: N_8  and  C_9
REMARK    4  A    between atoms: C_9  and  C_10
REMARK    5  A    between atoms: C_14  and  C_15
REMARK                            x       y       z     vdW  Elec       q    Type
REMARK                         _______ _______ _______ _____ _____    ______ ____
ROOT
ATOM      1  C   UNL     1      48.591   7.331  13.835  0.00  0.00    +0.000 C 
ENDROOT
BRANCH   1   2
ATOM      2  C   UNL     1      47.312   7.441  13.044  0.00  0.00    +0.000 A 
ATOM      3  C   UNL     1      46.576   8.631  13.036  0.00  0.00    +0.000 A 
ATOM      4  C   UNL     1      45.372   8.701  12.343  0.00  0.00    +0.000 A 
ATOM      5  C   UNL     1      44.904   7.590  11.636  0.00  0.00    +0.000 A 
ATOM      6  C   UNL     1      45.635   6.389  11.584  0.00  0.00    +0.000 A 
ATOM      7  C   UNL     1      46.831   6.335  12.323  0.00  0.00    +0.000 A 
BRANCH   6   8
ATOM      8  C   UNL     1      45.219   5.257  10.722  0.00  0.00    +0.000 A 
ATOM      9  C   UNL     1      45.648   5.180   9.382  0.00  0.00    +0.000 A 
ATOM     10  C   UNL     1      45.360   4.073   8.578  0.00  0.00    +0.000 A 
ATOM     11  C   UNL     1      44.637   3.007   9.101  0.00  0.00    +0.000 A 
ATOM     12  C   UNL     1      44.187   3.075  10.412  0.00  0.00    +0.000 A 
ATOM     13  F   UNL     1      43.497   2.047  10.924  0.00  0.00    +0.000 F 
ATOM     14  C   UNL     1      44.458   4.183  11.215  0.00  0.00    +0.000 A 
ENDBRANCH   6   8
ENDBRANCH   1   2
BRANCH   1  15
ATOM     15  N   UNL     1      48.315   7.245  15.260  0.00  0.00    +0.000 N 
ATOM     16  H   UNL     1      48.075   8.137  15.690  0.00  0.00    +0.000 HD
BRANCH  15  20
ATOM     17  C   UNL     1      50.712   4.657  17.580  0.00  0.00    +0.000 A 
ATOM     18  C   UNL     1      51.283   5.790  17.003  0.00  0.00    +0.000 A 
ATOM     19  C   UNL     1      50.493   6.664  16.249  0.00  0.00    +0.000 A 
ATOM     20  C   UNL     1      49.121   6.446  16.074  0.00  0.00    +0.000 A 
ATOM     21  C   UNL     1      48.571   5.284  16.637  0.00  0.00    +0.000 A 
ATOM     22  C   UNL     1      49.357   4.393  17.379  0.00  0.00    +0.000 A 
BRANCH  17  24
ATOM     23  N   UNL     1      51.402   2.373  18.040  0.00  0.00    +0.000 N 
ATOM     24  C   UNL     1      51.533   3.696  18.359  0.00  0.00    +0.000 C 
ATOM     25  O   UNL     1      52.324   4.067  19.217  0.00  0.00    +0.000 OA
ATOM     26  H   UNL     1      52.034   1.733  18.504  0.00  0.00    +0.000 HD
ATOM     27  H   UNL     1      50.962   2.061  17.185  0.00  0.00    +0.000 HD
ENDBRANCH  17  24
ENDBRANCH  15  20
ENDBRANCH   1  15
TORSDOF 5
ENDMDL
