MODEL 1
REMARK VINA RESULT:    -8.734      0.000      0.000
REMARK INTER + INTRA:         -12.665
REMARK INTER:                 -11.798
REMARK INTRA:                  -0.867
REMARK UNBOUND:                -0.867
REMARK  Name = 
REMARK  6 active torsions:
REMARK  status: ('A' for Active; 'I' for Inactive)
REMARK    1  A    between atoms: C_2  and  C_3
REMARK    2  A    between atoms: C_6  and  N_7
REMARK    3  A    between atoms: N_7  and  C_8
REMARK    4  A    between atoms: C_8  and  C_9
REMARK    5  A    between atoms: C_13  and  C_14
REMARK    6  A    between atoms: C_18  and  C_19
REMARK                            x       y       z     vdW  Elec       q    Type
REMARK                         _______ _______ _______ _____ _____    ______ ____
ROOT
ATOM      1  C   UNL     1      44.938   5.927  11.693  0.00  0.00    +0.000 A 
ATOM      2  C   UNL     1      45.070   7.237  11.207  0.00  0.00    +0.000 A 
ATOM      3  C   UNL     1      45.912   8.154  11.831  0.00  0.00    +0.000 A 
ATOM      4  C   UNL     1      46.678   7.764  12.930  0.00  0.00    +0.000 A 
ATOM      5  C   UNL     1      46.650   6.441  13.398  0.00  0.00    +0.000 A 
ATOM      6  C   UNL     1      45.767   5.547  12.761  0.00  0.00    +0.000 A 
ENDROOT
BRANCH   5   7
ATOM      7  C   UNL     1      47.482   5.981  14.527  0.00  0.00    +0.000 A 
ATOM      8  C   UNL     1      48.597   6.727  14.945  0.00  0.00    +0.000 A 
ATOM      9  C   UNL     1      49.392   6.263  15.981  0.00  0.00    +0.000 A 
ATOM     10  N   UNL     1      49.159   5.114  16.639  0.00  0.00    +0.000 NA
ATOM     11  C   UNL     1      48.070   4.402  16.236  0.00  0.00    +0.000 A 
ATOM     12  C   UNL     1      47.219   4.787  15.207  0.00  0.00    +0.000 A 
BRANCH  11  13
ATOM     13  C   UNL     1      47.825   3.118  16.964  0.00  0.00    +0.000 C 
ATOM     14  N   UNL     1      48.909   2.288  17.051  0.00  0.00    +0.000 N 
ATOM     15  O   UNL     1      46.738   2.819  17.443  0.00  0.00    +0.000 OA
ATOM     16  H   UNL     1      49.784   2.575  16.627  0.00  0.00    +0.000 HD
ATOM     17  H   UNL     1      48.821   1.392  17.504  0.00  0.00    +0.000 HD
ENDBRANCH  11  13
ENDBRANCH   5   7
BRANCH   1  18
ATOM     18  C   UNL     1      43.851   4.998  11.169  0.00  0.00    +0.000 C 
ATOM     19  C   UNL     1      43.167   4.049  12.136  0.00  0.00    +0.000 C 
ATOM     20  C   UNL     1      42.459   5.297  11.726  0.00  0.00    +0.000 C 
BRANCH  18  21
ATOM     21  N   UNL     1      43.907   4.725   9.737  0.00  0.00    +0.000 N 
ATOM     22  H   UNL     1      43.390   5.313   9.092  0.00  0.00    +0.000 HD
BRANCH  21  26
ATOM     23  C   UNL     1      46.661   2.675   7.484  0.00  0.00    +0.000 A 
ATOM     24  C   UNL     1      46.514   4.049   7.428  0.00  0.00    +0.000 A 
ATOM     25  N   UNL     1      45.618   4.721   8.194  0.00  0.00    +0.000 NA
ATOM     26  C   UNL     1      44.847   3.989   9.032  0.00  0.00    +0.000 A 
ATOM     27  C   UNL     1      45.009   2.607   9.083  0.00  0.00    +0.000 A 
ATOM     28  N   UNL     1      45.914   1.917   8.325  0.00  0.00    +0.000 NA
BRANCH  23  30
ATOM     29  N   UNL     1      48.378   1.516   5.921  0.00  0.00    +0.000 NA
ATOM     30  C   UNL     1      47.607   2.007   6.641  0.00  0.00    +0.000 C 
ENDBRANCH  23  30
ENDBRANCH  21  26
ENDBRANCH  18  21
ENDBRANCH   1  18
TORSDOF 6
ENDMDL
MODEL 2
REMARK VINA RESULT:    -8.238      3.299      4.293
REMARK INTER + INTRA:         -11.995
REMARK INTER:                 -11.036
REMARK INTRA:                  -0.959
REMARK UNBOUND:                -0.867
REMARK  Name = 
REMARK  6 active torsions:
REMARK  status: ('A' for Active; 'I' for Inactive)
REMARK    1  A    between atoms: C_2  and  C_3
REMARK    2  A    between atoms: C_6  and  N_7
REMARK    3  A    between atoms: N_7  and  C_8
REMARK    4  A    between atoms: C_8  and  C_9
REMARK    5  A    between atoms: C_13  and  C_14
REMARK    6  A    between atoms: C_18  and  C_19
REMARK                            x       y       z     vdW  Elec       q    Type
REMARK                         _______ _______ _______ _____ _____    ______ ____
ROOT
ATOM      1  C   UNL     1      45.053   5.256  12.005  0.00  0.00    +0.000 A 
ATOM      2  C   UNL     1      45.518   4.318  12.939  0.00  0.00    +0.000 A 
ATOM      3  C   UNL     1      46.772   4.452  13.530  0.00  0.00    +0.000 A 
ATOM      4  C   UNL     1      47.571   5.557  13.231  0.00  0.00    +0.000 A 
ATOM      5  C   UNL     1      47.113   6.568  12.373  0.00  0.00    +0.000 A 
ATOM      6  C   UNL     1      45.852   6.387  11.773  0.00  0.00    +0.000 A 
ENDROOT
BRANCH   5   7
ATOM      7  C   UNL     1      47.910   7.774  12.072  0.00  0.00    +0.000 A 
ATOM      8  C   UNL     1      47.318   9.048  12.094  0.00  0.00    +0.000 A 
ATOM      9  C   UNL     1      48.070  10.167  11.771  0.00  0.00    +0.000 A 
ATOM     10  N   UNL     1      49.370  10.117  11.433  0.00  0.00    +0.000 NA
ATOM     11  C   UNL     1      49.941   8.879  11.425  0.00  0.00    +0.000 A 
ATOM     12  C   UNL     1      49.265   7.703  11.732  0.00  0.00    +0.000 A 
BRANCH  11  13
ATOM     13  C   UNL     1      51.383   8.829  11.034  0.00  0.00    +0.000 C 
ATOM     14  N   UNL     1      52.020   7.651  11.320  0.00  0.00    +0.000 N 
ATOM     15  O   UNL     1      51.964   9.768  10.503  0.00  0.00    +0.000 OA
ATOM     16  H   UNL     1      51.498   6.909  11.772  0.00  0.00    +0.000 HD
ATOM     17  H   UNL     1      53.000   7.546  11.112  0.00  0.00    +0.000 HD
ENDBRANCH  11  13
ENDBRANCH   5   7
BRANCH   1  18
ATOM     18  C   UNL     1      43.798   4.994  11.183  0.00  0.00    +0.000 C 
ATOM     19  C   UNL     1      42.607   4.332  11.852  0.00  0.00    +0.000 C 
ATOM     20  C   UNL     1      42.584   5.807  11.632  0.00  0.00    +0.000 C 
BRANCH  18  21
ATOM     21  N   UNL     1      44.006   4.922   9.742  0.00  0.00    +0.000 N 
ATOM     22  H   UNL     1      43.673   5.673   9.147  0.00  0.00    +0.000 HD
BRANCH  21  26
ATOM     23  C   UNL     1      46.676   2.765   7.488  0.00  0.00    +0.000 A 
ATOM     24  C   UNL     1      46.619   4.146   7.470  0.00  0.00    +0.000 A 
ATOM     25  N   UNL     1      45.750   4.852   8.236  0.00  0.00    +0.000 NA
ATOM     26  C   UNL     1      44.914   4.148   9.035  0.00  0.00    +0.000 A 
ATOM     27  C   UNL     1      44.987   2.757   9.048  0.00  0.00    +0.000 A 
ATOM     28  N   UNL     1      45.863   2.033   8.290  0.00  0.00    +0.000 NA
BRANCH  23  30
ATOM     29  N   UNL     1      48.388   1.535   5.973  0.00  0.00    +0.000 NA
ATOM     30  C   UNL     1      47.598   2.062   6.646  0.00  0.00    +0.000 C 
ENDBRANCH  23  30
ENDBRANCH  21  26
ENDBRANCH  18  21
ENDBRANCH   1  18
TORSDOF 6
ENDMDL
MODEL 3
REMARK VINA RESULT:    -8.039      1.464      1.975
REMARK INTER + INTRA:         -11.726
REMARK INTER:                 -11.040
REMARK INTRA:                  -0.686
REMARK UNBOUND:                -0.867
REMARK  Name = 
REMARK  6 active torsions:
REMARK  status: ('A' for Active; 'I' for Inactive)
REMARK    1  A    between atoms: C_2  and  C_3
REMARK    2  A    between atoms: C_6  and  N_7
REMARK    3  A    between atoms: N_7  and  C_8
REMARK    4  A    between atoms: C_8  and  C_9
REMARK    5  A    between atoms: C_13  and  C_14
REMARK    6  A    between atoms: C_18  and  C_19
REMARK                            x       y       z     vdW  Elec       q    Type
REMARK                         _______ _______ _______ _____ _____    ______ ____
ROOT
ATOM      1  C   UNL     1      45.388   5.335  11.967  0.00  0.00    +0.000 A 
ATOM      2  C   UNL     1      46.048   6.390  11.319  0.00  0.00    +0.000 A 
ATOM      3  C   UNL     1      47.122   7.043  11.920  0.00  0.00    +0.000 A 
ATOM      4  C   UNL     1      47.589   6.621  13.165  0.00  0.00    +0.000 A 
ATOM      5  C   UNL     1      47.020   5.513  13.812  0.00  0.00    +0.000 A 
ATOM      6  C   UNL     1      45.919   4.893  13.189  0.00  0.00    +0.000 A 
ENDROOT
BRANCH   5   7
ATOM      7  C   UNL     1      47.519   5.009  15.107  0.00  0.00    +0.000 A 
ATOM      8  C   UNL     1      47.192   3.715  15.546  0.00  0.00    +0.000 A 
ATOM      9  C   UNL     1      47.635   3.269  16.782  0.00  0.00    +0.000 A 
ATOM     10  N   UNL     1      48.386   4.013  17.614  0.00  0.00    +0.000 NA
ATOM     11  C   UNL     1      48.709   5.263  17.176  0.00  0.00    +0.000 A 
ATOM     12  C   UNL     1      48.308   5.793  15.956  0.00  0.00    +0.000 A 
BRANCH  11  13
ATOM     13  C   UNL     1      49.532   6.088  18.113  0.00  0.00    +0.000 C 
ATOM     14  N   UNL     1      49.127   6.057  19.420  0.00  0.00    +0.000 N 
ATOM     15  O   UNL     1      50.494   6.752  17.748  0.00  0.00    +0.000 OA
ATOM     16  H   UNL     1      48.316   5.501  19.670  0.00  0.00    +0.000 HD
ATOM     17  H   UNL     1      49.613   6.606  20.111  0.00  0.00    +0.000 HD
ENDBRANCH  11  13
ENDBRANCH   5   7
BRANCH   1  18
ATOM     18  C   UNL     1      44.076   4.778  11.430  0.00  0.00    +0.000 C 
ATOM     19  C   UNL     1      43.158   4.022  12.373  0.00  0.00    +0.000 C 
ATOM     20  C   UNL     1      42.833   5.437  12.028  0.00  0.00    +0.000 C 
BRANCH  18  21
ATOM     21  N   UNL     1      44.039   4.564   9.988  0.00  0.00    +0.000 N 
ATOM     22  H   UNL     1      43.455   5.154   9.406  0.00  0.00    +0.000 HD
BRANCH  21  26
ATOM     23  C   UNL     1      46.699   2.716   7.463  0.00  0.00    +0.000 A 
ATOM     24  C   UNL     1      46.498   4.083   7.476  0.00  0.00    +0.000 A 
ATOM     25  N   UNL     1      45.636   4.689   8.331  0.00  0.00    +0.000 NA
ATOM     26  C   UNL     1      44.953   3.894   9.188  0.00  0.00    +0.000 A 
ATOM     27  C   UNL     1      45.168   2.518   9.168  0.00  0.00    +0.000 A 
ATOM     28  N   UNL     1      46.041   1.896   8.320  0.00  0.00    +0.000 NA
BRANCH  23  30
ATOM     29  N   UNL     1      48.308   1.585   5.769  0.00  0.00    +0.000 NA
ATOM     30  C   UNL     1      47.606   2.120   6.528  0.00  0.00    +0.000 C 
ENDBRANCH  23  30
ENDBRANCH  21  26
ENDBRANCH  18  21
ENDBRANCH   1  18
TORSDOF 6
ENDMDL
MODEL 4
REMARK VINA RESULT:    -7.558      1.922      2.369
REMARK INTER + INTRA:         -11.077
REMARK INTER:                 -10.350
REMARK INTRA:                  -0.726
REMARK UNBOUND:                -0.867
REMARK  Name = 
REMARK  6 active torsions:
REMARK  status: ('A' for Active; 'I' for Inactive)
REMARK    1  A    between atoms: C_2  and  C_3
REMARK    2  A    between atoms: C_6  and  N_7
REMARK    3  A    between atoms: N_7  and  C_8
REMARK    4  A    between atoms: C_8  and  C_9
REMARK    5  A    between atoms: C_13  and  C_14
REMARK    6  A    between atoms: C_18  and  C_19
REMARK                            x       y       z     vdW  Elec       q    Type
REMARK                         _______ _______ _______ _____ _____    ______ ____
ROOT
ATOM      1  C   UNL     1      44.630   6.543  11.374  0.00  0.00    +0.000 A 
ATOM      2  C   UNL     1      43.992   7.764  11.112  0.00  0.00    +0.000 A 
ATOM      3  C   UNL     1      44.574   8.974  11.482  0.00  0.00    +0.000 A 
ATOM      4  C   UNL     1      45.834   8.989  12.083  0.00  0.00    +0.000 A 
ATOM      5  C   UNL     1      46.552   7.799  12.284  0.00  0.00    +0.000 A 
ATOM      6  C   UNL     1      45.922   6.593  11.922  0.00  0.00    +0.000 A 
ENDROOT
BRANCH   5   7
ATOM      7  C   UNL     1      47.906   7.781  12.872  0.00  0.00    +0.000 A 
ATOM      8  C   UNL     1      49.025   8.147  12.105  0.00  0.00    +0.000 A 
ATOM      9  C   UNL     1      50.294   8.088  12.659  0.00  0.00    +0.000 A 
ATOM     10  N   UNL     1      50.536   7.697  13.923  0.00  0.00    +0.000 NA
ATOM     11  C   UNL     1      49.444   7.354  14.664  0.00  0.00    +0.000 A 
ATOM     12  C   UNL     1      48.137   7.381  14.192  0.00  0.00    +0.000 A 
BRANCH  11  13
ATOM     13  C   UNL     1      49.722   6.907  16.064  0.00  0.00    +0.000 C 
ATOM     14  N   UNL     1      48.813   6.024  16.580  0.00  0.00    +0.000 N 
ATOM     15  O   UNL     1      50.685   7.300  16.712  0.00  0.00    +0.000 OA
ATOM     16  H   UNL     1      48.026   5.738  16.008  0.00  0.00    +0.000 HD
ATOM     17  H   UNL     1      48.914   5.693  17.526  0.00  0.00    +0.000 HD
ENDBRANCH  11  13
ENDBRANCH   5   7
BRANCH   1  18
ATOM     18  C   UNL     1      43.902   5.218  11.191  0.00  0.00    +0.000 C 
ATOM     19  C   UNL     1      43.769   4.283  12.380  0.00  0.00    +0.000 C 
ATOM     20  C   UNL     1      42.597   5.115  11.981  0.00  0.00    +0.000 C 
BRANCH  18  21
ATOM     21  N   UNL     1      43.844   4.727   9.819  0.00  0.00    +0.000 N 
ATOM     22  H   UNL     1      43.184   5.135   9.166  0.00  0.00    +0.000 HD
BRANCH  21  26
ATOM     23  C   UNL     1      46.648   2.736   7.575  0.00  0.00    +0.000 A 
ATOM     24  C   UNL     1      46.520   4.113   7.572  0.00  0.00    +0.000 A 
ATOM     25  N   UNL     1      45.607   4.765   8.335  0.00  0.00    +0.000 NA
ATOM     26  C   UNL     1      44.799   4.009   9.115  0.00  0.00    +0.000 A 
ATOM     27  C   UNL     1      44.942   2.623   9.113  0.00  0.00    +0.000 A 
ATOM     28  N   UNL     1      45.864   1.954   8.357  0.00  0.00    +0.000 NA
BRANCH  23  30
ATOM     29  N   UNL     1      48.368   1.516   6.062  0.00  0.00    +0.000 NA
ATOM     30  C   UNL     1      47.615   2.092   6.736  0.00  0.00    +0.000 C 
ENDBRANCH  23  30
ENDBRANCH  21  26
ENDBRANCH  18  21
ENDBRANCH   1  18
TORSDOF 6
ENDMDL
MODEL 5
REMARK VINA RESULT:    -7.415      2.907      3.662
REMARK INTER + INTRA:         -10.883
REMARK INTER:                 -10.103
REMARK INTRA:                  -0.780
REMARK UNBOUND:                -0.867
REMARK  Name = 
REMARK  6 active torsions:
REMARK  status: ('A' for Active; 'I' for Inactive)
REMARK    1  A    between atoms: C_2  and  C_3
REMARK    2  A    between atoms: C_6  and  N_7
REMARK    3  A    between atoms: N_7  and  C_8
REMARK    4  A    between atoms: C_8  and  C_9
REMARK    5  A    between atoms: C_13  and  C_14
REMARK    6  A    between atoms: C_18  and  C_19
REMARK                            x       y       z     vdW  Elec       q    Type
REMARK                         _______ _______ _______ _____ _____    ______ ____
ROOT
ATOM      1  C   UNL     1      45.004   5.705  11.670  0.00  0.00    +0.000 A 
ATOM      2  C   UNL     1      44.224   6.820  11.331  0.00  0.00    +0.000 A 
ATOM      3  C   UNL     1      44.666   8.114  11.592  0.00  0.00    +0.000 A 
ATOM      4  C   UNL     1      45.925   8.322  12.159  0.00  0.00    +0.000 A 
ATOM      5  C   UNL     1      46.780   7.243  12.432  0.00  0.00    +0.000 A 
ATOM      6  C   UNL     1      46.290   5.947  12.181  0.00  0.00    +0.000 A 
ENDROOT
BRANCH   5   7
ATOM      7  C   UNL     1      48.136   7.428  12.986  0.00  0.00    +0.000 A 
ATOM      8  C   UNL     1      48.390   7.203  14.350  0.00  0.00    +0.000 A 
ATOM      9  C   UNL     1      49.659   7.419  14.864  0.00  0.00    +0.000 A 
ATOM     10  N   UNL     1      50.700   7.836  14.123  0.00  0.00    +0.000 NA
ATOM     11  C   UNL     1      50.449   8.041  12.798  0.00  0.00    +0.000 A 
ATOM     12  C   UNL     1      49.210   7.853  12.197  0.00  0.00    +0.000 A 
BRANCH  11  13
ATOM     13  C   UNL     1      51.608   8.518  11.983  0.00  0.00    +0.000 C 
ATOM     14  N   UNL     1      52.183   7.569  11.183  0.00  0.00    +0.000 N 
ATOM     15  O   UNL     1      52.025   9.670  12.025  0.00  0.00    +0.000 OA
ATOM     16  H   UNL     1      51.809   6.627  11.193  0.00  0.00    +0.000 HD
ATOM     17  H   UNL     1      52.986   7.803  10.621  0.00  0.00    +0.000 HD
ENDBRANCH  11  13
ENDBRANCH   5   7
BRANCH   1  18
ATOM     18  C   UNL     1      44.433   4.294  11.608  0.00  0.00    +0.000 C 
ATOM     19  C   UNL     1      44.729   3.332  12.744  0.00  0.00    +0.000 C 
ATOM     20  C   UNL     1      43.396   3.999  12.691  0.00  0.00    +0.000 C 
BRANCH  18  21
ATOM     21  N   UNL     1      44.095   3.822  10.271  0.00  0.00    +0.000 N 
ATOM     22  H   UNL     1      43.171   3.998   9.894  0.00  0.00    +0.000 HD
BRANCH  21  26
ATOM     23  C   UNL     1      46.707   2.599   7.347  0.00  0.00    +0.000 A 
ATOM     24  C   UNL     1      46.133   1.730   8.257  0.00  0.00    +0.000 A 
ATOM     25  N   UNL     1      45.252   2.138   9.204  0.00  0.00    +0.000 NA
ATOM     26  C   UNL     1      44.948   3.457   9.240  0.00  0.00    +0.000 A 
ATOM     27  C   UNL     1      45.529   4.321   8.314  0.00  0.00    +0.000 A 
ATOM     28  N   UNL     1      46.409   3.922   7.348  0.00  0.00    +0.000 NA
BRANCH  23  30
ATOM     29  N   UNL     1      48.396   1.680   5.604  0.00  0.00    +0.000 NA
ATOM     30  C   UNL     1      47.648   2.123   6.377  0.00  0.00    +0.000 C 
ENDBRANCH  23  30
ENDBRANCH  21  26
ENDBRANCH  18  21
ENDBRANCH   1  18
TORSDOF 6
ENDMDL
MODEL 6
REMARK VINA RESULT:    -6.775      2.676      8.036
REMARK INTER + INTRA:         -10.019
REMARK INTER:                  -9.408
REMARK INTRA:                  -0.611
REMARK UNBOUND:                -0.867
REMARK  Name = 
REMARK  6 active torsions:
REMARK  status: ('A' for Active; 'I' for Inactive)
REMARK    1  A    between atoms: C_2  and  C_3
REMARK    2  A    between atoms: C_6  and  N_7
REMARK    3  A    between atoms: N_7  and  C_8
REMARK    4  A    between atoms: C_8  and  C_9
REMARK    5  A    between atoms: C_13  and  C_14
REMARK    6  A    between atoms: C_18  and  C_19
REMARK                            x       y       z     vdW  Elec       q    Type
REMARK                         _______ _______ _______ _____ _____    ______ ____
ROOT
ATOM      1  C   UNL     1      47.753   7.651  12.763  0.00  0.00    +0.000 A 
ATOM      2  C   UNL     1      47.029   8.809  13.080  0.00  0.00    +0.000 A 
ATOM      3  C   UNL     1      45.645   8.859  12.922  0.00  0.00    +0.000 A 
ATOM      4  C   UNL     1      44.951   7.730  12.484  0.00  0.00    +0.000 A 
ATOM      5  C   UNL     1      45.620   6.520  12.241  0.00  0.00    +0.000 A 
ATOM      6  C   UNL     1      47.021   6.514  12.385  0.00  0.00    +0.000 A 
ENDROOT
BRANCH   5   7
ATOM      7  C   UNL     1      44.913   5.293  11.824  0.00  0.00    +0.000 A 
ATOM      8  C   UNL     1      43.948   4.704  12.658  0.00  0.00    +0.000 A 
ATOM      9  C   UNL     1      43.320   3.531  12.271  0.00  0.00    +0.000 A 
ATOM     10  N   UNL     1      43.574   2.900  11.111  0.00  0.00    +0.000 NA
ATOM     11  C   UNL     1      44.503   3.483  10.301  0.00  0.00    +0.000 A 
ATOM     12  C   UNL     1      45.183   4.656  10.608  0.00  0.00    +0.000 A 
BRANCH  11  13
ATOM     13  C   UNL     1      44.791   2.769   9.020  0.00  0.00    +0.000 C 
ATOM     14  N   UNL     1      44.383   3.422   7.889  0.00  0.00    +0.000 N 
ATOM     15  O   UNL     1      45.344   1.676   8.974  0.00  0.00    +0.000 OA
ATOM     16  H   UNL     1      43.918   4.318   7.980  0.00  0.00    +0.000 HD
ATOM     17  H   UNL     1      44.516   2.996   6.985  0.00  0.00    +0.000 HD
ENDBRANCH  11  13
ENDBRANCH   5   7
BRANCH   1  18
ATOM     18  C   UNL     1      49.275   7.664  12.706  0.00  0.00    +0.000 C 
ATOM     19  C   UNL     1      49.959   7.696  11.351  0.00  0.00    +0.000 C 
ATOM     20  C   UNL     1      49.862   8.958  12.142  0.00  0.00    +0.000 C 
BRANCH  18  21
ATOM     21  N   UNL     1      49.943   7.137  13.890  0.00  0.00    +0.000 N 
ATOM     22  H   UNL     1      50.949   7.007  13.885  0.00  0.00    +0.000 HD
BRANCH  21  26
ATOM     23  C   UNL     1      48.452   6.863  17.707  0.00  0.00    +0.000 A 
ATOM     24  C   UNL     1      48.647   5.762  16.893  0.00  0.00    +0.000 A 
ATOM     25  N   UNL     1      49.164   5.859  15.642  0.00  0.00    +0.000 NA
ATOM     26  C   UNL     1      49.484   7.097  15.198  0.00  0.00    +0.000 A 
ATOM     27  C   UNL     1      49.287   8.197  16.030  0.00  0.00    +0.000 A 
ATOM     28  N   UNL     1      48.778   8.114  17.295  0.00  0.00    +0.000 NA
BRANCH  23  30
ATOM     29  N   UNL     1      47.462   6.543  20.084  0.00  0.00    +0.000 NA
ATOM     30  C   UNL     1      47.885   6.713  19.014  0.00  0.00    +0.000 C 
ENDBRANCH  23  30
ENDBRANCH  21  26
ENDBRANCH  18  21
ENDBRANCH   1  18
TORSDOF 6
ENDMDL
MODEL 7
REMARK VINA RESULT:    -6.695      3.225      7.575
REMARK INTER + INTRA:          -9.910
REMARK INTER:                  -8.915
REMARK INTRA:                  -0.995
REMARK UNBOUND:                -0.867
REMARK  Name = 
REMARK  6 active torsions:
REMARK  status: ('A' for Active; 'I' for Inactive)
REMARK    1  A    between atoms: C_2  and  C_3
REMARK    2  A    between atoms: C_6  and  N_7
REMARK    3  A    between atoms: N_7  and  C_8
REMARK    4  A    between atoms: C_8  and  C_9
REMARK    5  A    between atoms: C_13  and  C_14
REMARK    6  A    between atoms: C_18  and  C_19
REMARK                            x       y       z     vdW  Elec       q    Type
REMARK                         _______ _______ _______ _____ _____    ______ ____
ROOT
ATOM      1  C   UNL     1      48.697   7.929  14.645  0.00  0.00    +0.000 A 
ATOM      2  C   UNL     1      49.799   8.061  13.787  0.00  0.00    +0.000 A 
ATOM      3  C   UNL     1      49.732   7.643  12.460  0.00  0.00    +0.000 A 
ATOM      4  C   UNL     1      48.541   7.125  11.949  0.00  0.00    +0.000 A 
ATOM      5  C   UNL     1      47.384   7.057  12.743  0.00  0.00    +0.000 A 
ATOM      6  C   UNL     1      47.495   7.463  14.086  0.00  0.00    +0.000 A 
ENDROOT
BRANCH   5   7
ATOM      7  C   UNL     1      46.095   6.560  12.222  0.00  0.00    +0.000 A 
ATOM      8  C   UNL     1      45.153   7.448  11.675  0.00  0.00    +0.000 A 
ATOM      9  C   UNL     1      43.931   6.972  11.227  0.00  0.00    +0.000 A 
ATOM     10  N   UNL     1      43.575   5.676  11.276  0.00  0.00    +0.000 NA
ATOM     11  C   UNL     1      44.497   4.820  11.798  0.00  0.00    +0.000 A 
ATOM     12  C   UNL     1      45.745   5.207  12.273  0.00  0.00    +0.000 A 
BRANCH  11  13
ATOM     13  C   UNL     1      44.089   3.383  11.862  0.00  0.00    +0.000 C 
ATOM     14  N   UNL     1      44.954   2.564  12.536  0.00  0.00    +0.000 N 
ATOM     15  O   UNL     1      43.061   2.957  11.348  0.00  0.00    +0.000 OA
ATOM     16  H   UNL     1      45.798   2.963  12.933  0.00  0.00    +0.000 HD
ATOM     17  H   UNL     1      44.765   1.577  12.603  0.00  0.00    +0.000 HD
ENDBRANCH  11  13
ENDBRANCH   5   7
BRANCH   1  18
ATOM     18  C   UNL     1      48.833   8.159  16.144  0.00  0.00    +0.000 C 
ATOM     19  C   UNL     1      49.853   9.166  16.643  0.00  0.00    +0.000 C 
ATOM     20  C   UNL     1      48.414   9.558  16.596  0.00  0.00    +0.000 C 
BRANCH  18  21
ATOM     21  N   UNL     1      48.363   7.063  16.983  0.00  0.00    +0.000 N 
ATOM     22  H   UNL     1      47.421   7.084  17.358  0.00  0.00    +0.000 HD
BRANCH  21  26
ATOM     23  C   UNL     1      50.054   3.331  17.268  0.00  0.00    +0.000 A 
ATOM     24  C   UNL     1      50.665   4.474  17.750  0.00  0.00    +0.000 A 
ATOM     25  N   UNL     1      50.088   5.700  17.674  0.00  0.00    +0.000 NA
ATOM     26  C   UNL     1      48.869   5.776  17.091  0.00  0.00    +0.000 A 
ATOM     27  C   UNL     1      48.262   4.616  16.615  0.00  0.00    +0.000 A 
ATOM     28  N   UNL     1      48.826   3.374  16.694  0.00  0.00    +0.000 NA
BRANCH  23  30
ATOM     29  N   UNL     1      51.278   1.045  17.373  0.00  0.00    +0.000 NA
ATOM     30  C   UNL     1      50.711   2.061  17.353  0.00  0.00    +0.000 C 
ENDBRANCH  23  30
ENDBRANCH  21  26
ENDBRANCH  18  21
ENDBRANCH   1  18
TORSDOF 6
ENDMDL
MODEL 8
REMARK VINA RESULT:    -5.909      3.446      7.633
REMARK INTER + INTRA:          -8.848
REMARK INTER:                  -7.898
REMARK INTRA:                  -0.950
REMARK UNBOUND:                -0.867
REMARK  Name = 
REMARK  6 active torsions:
REMARK  status: ('A' for Active; 'I' for Inactive)
REMARK    1  A    between atoms: C_2  and  C_3
REMARK    2  A    between atoms: C_6  and  N_7
REMARK    3  A    between atoms: N_7  and  C_8
REMARK    4  A    between atoms: C_8  and  C_9
REMARK    5  A    between atoms: C_13  and  C_14
REMARK    6  A    between atoms: C_18  and  C_19
REMARK                            x       y       z     vdW  Elec       q    Type
REMARK                         _______ _______ _______ _____ _____    ______ ____
ROOT
ATOM      1  C   UNL     1      48.103   8.683  12.463  0.00  0.00    +0.000 A 
ATOM      2  C   UNL     1      47.678  10.019  12.400  0.00  0.00    +0.000 A 
ATOM      3  C   UNL     1      46.356  10.340  12.104  0.00  0.00    +0.000 A 
ATOM      4  C   UNL     1      45.416   9.326  11.911  0.00  0.00    +0.000 A 
ATOM      5  C   UNL     1      45.772   7.975  12.053  0.00  0.00    +0.000 A 
ATOM      6  C   UNL     1      47.123   7.686  12.325  0.00  0.00    +0.000 A 
ENDROOT
BRANCH   5   7
ATOM      7  C   UNL     1      44.796   6.879  11.902  0.00  0.00    +0.000 A 
ATOM      8  C   UNL     1      43.513   7.128  11.383  0.00  0.00    +0.000 A 
ATOM      9  C   UNL     1      42.593   6.096  11.285  0.00  0.00    +0.000 A 
ATOM     10  N   UNL     1      42.853   4.830  11.658  0.00  0.00    +0.000 NA
ATOM     11  C   UNL     1      44.103   4.594  12.150  0.00  0.00    +0.000 A 
ATOM     12  C   UNL     1      45.087   5.566  12.287  0.00  0.00    +0.000 A 
BRANCH  11  13
ATOM     13  C   UNL     1      44.380   3.188  12.575  0.00  0.00    +0.000 C 
ATOM     14  N   UNL     1      45.705   2.874  12.710  0.00  0.00    +0.000 N 
ATOM     15  O   UNL     1      43.494   2.367  12.784  0.00  0.00    +0.000 OA
ATOM     16  H   UNL     1      46.400   3.586  12.514  0.00  0.00    +0.000 HD
ATOM     17  H   UNL     1      45.977   1.940  12.969  0.00  0.00    +0.000 HD
ENDBRANCH  11  13
ENDBRANCH   5   7
BRANCH   1  18
ATOM     18  C   UNL     1      49.582   8.329  12.549  0.00  0.00    +0.000 C 
ATOM     19  C   UNL     1      50.189   7.448  11.472  0.00  0.00    +0.000 C 
ATOM     20  C   UNL     1      50.425   8.920  11.419  0.00  0.00    +0.000 C 
BRANCH  18  21
ATOM     21  N   UNL     1      50.165   8.424  13.882  0.00  0.00    +0.000 N 
ATOM     22  H   UNL     1      50.856   9.139  14.079  0.00  0.00    +0.000 HD
BRANCH  21  26
ATOM     23  C   UNL     1      48.609   6.784  17.310  0.00  0.00    +0.000 A 
ATOM     24  C   UNL     1      48.866   6.044  16.170  0.00  0.00    +0.000 A 
ATOM     25  N   UNL     1      49.403   6.589  15.050  0.00  0.00    +0.000 NA
ATOM     26  C   UNL     1      49.681   7.914  15.077  0.00  0.00    +0.000 A 
ATOM     27  C   UNL     1      49.422   8.646  16.234  0.00  0.00    +0.000 A 
ATOM     28  N   UNL     1      48.891   8.109  17.373  0.00  0.00    +0.000 NA
BRANCH  23  30
ATOM     29  N   UNL     1      47.572   5.710  19.434  0.00  0.00    +0.000 NA
ATOM     30  C   UNL     1      48.022   6.167  18.463  0.00  0.00    +0.000 C 
ENDBRANCH  23  30
ENDBRANCH  21  26
ENDBRANCH  18  21
ENDBRANCH   1  18
TORSDOF 6
ENDMDL
MODEL 9
REMARK VINA RESULT:    -5.899      3.719      5.709
REMARK INTER + INTRA:          -8.835
REMARK INTER:                  -7.945
REMARK INTRA:                  -0.890
REMARK UNBOUND:                -0.867
REMARK  Name = 
REMARK  6 active torsions:
REMARK  status: ('A' for Active; 'I' for Inactive)
REMARK    1  A    between atoms: C_2  and  C_3
REMARK    2  A    between atoms: C_6  and  N_7
REMARK    3  A    between atoms: N_7  and  C_8
REMARK    4  A    between atoms: C_8  and  C_9
REMARK    5  A    between atoms: C_13  and  C_14
REMARK    6  A    between atoms: C_18  and  C_19
REMARK                            x       y       z     vdW  Elec       q    Type
REMARK                         _______ _______ _______ _____ _____    ______ ____
ROOT
ATOM      1  C   UNL     1      49.257   8.439  14.777  0.00  0.00    +0.000 A 
ATOM      2  C   UNL     1      48.920   9.619  15.456  0.00  0.00    +0.000 A 
ATOM      3  C   UNL     1      48.510   9.592  16.787  0.00  0.00    +0.000 A 
ATOM      4  C   UNL     1      48.473   8.382  17.482  0.00  0.00    +0.000 A 
ATOM      5  C   UNL     1      48.887   7.186  16.873  0.00  0.00    +0.000 A 
ATOM      6  C   UNL     1      49.270   7.247  15.520  0.00  0.00    +0.000 A 
ENDROOT
BRANCH   5   7
ATOM      7  C   UNL     1      48.907   5.897  17.592  0.00  0.00    +0.000 A 
ATOM      8  C   UNL     1      48.475   5.814  18.927  0.00  0.00    +0.000 A 
ATOM      9  C   UNL     1      48.535   4.605  19.602  0.00  0.00    +0.000 A 
ATOM     10  N   UNL     1      48.989   3.467  19.047  0.00  0.00    +0.000 NA
ATOM     11  C   UNL     1      49.396   3.552  17.749  0.00  0.00    +0.000 A 
ATOM     12  C   UNL     1      49.373   4.721  16.996  0.00  0.00    +0.000 A 
BRANCH  11  13
ATOM     13  C   UNL     1      49.912   2.286  17.144  0.00  0.00    +0.000 C 
ATOM     14  N   UNL     1      50.986   1.733  17.788  0.00  0.00    +0.000 N 
ATOM     15  O   UNL     1      49.423   1.777  16.143  0.00  0.00    +0.000 OA
ATOM     16  H   UNL     1      51.361   2.199  18.606  0.00  0.00    +0.000 HD
ATOM     17  H   UNL     1      51.410   0.892  17.429  0.00  0.00    +0.000 HD
ENDBRANCH  11  13
ENDBRANCH   5   7
BRANCH   1  18
ATOM     18  C   UNL     1      49.474   8.431  13.270  0.00  0.00    +0.000 C 
ATOM     19  C   UNL     1      49.871   9.723  12.578  0.00  0.00    +0.000 C 
ATOM     20  C   UNL     1      50.920   8.698  12.851  0.00  0.00    +0.000 C 
BRANCH  18  21
ATOM     21  N   UNL     1      48.804   7.352  12.554  0.00  0.00    +0.000 N 
ATOM     22  H   UNL     1      49.353   6.625  12.109  0.00  0.00    +0.000 HD
BRANCH  21  26
ATOM     23  C   UNL     1      44.968   5.909  12.811  0.00  0.00    +0.000 A 
ATOM     24  C   UNL     1      46.075   5.181  13.205  0.00  0.00    +0.000 A 
ATOM     25  N   UNL     1      47.337   5.674  13.139  0.00  0.00    +0.000 NA
ATOM     26  C   UNL     1      47.487   6.931  12.658  0.00  0.00    +0.000 A 
ATOM     27  C   UNL     1      46.362   7.656  12.271  0.00  0.00    +0.000 A 
ATOM     28  N   UNL     1      45.085   7.176  12.341  0.00  0.00    +0.000 NA
BRANCH  23  30
ATOM     29  N   UNL     1      42.594   4.862  12.876  0.00  0.00    +0.000 NA
ATOM     30  C   UNL     1      43.656   5.338  12.881  0.00  0.00    +0.000 C 
ENDBRANCH  23  30
ENDBRANCH  21  26
ENDBRANCH  18  21
ENDBRANCH   1  18
TORSDOF 6
ENDMDL
