MODEL 1
REMARK VINA RESULT:    -7.601      0.000      0.000
REMARK INTER + INTRA:         -11.171
REMARK INTER:                  -9.823
REMARK INTRA:                  -1.349
REMARK UNBOUND:                -1.349
REMARK  Name = 
REMARK  6 active torsions:
REMARK  status: ('A' for Active; 'I' for Inactive)
REMARK    1  A    between atoms: C_1  and  N_2
REMARK    2  A    between atoms: N_2  and  C_3
REMARK    3  A    between atoms: C_3  and  C_4
REMARK    4  A    between atoms: C_7  and  C_8
REMARK    5  A    between atoms: C_8  and  C_9
REMARK    6  A    between atoms: C_16  and  C_18
REMARK                            x       y       z     vdW  Elec       q    Type
REMARK                         _______ _______ _______ _____ _____    ______ ____
ROOT
ATOM      1  C   UNL     1      46.237   8.530  12.177  0.00  0.00    +0.000 C 
ATOM      2  N   UNL     1      46.007   7.090  12.094  0.00  0.00    +0.000 N 
ATOM      3  C   UNL     1      44.737   6.681  11.647  0.00  0.00    +0.000 C 
ATOM      4  O   UNL     1      43.863   7.501  11.368  0.00  0.00    +0.000 OA
ENDROOT
BRANCH   3   5
ATOM      5  C   UNL     1      44.433   5.246  11.537  0.00  0.00    +0.000 A 
ATOM      6  C   UNL     1      43.686   4.528  12.457  0.00  0.00    +0.000 A 
ATOM      7  S   UNL     1      43.452   2.893  12.024  0.00  0.00    +0.000 S 
ATOM      8  C   UNL     1      44.193   3.136  10.513  0.00  0.00    +0.000 A 
ATOM      9  N   UNL     1      44.219   2.147   9.583  0.00  0.00    +0.000 NA
ATOM     10  C   UNL     1      44.745   2.498   8.456  0.00  0.00    +0.000 A 
ATOM     11  N   UNL     1      45.284   3.732   8.194  0.00  0.00    +0.000 N 
ATOM     12  C   UNL     1      45.411   4.714   9.155  0.00  0.00    +0.000 A 
ATOM     13  O   UNL     1      46.121   5.696   8.962  0.00  0.00    +0.000 OA
ATOM     14  C   UNL     1      44.713   4.413  10.391  0.00  0.00    +0.000 A 
ATOM     15  H   UNL     1      45.745   3.916   7.316  0.00  0.00    +0.000 HD
ENDBRANCH   3   5
BRANCH   2  16
ATOM     16  C   UNL     1      47.131   6.166  12.295  0.00  0.00    +0.000 C 
BRANCH  16  17
ATOM     17  C   UNL     1      47.451   5.764  13.703  0.00  0.00    +0.000 A 
ATOM     18  C   UNL     1      48.269   6.551  14.506  0.00  0.00    +0.000 A 
ATOM     19  C   UNL     1      48.515   6.161  15.816  0.00  0.00    +0.000 A 
ATOM     20  C   UNL     1      47.908   5.012  16.318  0.00  0.00    +0.000 A 
ATOM     21  N   UNL     1      47.137   4.212  15.541  0.00  0.00    +0.000 NA
ATOM     22  C   UNL     1      46.937   4.595  14.260  0.00  0.00    +0.000 A 
BRANCH  20  23
ATOM     23  C   UNL     1      48.057   4.635  17.775  0.00  0.00    +0.000 C 
BRANCH  23  24
ATOM     24  C   UNL     1      49.128   3.572  18.082  0.00  0.00    +0.000 C 
ATOM     25  C   UNL     1      50.557   4.105  18.055  0.00  0.00    +0.000 C 
ATOM     26  C   UNL     1      51.397   2.875  17.760  0.00  0.00    +0.000 C 
ATOM     27  C   UNL     1      50.485   1.963  16.961  0.00  0.00    +0.000 C 
ATOM     28  N   UNL     1      49.115   2.431  17.153  0.00  0.00    +0.000 NA
ATOM     29  H   UNL     1      48.517   1.685  17.504  0.00  0.00    +0.000 HD
ENDBRANCH  23  24
ENDBRANCH  20  23
ENDBRANCH  16  17
ENDBRANCH   2  16
TORSDOF 5
ENDMDL
MODEL 2
REMARK VINA RESULT:    -7.262      1.474      2.335
REMARK INTER + INTRA:         -10.733
REMARK INTER:                  -9.350
REMARK INTRA:                  -1.383
REMARK UNBOUND:                -1.349
REMARK  Name = 
REMARK  6 active torsions:
REMARK  status: ('A' for Active; 'I' for Inactive)
REMARK    1  A    between atoms: C_1  and  N_2
REMARK    2  A    between atoms: N_2  and  C_3
REMARK    3  A    between atoms: C_3  and  C_4
REMARK    4  A    between atoms: C_7  and  C_8
REMARK    5  A    between atoms: C_8  and  C_9
REMARK    6  A    between atoms: C_16  and  C_18
REMARK                            x       y       z     vdW  Elec       q    Type
REMARK                         _______ _______ _______ _____ _____    ______ ____
ROOT
ATOM      1  C   UNL     1      46.016   8.550  12.169  0.00  0.00    +0.000 C 
ATOM      2  N   UNL     1      45.865   7.101  12.053  0.00  0.00    +0.000 N 
ATOM      3  C   UNL     1      44.615   6.634  11.606  0.00  0.00    +0.000 C 
ATOM      4  O   UNL     1      43.695   7.412  11.353  0.00  0.00    +0.000 OA
ENDROOT
BRANCH   3   5
ATOM      5  C   UNL     1      44.388   5.188  11.464  0.00  0.00    +0.000 A 
ATOM      6  C   UNL     1      43.641   4.419  12.342  0.00  0.00    +0.000 A 
ATOM      7  S   UNL     1      43.508   2.782  11.878  0.00  0.00    +0.000 S 
ATOM      8  C   UNL     1      44.298   3.085  10.403  0.00  0.00    +0.000 A 
ATOM      9  N   UNL     1      44.412   2.113   9.461  0.00  0.00    +0.000 NA
ATOM     10  C   UNL     1      44.966   2.507   8.362  0.00  0.00    +0.000 A 
ATOM     11  N   UNL     1      45.452   3.769   8.140  0.00  0.00    +0.000 N 
ATOM     12  C   UNL     1      45.490   4.742   9.119  0.00  0.00    +0.000 A 
ATOM     13  O   UNL     1      46.157   5.761   8.969  0.00  0.00    +0.000 OA
ATOM     14  C   UNL     1      44.757   4.387  10.320  0.00  0.00    +0.000 A 
ATOM     15  H   UNL     1      45.940   3.990   7.285  0.00  0.00    +0.000 HD
ENDBRANCH   3   5
BRANCH   2  16
ATOM     16  C   UNL     1      47.038   6.236  12.224  0.00  0.00    +0.000 C 
BRANCH  16  17
ATOM     17  C   UNL     1      47.382   5.806  13.618  0.00  0.00    +0.000 A 
ATOM     18  C   UNL     1      46.763   4.708  14.204  0.00  0.00    +0.000 A 
ATOM     19  C   UNL     1      47.132   4.321  15.486  0.00  0.00    +0.000 A 
ATOM     20  C   UNL     1      48.145   5.012  16.148  0.00  0.00    +0.000 A 
ATOM     21  N   UNL     1      48.736   6.106  15.609  0.00  0.00    +0.000 NA
ATOM     22  C   UNL     1      48.337   6.483  14.374  0.00  0.00    +0.000 A 
BRANCH  20  23
ATOM     23  C   UNL     1      48.654   4.534  17.490  0.00  0.00    +0.000 C 
BRANCH  23  24
ATOM     24  C   UNL     1      48.611   5.572  18.627  0.00  0.00    +0.000 C 
ATOM     25  C   UNL     1      47.207   6.062  18.967  0.00  0.00    +0.000 C 
ATOM     26  C   UNL     1      47.442   7.425  19.593  0.00  0.00    +0.000 C 
ATOM     27  C   UNL     1      48.724   7.931  18.958  0.00  0.00    +0.000 C 
ATOM     28  N   UNL     1      49.398   6.785  18.352  0.00  0.00    +0.000 NA
ATOM     29  H   UNL     1      50.347   6.688  18.705  0.00  0.00    +0.000 HD
ENDBRANCH  23  24
ENDBRANCH  20  23
ENDBRANCH  16  17
ENDBRANCH   2  16
TORSDOF 5
ENDMDL
MODEL 3
REMARK VINA RESULT:    -7.003      1.601      2.430
REMARK INTER + INTRA:         -10.399
REMARK INTER:                  -9.091
REMARK INTRA:                  -1.308
REMARK UNBOUND:                -1.349
REMARK  Name = 
REMARK  6 active torsions:
REMARK  status: ('A' for Active; 'I' for Inactive)
REMARK    1  A    between atoms: C_1  and  N_2
REMARK    2  A    between atoms: N_2  and  C_3
REMARK    3  A    between atoms: C_3  and  C_4
REMARK    4  A    between atoms: C_7  and  C_8
REMARK    5  A    between atoms: C_8  and  C_9
REMARK    6  A    between atoms: C_16  and  C_18
REMARK                            x       y       z     vdW  Elec       q    Type
REMARK                         _______ _______ _______ _____ _____    ______ ____
ROOT
ATOM      1  C   UNL     1      46.554   8.634  13.153  0.00  0.00    +0.000 C 
ATOM      2  N   UNL     1      46.383   7.361  12.458  0.00  0.00    +0.000 N 
ATOM      3  C   UNL     1      45.306   7.277  11.556  0.00  0.00    +0.000 C 
ATOM      4  O   UNL     1      44.537   8.223  11.389  0.00  0.00    +0.000 OA
ENDROOT
BRANCH   3   5
ATOM      5  C   UNL     1      45.071   6.026  10.819  0.00  0.00    +0.000 A 
ATOM      6  C   UNL     1      45.634   5.720   9.590  0.00  0.00    +0.000 A 
ATOM      7  S   UNL     1      45.221   4.167   9.014  0.00  0.00    +0.000 S 
ATOM      8  C   UNL     1      44.416   3.790  10.464  0.00  0.00    +0.000 A 
ATOM      9  N   UNL     1      43.920   2.544  10.682  0.00  0.00    +0.000 NA
ATOM     10  C   UNL     1      43.405   2.380  11.856  0.00  0.00    +0.000 A 
ATOM     11  N   UNL     1      43.303   3.360  12.809  0.00  0.00    +0.000 N 
ATOM     12  C   UNL     1      43.658   4.673  12.576  0.00  0.00    +0.000 A 
ATOM     13  O   UNL     1      43.318   5.564  13.348  0.00  0.00    +0.000 OA
ATOM     14  C   UNL     1      44.365   4.872  11.325  0.00  0.00    +0.000 A 
ATOM     15  H   UNL     1      42.822   3.185  13.678  0.00  0.00    +0.000 HD
ENDBRANCH   3   5
BRANCH   2  16
ATOM     16  C   UNL     1      47.415   6.323  12.585  0.00  0.00    +0.000 C 
BRANCH  16  17
ATOM     17  C   UNL     1      47.474   5.562  13.875  0.00  0.00    +0.000 A 
ATOM     18  C   UNL     1      46.853   4.326  14.007  0.00  0.00    +0.000 A 
ATOM     19  C   UNL     1      46.958   3.636  15.208  0.00  0.00    +0.000 A 
ATOM     20  C   UNL     1      47.717   4.173  16.246  0.00  0.00    +0.000 A 
ATOM     21  N   UNL     1      48.299   5.394  16.149  0.00  0.00    +0.000 NA
ATOM     22  C   UNL     1      48.156   6.060  14.982  0.00  0.00    +0.000 A 
BRANCH  20  23
ATOM     23  C   UNL     1      47.952   3.386  17.516  0.00  0.00    +0.000 C 
BRANCH  23  24
ATOM     24  C   UNL     1      49.396   3.403  18.053  0.00  0.00    +0.000 C 
ATOM     25  C   UNL     1      49.658   4.486  19.094  0.00  0.00    +0.000 C 
ATOM     26  C   UNL     1      51.156   4.721  19.003  0.00  0.00    +0.000 C 
ATOM     27  C   UNL     1      51.517   4.380  17.570  0.00  0.00    +0.000 C 
ATOM     28  N   UNL     1      50.414   3.604  17.009  0.00  0.00    +0.000 NA
ATOM     29  H   UNL     1      50.740   2.711  16.645  0.00  0.00    +0.000 HD
ENDBRANCH  23  24
ENDBRANCH  20  23
ENDBRANCH  16  17
ENDBRANCH   2  16
TORSDOF 5
ENDMDL
MODEL 4
REMARK VINA RESULT:    -6.701      3.487      7.971
REMARK INTER + INTRA:         -10.008
REMARK INTER:                  -8.751
REMARK INTRA:                  -1.257
REMARK UNBOUND:                -1.349
REMARK  Name = 
REMARK  6 active torsions:
REMARK  status: ('A' for Active; 'I' for Inactive)
REMARK    1  A    between atoms: C_1  and  N_2
REMARK    2  A    between atoms: N_2  and  C_3
REMARK    3  A    between atoms: C_3  and  C_4
REMARK    4  A    between atoms: C_7  and  C_8
REMARK    5  A    between atoms: C_8  and  C_9
REMARK    6  A    between atoms: C_16  and  C_18
REMARK                            x       y       z     vdW  Elec       q    Type
REMARK                         _______ _______ _______ _____ _____    ______ ____
ROOT
ATOM      1  C   UNL     1      49.501   7.342  12.379  0.00  0.00    +0.000 C 
ATOM      2  N   UNL     1      48.869   7.653  13.659  0.00  0.00    +0.000 N 
ATOM      3  C   UNL     1      49.732   7.916  14.738  0.00  0.00    +0.000 C 
ATOM      4  O   UNL     1      50.955   7.860  14.608  0.00  0.00    +0.000 OA
ENDROOT
BRANCH   3   5
ATOM      5  C   UNL     1      49.168   8.238  16.058  0.00  0.00    +0.000 A 
ATOM      6  C   UNL     1      48.882   9.519  16.501  0.00  0.00    +0.000 A 
ATOM      7  S   UNL     1      48.178   9.567  18.055  0.00  0.00    +0.000 S 
ATOM      8  C   UNL     1      48.076   7.870  18.115  0.00  0.00    +0.000 A 
ATOM      9  N   UNL     1      47.451   7.246  19.146  0.00  0.00    +0.000 NA
ATOM     10  C   UNL     1      47.382   5.961  19.020  0.00  0.00    +0.000 A 
ATOM     11  N   UNL     1      47.918   5.248  17.980  0.00  0.00    +0.000 N 
ATOM     12  C   UNL     1      48.687   5.826  16.990  0.00  0.00    +0.000 A 
ATOM     13  O   UNL     1      49.359   5.136  16.230  0.00  0.00    +0.000 OA
ATOM     14  C   UNL     1      48.675   7.277  17.018  0.00  0.00    +0.000 A 
ATOM     15  H   UNL     1      47.892   4.239  17.980  0.00  0.00    +0.000 HD
ENDBRANCH   3   5
BRANCH   2  16
ATOM     16  C   UNL     1      47.415   7.852  13.717  0.00  0.00    +0.000 C 
BRANCH  16  17
ATOM     17  C   UNL     1      46.557   6.910  12.929  0.00  0.00    +0.000 A 
ATOM     18  C   UNL     1      46.511   5.555  13.234  0.00  0.00    +0.000 A 
ATOM     19  C   UNL     1      45.678   4.719  12.501  0.00  0.00    +0.000 A 
ATOM     20  C   UNL     1      44.872   5.258  11.500  0.00  0.00    +0.000 A 
ATOM     21  N   UNL     1      44.929   6.569  11.163  0.00  0.00    +0.000 NA
ATOM     22  C   UNL     1      45.771   7.356  11.869  0.00  0.00    +0.000 A 
BRANCH  20  23
ATOM     23  C   UNL     1      43.864   4.394  10.774  0.00  0.00    +0.000 C 
BRANCH  23  24
ATOM     24  C   UNL     1      44.290   3.902   9.378  0.00  0.00    +0.000 C 
ATOM     25  C   UNL     1      45.014   2.560   9.388  0.00  0.00    +0.000 C 
ATOM     26  C   UNL     1      45.842   2.586   8.115  0.00  0.00    +0.000 C 
ATOM     27  C   UNL     1      46.128   4.055   7.866  0.00  0.00    +0.000 C 
ATOM     28  N   UNL     1      45.188   4.830   8.672  0.00  0.00    +0.000 NA
ATOM     29  H   UNL     1      44.656   5.478   8.094  0.00  0.00    +0.000 HD
ENDBRANCH  23  24
ENDBRANCH  20  23
ENDBRANCH  16  17
ENDBRANCH   2  16
TORSDOF 5
ENDMDL
MODEL 5
REMARK VINA RESULT:    -6.448      3.195      7.936
REMARK INTER + INTRA:          -9.681
REMARK INTER:                  -8.487
REMARK INTRA:                  -1.194
REMARK UNBOUND:                -1.349
REMARK  Name = 
REMARK  6 active torsions:
REMARK  status: ('A' for Active; 'I' for Inactive)
REMARK    1  A    between atoms: C_1  and  N_2
REMARK    2  A    between atoms: N_2  and  C_3
REMARK    3  A    between atoms: C_3  and  C_4
REMARK    4  A    between atoms: C_7  and  C_8
REMARK    5  A    between atoms: C_8  and  C_9
REMARK    6  A    between atoms: C_16  and  C_18
REMARK                            x       y       z     vdW  Elec       q    Type
REMARK                         _______ _______ _______ _____ _____    ______ ____
ROOT
ATOM      1  C   UNL     1      48.320   8.858  14.721  0.00  0.00    +0.000 C 
ATOM      2  N   UNL     1      48.622   7.481  15.103  0.00  0.00    +0.000 N 
ATOM      3  C   UNL     1      48.570   7.184  16.477  0.00  0.00    +0.000 C 
ATOM      4  O   UNL     1      48.310   8.053  17.310  0.00  0.00    +0.000 OA
ENDROOT
BRANCH   3   5
ATOM      5  C   UNL     1      48.861   5.818  16.938  0.00  0.00    +0.000 A 
ATOM      6  C   UNL     1      47.933   4.791  16.988  0.00  0.00    +0.000 A 
ATOM      7  S   UNL     1      48.586   3.302  17.510  0.00  0.00    +0.000 S 
ATOM      8  C   UNL     1      50.162   3.941  17.521  0.00  0.00    +0.000 A 
ATOM      9  N   UNL     1      51.235   3.145  17.769  0.00  0.00    +0.000 NA
ATOM     10  C   UNL     1      52.373   3.749  17.668  0.00  0.00    +0.000 A 
ATOM     11  N   UNL     1      52.529   5.081  17.386  0.00  0.00    +0.000 N 
ATOM     12  C   UNL     1      51.466   5.954  17.274  0.00  0.00    +0.000 A 
ATOM     13  O   UNL     1      51.644   7.168  17.280  0.00  0.00    +0.000 OA
ATOM     14  C   UNL     1      50.173   5.296  17.244  0.00  0.00    +0.000 A 
ATOM     15  H   UNL     1      53.444   5.505  17.395  0.00  0.00    +0.000 HD
ENDBRANCH   3   5
BRANCH   2  16
ATOM     16  C   UNL     1      48.777   6.459  14.060  0.00  0.00    +0.000 C 
BRANCH  16  17
ATOM     17  C   UNL     1      47.557   6.082  13.275  0.00  0.00    +0.000 A 
ATOM     18  C   UNL     1      46.660   5.136  13.755  0.00  0.00    +0.000 A 
ATOM     19  C   UNL     1      45.524   4.837  13.014  0.00  0.00    +0.000 A 
ATOM     20  C   UNL     1      45.280   5.518  11.823  0.00  0.00    +0.000 A 
ATOM     21  N   UNL     1      46.161   6.417  11.320  0.00  0.00    +0.000 NA
ATOM     22  C   UNL     1      47.275   6.668  12.043  0.00  0.00    +0.000 A 
BRANCH  20  23
ATOM     23  C   UNL     1      43.990   5.304  11.062  0.00  0.00    +0.000 C 
BRANCH  23  24
ATOM     24  C   UNL     1      44.105   4.458   9.780  0.00  0.00    +0.000 C 
ATOM     25  C   UNL     1      44.422   2.988  10.034  0.00  0.00    +0.000 C 
ATOM     26  C   UNL     1      45.077   2.532   8.742  0.00  0.00    +0.000 C 
ATOM     27  C   UNL     1      45.732   3.777   8.176  0.00  0.00    +0.000 C 
ATOM     28  N   UNL     1      45.141   4.932   8.849  0.00  0.00    +0.000 NA
ATOM     29  H   UNL     1      44.751   5.589   8.177  0.00  0.00    +0.000 HD
ENDBRANCH  23  24
ENDBRANCH  20  23
ENDBRANCH  16  17
ENDBRANCH   2  16
TORSDOF 5
ENDMDL
MODEL 6
REMARK VINA RESULT:    -6.259      3.508      8.100
REMARK INTER + INTRA:          -9.437
REMARK INTER:                  -8.001
REMARK INTRA:                  -1.436
REMARK UNBOUND:                -1.349
REMARK  Name = 
REMARK  6 active torsions:
REMARK  status: ('A' for Active; 'I' for Inactive)
REMARK    1  A    between atoms: C_1  and  N_2
REMARK    2  A    between atoms: N_2  and  C_3
REMARK    3  A    between atoms: C_3  and  C_4
REMARK    4  A    between atoms: C_7  and  C_8
REMARK    5  A    between atoms: C_8  and  C_9
REMARK    6  A    between atoms: C_16  and  C_18
REMARK                            x       y       z     vdW  Elec       q    Type
REMARK                         _______ _______ _______ _____ _____    ______ ____
ROOT
ATOM      1  C   UNL     1      49.138   8.651  12.079  0.00  0.00    +0.000 C 
ATOM      2  N   UNL     1      48.589   8.159  13.340  0.00  0.00    +0.000 N 
ATOM      3  C   UNL     1      49.517   7.858  14.354  0.00  0.00    +0.000 C 
ATOM      4  O   UNL     1      50.728   7.980  14.170  0.00  0.00    +0.000 OA
ENDROOT
BRANCH   3   5
ATOM      5  C   UNL     1      49.039   7.358  15.651  0.00  0.00    +0.000 A 
ATOM      6  C   UNL     1      48.979   6.020  16.006  0.00  0.00    +0.000 A 
ATOM      7  S   UNL     1      48.437   5.756  17.603  0.00  0.00    +0.000 S 
ATOM      8  C   UNL     1      48.428   7.426  17.927  0.00  0.00    +0.000 A 
ATOM      9  N   UNL     1      48.167   7.891  19.176  0.00  0.00    +0.000 NA
ATOM     10  C   UNL     1      48.271   9.174  19.293  0.00  0.00    +0.000 A 
ATOM     11  N   UNL     1      48.569  10.031  18.265  0.00  0.00    +0.000 N 
ATOM     12  C   UNL     1      48.695   9.616  16.955  0.00  0.00    +0.000 A 
ATOM     13  O   UNL     1      48.704  10.428  16.035  0.00  0.00    +0.000 OA
ATOM     14  C   UNL     1      48.722   8.173  16.801  0.00  0.00    +0.000 A 
ATOM     15  H   UNL     1      48.562  11.029  18.409  0.00  0.00    +0.000 HD
ENDBRANCH   3   5
BRANCH   2  16
ATOM     16  C   UNL     1      47.136   8.176  13.551  0.00  0.00    +0.000 C 
BRANCH  16  17
ATOM     17  C   UNL     1      46.319   7.159  12.815  0.00  0.00    +0.000 A 
ATOM     18  C   UNL     1      46.554   5.798  12.974  0.00  0.00    +0.000 A 
ATOM     19  C   UNL     1      45.753   4.885  12.299  0.00  0.00    +0.000 A 
ATOM     20  C   UNL     1      44.703   5.345  11.508  0.00  0.00    +0.000 A 
ATOM     21  N   UNL     1      44.480   6.668  11.311  0.00  0.00    +0.000 NA
ATOM     22  C   UNL     1      45.292   7.537  11.952  0.00  0.00    +0.000 A 
BRANCH  20  23
ATOM     23  C   UNL     1      43.739   4.372  10.865  0.00  0.00    +0.000 C 
BRANCH  23  24
ATOM     24  C   UNL     1      44.152   3.841   9.480  0.00  0.00    +0.000 C 
ATOM     25  C   UNL     1      44.881   2.502   9.521  0.00  0.00    +0.000 C 
ATOM     26  C   UNL     1      45.695   2.494   8.239  0.00  0.00    +0.000 C 
ATOM     27  C   UNL     1      45.972   3.956   7.943  0.00  0.00    +0.000 C 
ATOM     28  N   UNL     1      45.038   4.752   8.737  0.00  0.00    +0.000 NA
ATOM     29  H   UNL     1      44.497   5.380   8.147  0.00  0.00    +0.000 HD
ENDBRANCH  23  24
ENDBRANCH  20  23
ENDBRANCH  16  17
ENDBRANCH   2  16
TORSDOF 5
ENDMDL
MODEL 7
REMARK VINA RESULT:    -6.120      4.167      7.897
REMARK INTER + INTRA:          -9.258
REMARK INTER:                  -8.315
REMARK INTRA:                  -0.943
REMARK UNBOUND:                -1.349
REMARK  Name = 
REMARK  6 active torsions:
REMARK  status: ('A' for Active; 'I' for Inactive)
REMARK    1  A    between atoms: C_1  and  N_2
REMARK    2  A    between atoms: N_2  and  C_3
REMARK    3  A    between atoms: C_3  and  C_4
REMARK    4  A    between atoms: C_7  and  C_8
REMARK    5  A    between atoms: C_8  and  C_9
REMARK    6  A    between atoms: C_16  and  C_18
REMARK                            x       y       z     vdW  Elec       q    Type
REMARK                         _______ _______ _______ _____ _____    ______ ____
ROOT
ATOM      1  C   UNL     1      45.262   8.906  12.876  0.00  0.00    +0.000 C 
ATOM      2  N   UNL     1      46.628   8.394  12.821  0.00  0.00    +0.000 N 
ATOM      3  C   UNL     1      47.648   9.342  12.617  0.00  0.00    +0.000 C 
ATOM      4  O   UNL     1      47.390  10.536  12.468  0.00  0.00    +0.000 OA
ENDROOT
BRANCH   3   5
ATOM      5  C   UNL     1      49.049   8.900  12.551  0.00  0.00    +0.000 A 
ATOM      6  C   UNL     1      49.748   8.674  11.377  0.00  0.00    +0.000 A 
ATOM      7  S   UNL     1      51.377   8.227  11.623  0.00  0.00    +0.000 S 
ATOM      8  C   UNL     1      51.246   8.488  13.298  0.00  0.00    +0.000 A 
ATOM      9  N   UNL     1      52.336   8.397  14.105  0.00  0.00    +0.000 NA
ATOM     10  C   UNL     1      52.103   8.696  15.340  0.00  0.00    +0.000 A 
ATOM     11  N   UNL     1      50.874   9.034  15.845  0.00  0.00    +0.000 N 
ATOM     12  C   UNL     1      49.717   8.994  15.093  0.00  0.00    +0.000 A 
ATOM     13  O   UNL     1      48.615   9.048  15.629  0.00  0.00    +0.000 OA
ATOM     14  C   UNL     1      49.952   8.797  13.675  0.00  0.00    +0.000 A 
ATOM     15  H   UNL     1      50.748   9.184  16.834  0.00  0.00    +0.000 HD
ENDBRANCH   3   5
BRANCH   2  16
ATOM     16  C   UNL     1      46.886   6.987  13.154  0.00  0.00    +0.000 C 
BRANCH  16  17
ATOM     17  C   UNL     1      46.240   5.944  12.294  0.00  0.00    +0.000 A 
ATOM     18  C   UNL     1      45.836   4.725  12.825  0.00  0.00    +0.000 A 
ATOM     19  C   UNL     1      45.211   3.796  12.003  0.00  0.00    +0.000 A 
ATOM     20  C   UNL     1      44.961   4.117  10.670  0.00  0.00    +0.000 A 
ATOM     21  N   UNL     1      45.379   5.284  10.124  0.00  0.00    +0.000 NA
ATOM     22  C   UNL     1      46.014   6.158  10.936  0.00  0.00    +0.000 A 
BRANCH  20  23
ATOM     23  C   UNL     1      44.169   3.177   9.787  0.00  0.00    +0.000 C 
BRANCH  23  24
ATOM     24  C   UNL     1      44.831   2.807   8.446  0.00  0.00    +0.000 C 
ATOM     25  C   UNL     1      45.930   1.757   8.566  0.00  0.00    +0.000 C 
ATOM     26  C   UNL     1      46.803   2.007   7.349  0.00  0.00    +0.000 C 
ATOM     27  C   UNL     1      46.640   3.485   7.049  0.00  0.00    +0.000 C 
ATOM     28  N   UNL     1      45.449   3.950   7.755  0.00  0.00    +0.000 NA
ATOM     29  H   UNL     1      44.788   4.386   7.115  0.00  0.00    +0.000 HD
ENDBRANCH  23  24
ENDBRANCH  20  23
ENDBRANCH  16  17
ENDBRANCH   2  16
TORSDOF 5
ENDMDL
MODEL 8
REMARK VINA RESULT:    -5.937      3.564      7.755
REMARK INTER + INTRA:          -9.021
REMARK INTER:                  -7.730
REMARK INTRA:                  -1.291
REMARK UNBOUND:                -1.349
REMARK  Name = 
REMARK  6 active torsions:
REMARK  status: ('A' for Active; 'I' for Inactive)
REMARK    1  A    between atoms: C_1  and  N_2
REMARK    2  A    between atoms: N_2  and  C_3
REMARK    3  A    between atoms: C_3  and  C_4
REMARK    4  A    between atoms: C_7  and  C_8
REMARK    5  A    between atoms: C_8  and  C_9
REMARK    6  A    between atoms: C_16  and  C_18
REMARK                            x       y       z     vdW  Elec       q    Type
REMARK                         _______ _______ _______ _____ _____    ______ ____
ROOT
ATOM      1  C   UNL     1      47.869   9.337  17.790  0.00  0.00    +0.000 C 
ATOM      2  N   UNL     1      48.826   8.305  17.396  0.00  0.00    +0.000 N 
ATOM      3  C   UNL     1      48.968   7.214  18.272  0.00  0.00    +0.000 C 
ATOM      4  O   UNL     1      48.336   7.152  19.326  0.00  0.00    +0.000 OA
ENDROOT
BRANCH   3   5
ATOM      5  C   UNL     1      49.913   6.136  17.943  0.00  0.00    +0.000 A 
ATOM      6  C   UNL     1      51.282   6.200  18.145  0.00  0.00    +0.000 A 
ATOM      7  S   UNL     1      52.107   4.767  17.720  0.00  0.00    +0.000 S 
ATOM      8  C   UNL     1      50.643   3.958  17.413  0.00  0.00    +0.000 A 
ATOM      9  N   UNL     1      50.629   2.632  17.115  0.00  0.00    +0.000 NA
ATOM     10  C   UNL     1      49.443   2.135  16.983  0.00  0.00    +0.000 A 
ATOM     11  N   UNL     1      48.279   2.852  17.079  0.00  0.00    +0.000 N 
ATOM     12  C   UNL     1      48.253   4.224  17.233  0.00  0.00    +0.000 A 
ATOM     13  O   UNL     1      47.217   4.858  17.057  0.00  0.00    +0.000 OA
ATOM     14  C   UNL     1      49.552   4.802  17.521  0.00  0.00    +0.000 A 
ATOM     15  H   UNL     1      47.389   2.416  16.892  0.00  0.00    +0.000 HD
ENDBRANCH   3   5
BRANCH   2  16
ATOM     16  C   UNL     1      49.437   8.358  16.063  0.00  0.00    +0.000 C 
BRANCH  16  17
ATOM     17  C   UNL     1      48.589   7.951  14.896  0.00  0.00    +0.000 A 
ATOM     18  C   UNL     1      48.616   6.650  14.408  0.00  0.00    +0.000 A 
ATOM     19  C   UNL     1      47.791   6.304  13.346  0.00  0.00    +0.000 A 
ATOM     20  C   UNL     1      46.919   7.251  12.815  0.00  0.00    +0.000 A 
ATOM     21  N   UNL     1      46.903   8.534  13.252  0.00  0.00    +0.000 NA
ATOM     22  C   UNL     1      47.738   8.856  14.265  0.00  0.00    +0.000 A 
BRANCH  20  23
ATOM     23  C   UNL     1      45.920   6.866  11.745  0.00  0.00    +0.000 C 
BRANCH  23  24
ATOM     24  C   UNL     1      45.039   5.644  12.065  0.00  0.00    +0.000 C 
ATOM     25  C   UNL     1      44.161   5.192  10.902  0.00  0.00    +0.000 C 
ATOM     26  C   UNL     1      43.012   4.465  11.578  0.00  0.00    +0.000 C 
ATOM     27  C   UNL     1      42.883   5.121  12.941  0.00  0.00    +0.000 C 
ATOM     28  N   UNL     1      44.120   5.856  13.195  0.00  0.00    +0.000 NA
ATOM     29  H   UNL     1      44.549   5.562  14.069  0.00  0.00    +0.000 HD
ENDBRANCH  23  24
ENDBRANCH  20  23
ENDBRANCH  16  17
ENDBRANCH   2  16
TORSDOF 5
ENDMDL
MODEL 9
REMARK VINA RESULT:    -5.839      3.160      4.435
REMARK INTER + INTRA:          -8.894
REMARK INTER:                  -7.378
REMARK INTRA:                  -1.516
REMARK UNBOUND:                -1.349
REMARK  Name = 
REMARK  6 active torsions:
REMARK  status: ('A' for Active; 'I' for Inactive)
REMARK    1  A    between atoms: C_1  and  N_2
REMARK    2  A    between atoms: N_2  and  C_3
REMARK    3  A    between atoms: C_3  and  C_4
REMARK    4  A    between atoms: C_7  and  C_8
REMARK    5  A    between atoms: C_8  and  C_9
REMARK    6  A    between atoms: C_16  and  C_18
REMARK                            x       y       z     vdW  Elec       q    Type
REMARK                         _______ _______ _______ _____ _____    ______ ____
ROOT
ATOM      1  C   UNL     1      51.390   9.048  13.048  0.00  0.00    +0.000 C 
ATOM      2  N   UNL     1      49.939   9.114  13.202  0.00  0.00    +0.000 N 
ATOM      3  C   UNL     1      49.176   8.359  12.293  0.00  0.00    +0.000 C 
ATOM      4  O   UNL     1      49.710   7.700  11.401  0.00  0.00    +0.000 OA
ENDROOT
BRANCH   3   5
ATOM      5  C   UNL     1      47.708   8.376  12.386  0.00  0.00    +0.000 A 
ATOM      6  C   UNL     1      46.908   9.442  12.008  0.00  0.00    +0.000 A 
ATOM      7  S   UNL     1      45.236   9.139  12.177  0.00  0.00    +0.000 S 
ATOM      8  C   UNL     1      45.523   7.517  12.598  0.00  0.00    +0.000 A 
ATOM      9  N   UNL     1      44.492   6.648  12.764  0.00  0.00    +0.000 NA
ATOM     10  C   UNL     1      44.862   5.433  13.005  0.00  0.00    +0.000 A 
ATOM     11  N   UNL     1      46.163   5.022  13.136  0.00  0.00    +0.000 N 
ATOM     12  C   UNL     1      47.230   5.897  13.122  0.00  0.00    +0.000 A 
ATOM     13  O   UNL     1      48.343   5.539  13.496  0.00  0.00    +0.000 OA
ATOM     14  C   UNL     1      46.874   7.245  12.719  0.00  0.00    +0.000 A 
ATOM     15  H   UNL     1      46.379   4.072  13.398  0.00  0.00    +0.000 HD
ENDBRANCH   3   5
BRANCH   2  16
ATOM     16  C   UNL     1      49.366   9.794  14.371  0.00  0.00    +0.000 C 
BRANCH  16  17
ATOM     17  C   UNL     1      49.122   8.969  15.598  0.00  0.00    +0.000 A 
ATOM     18  C   UNL     1      48.316   9.438  16.629  0.00  0.00    +0.000 A 
ATOM     19  C   UNL     1      48.088   8.630  17.736  0.00  0.00    +0.000 A 
ATOM     20  C   UNL     1      48.635   7.350  17.778  0.00  0.00    +0.000 A 
ATOM     21  N   UNL     1      49.453   6.888  16.800  0.00  0.00    +0.000 NA
ATOM     22  C   UNL     1      49.686   7.705  15.749  0.00  0.00    +0.000 A 
BRANCH  20  23
ATOM     23  C   UNL     1      48.298   6.404  18.910  0.00  0.00    +0.000 C 
BRANCH  23  24
ATOM     24  C   UNL     1      47.691   5.052  18.491  0.00  0.00    +0.000 C 
ATOM     25  C   UNL     1      48.682   3.893  18.518  0.00  0.00    +0.000 C 
ATOM     26  C   UNL     1      48.097   2.894  17.535  0.00  0.00    +0.000 C 
ATOM     27  C   UNL     1      47.326   3.736  16.536  0.00  0.00    +0.000 C 
ATOM     28  N   UNL     1      47.121   5.053  17.134  0.00  0.00    +0.000 NA
ATOM     29  H   UNL     1      46.133   5.297  17.158  0.00  0.00    +0.000 HD
ENDBRANCH  23  24
ENDBRANCH  20  23
ENDBRANCH  16  17
ENDBRANCH   2  16
TORSDOF 5
ENDMDL
