MODEL 1
REMARK VINA RESULT:    -7.452      0.000      0.000
REMARK INTER + INTRA:          -9.945
REMARK INTER:                  -9.412
REMARK INTRA:                  -0.532
REMARK UNBOUND:                -0.532
REMARK  Name = 
REMARK  5 active torsions:
REMARK  status: ('A' for Active; 'I' for Inactive)
REMARK    1  A    between atoms: N_1  and  C_2
REMARK    2  A    between atoms: C_2  and  C_3
REMARK    3  A    between atoms: C_6  and  O_7
REMARK    4  A    between atoms: O_7  and  C_8
REMARK    5  A    between atoms: C_8  and  C_9
REMARK                            x       y       z     vdW  Elec       q    Type
REMARK                         _______ _______ _______ _____ _____    ______ ____
ROOT
ATOM      1  C   UNL     1      47.035   2.385   7.273  0.00  0.00    +0.000 A 
ATOM      2  C   UNL     1      46.393   1.414   8.054  0.00  0.00    +0.000 A 
ATOM      3  C   UNL     1      45.298   1.755   8.852  0.00  0.00    +0.000 A 
ATOM      4  C   UNL     1      44.836   3.070   8.887  0.00  0.00    +0.000 A 
ATOM      5  C   UNL     1      45.440   4.031   8.076  0.00  0.00    +0.000 A 
ATOM      6  C   UNL     1      46.540   3.693   7.282  0.00  0.00    +0.000 A 
ENDROOT
BRANCH   1   7
ATOM      7  C   UNL     1      48.246   2.037   6.447  0.00  0.00    +0.000 C 
BRANCH   7   8
ATOM      8  N   UNL     1      48.167   2.603   5.109  0.00  0.00    +0.000 NA
ATOM      9  H   UNL     1      47.355   3.214   5.055  0.00  0.00    +0.000 HD
ATOM     10  H   UNL     1      48.007   1.849   4.443  0.00  0.00    +0.000 HD
ENDBRANCH   7   8
ENDBRANCH   1   7
BRANCH   4  11
ATOM     11  O   UNL     1      43.797   3.312   9.747  0.00  0.00    +0.000 OA
BRANCH  11  12
ATOM     12  C   UNL     1      43.747   4.638  10.279  0.00  0.00    +0.000 C 
BRANCH  12  13
ATOM     13  C   UNL     1      44.690   4.777  11.443  0.00  0.00    +0.000 A 
ATOM     14  C   UNL     1      45.686   5.755  11.498  0.00  0.00    +0.000 A 
ATOM     15  C   UNL     1      46.531   5.815  12.603  0.00  0.00    +0.000 A 
ATOM     16  C   UNL     1      46.353   4.879  13.607  0.00  0.00    +0.000 A 
ATOM     17 CL   UNL     1      47.339   4.895  15.009  0.00  0.00    +0.000 Cl
ATOM     18  N   UNL     1      45.426   3.901  13.583  0.00  0.00    +0.000 NA
ATOM     19  C   UNL     1      44.621   3.873  12.502  0.00  0.00    +0.000 A 
ENDBRANCH  12  13
ENDBRANCH  11  12
ENDBRANCH   4  11
TORSDOF 5
ENDMDL
MODEL 2
REMARK VINA RESULT:    -7.282      1.082      1.773
REMARK INTER + INTRA:          -9.730
REMARK INTER:                  -9.135
REMARK INTRA:                  -0.595
REMARK UNBOUND:                -0.532
REMARK  Name = 
REMARK  5 active torsions:
REMARK  status: ('A' for Active; 'I' for Inactive)
REMARK    1  A    between atoms: N_1  and  C_2
REMARK    2  A    between atoms: C_2  and  C_3
REMARK    3  A    between atoms: C_6  and  O_7
REMARK    4  A    between atoms: O_7  and  C_8
REMARK    5  A    between atoms: C_8  and  C_9
REMARK                            x       y       z     vdW  Elec       q    Type
REMARK                         _______ _______ _______ _____ _____    ______ ____
ROOT
ATOM      1  C   UNL     1      46.532   2.312   7.608  0.00  0.00    +0.000 A 
ATOM      2  C   UNL     1      46.397   3.707   7.599  0.00  0.00    +0.000 A 
ATOM      3  C   UNL     1      45.428   4.333   8.389  0.00  0.00    +0.000 A 
ATOM      4  C   UNL     1      44.577   3.572   9.190  0.00  0.00    +0.000 A 
ATOM      5  C   UNL     1      44.738   2.187   9.241  0.00  0.00    +0.000 A 
ATOM      6  C   UNL     1      45.702   1.560   8.446  0.00  0.00    +0.000 A 
ENDROOT
BRANCH   1   7
ATOM      7  C   UNL     1      47.542   1.627   6.724  0.00  0.00    +0.000 C 
BRANCH   7   8
ATOM      8  N   UNL     1      48.617   2.527   6.337  0.00  0.00    +0.000 NA
ATOM      9  H   UNL     1      48.638   2.602   5.322  0.00  0.00    +0.000 HD
ATOM     10  H   UNL     1      49.506   2.114   6.615  0.00  0.00    +0.000 HD
ENDBRANCH   7   8
ENDBRANCH   1   7
BRANCH   4  11
ATOM     11  O   UNL     1      43.623   4.276   9.877  0.00  0.00    +0.000 OA
BRANCH  11  12
ATOM     12  C   UNL     1      43.475   3.910  11.252  0.00  0.00    +0.000 C 
BRANCH  12  13
ATOM     13  C   UNL     1      44.644   4.405  12.059  0.00  0.00    +0.000 A 
ATOM     14  C   UNL     1      45.556   3.544  12.676  0.00  0.00    +0.000 A 
ATOM     15  C   UNL     1      46.608   4.074  13.418  0.00  0.00    +0.000 A 
ATOM     16  C   UNL     1      46.697   5.452  13.526  0.00  0.00    +0.000 A 
ATOM     17 CL   UNL     1      47.972   6.184  14.406  0.00  0.00    +0.000 Cl
ATOM     18  N   UNL     1      45.825   6.318  12.974  0.00  0.00    +0.000 NA
ATOM     19  C   UNL     1      44.820   5.774  12.257  0.00  0.00    +0.000 A 
ENDBRANCH  12  13
ENDBRANCH  11  12
ENDBRANCH   4  11
TORSDOF 5
ENDMDL
MODEL 3
REMARK VINA RESULT:    -6.809      2.909      6.075
REMARK INTER + INTRA:          -9.132
REMARK INTER:                  -8.724
REMARK INTRA:                  -0.409
REMARK UNBOUND:                -0.532
REMARK  Name = 
REMARK  5 active torsions:
REMARK  status: ('A' for Active; 'I' for Inactive)
REMARK    1  A    between atoms: N_1  and  C_2
REMARK    2  A    between atoms: C_2  and  C_3
REMARK    3  A    between atoms: C_6  and  O_7
REMARK    4  A    between atoms: O_7  and  C_8
REMARK    5  A    between atoms: C_8  and  C_9
REMARK                            x       y       z     vdW  Elec       q    Type
REMARK                         _______ _______ _______ _____ _____    ______ ____
ROOT
ATOM      1  C   UNL     1      47.081   6.005  12.927  0.00  0.00    +0.000 A 
ATOM      2  C   UNL     1      46.708   6.672  11.751  0.00  0.00    +0.000 A 
ATOM      3  C   UNL     1      45.688   6.167  10.940  0.00  0.00    +0.000 A 
ATOM      4  C   UNL     1      45.035   4.984  11.287  0.00  0.00    +0.000 A 
ATOM      5  C   UNL     1      45.369   4.341  12.480  0.00  0.00    +0.000 A 
ATOM      6  C   UNL     1      46.393   4.842  13.288  0.00  0.00    +0.000 A 
ENDROOT
BRANCH   1   7
ATOM      7  C   UNL     1      48.211   6.517  13.781  0.00  0.00    +0.000 C 
BRANCH   7   8
ATOM      8  N   UNL     1      49.436   6.681  13.013  0.00  0.00    +0.000 NA
ATOM      9  H   UNL     1      49.296   6.301  12.080  0.00  0.00    +0.000 HD
ATOM     10  H   UNL     1      50.171   6.124  13.446  0.00  0.00    +0.000 HD
ENDBRANCH   7   8
ENDBRANCH   1   7
BRANCH   4  11
ATOM     11  O   UNL     1      44.095   4.542  10.395  0.00  0.00    +0.000 OA
BRANCH  11  12
ATOM     12  C   UNL     1      44.157   3.146  10.092  0.00  0.00    +0.000 C 
BRANCH  12  13
ATOM     13  C   UNL     1      45.083   2.897   8.932  0.00  0.00    +0.000 A 
ATOM     14  C   UNL     1      45.738   1.680   8.734  0.00  0.00    +0.000 A 
ATOM     15  C   UNL     1      46.590   1.527   7.644  0.00  0.00    +0.000 A 
ATOM     16  C   UNL     1      46.764   2.610   6.798  0.00  0.00    +0.000 A 
ATOM     17 CL   UNL     1      47.781   2.499   5.424  0.00  0.00    +0.000 Cl
ATOM     18  N   UNL     1      46.175   3.811   6.967  0.00  0.00    +0.000 NA
ATOM     19  C   UNL     1      45.352   3.925   8.029  0.00  0.00    +0.000 A 
ENDBRANCH  12  13
ENDBRANCH  11  12
ENDBRANCH   4  11
TORSDOF 5
ENDMDL
MODEL 4
REMARK VINA RESULT:    -6.727      3.144      6.402
REMARK INTER + INTRA:          -9.030
REMARK INTER:                  -8.588
REMARK INTRA:                  -0.442
REMARK UNBOUND:                -0.532
REMARK  Name = 
REMARK  5 active torsions:
REMARK  status: ('A' for Active; 'I' for Inactive)
REMARK    1  A    between atoms: N_1  and  C_2
REMARK    2  A    between atoms: C_2  and  C_3
REMARK    3  A    between atoms: C_6  and  O_7
REMARK    4  A    between atoms: O_7  and  C_8
REMARK    5  A    between atoms: C_8  and  C_9
REMARK                            x       y       z     vdW  Elec       q    Type
REMARK                         _______ _______ _______ _____ _____    ______ ____
ROOT
ATOM      1  C   UNL     1      45.553   7.487  12.501  0.00  0.00    +0.000 A 
ATOM      2  C   UNL     1      46.417   6.454  12.891  0.00  0.00    +0.000 A 
ATOM      3  C   UNL     1      46.186   5.139  12.476  0.00  0.00    +0.000 A 
ATOM      4  C   UNL     1      45.085   4.839  11.674  0.00  0.00    +0.000 A 
ATOM      5  C   UNL     1      44.248   5.869  11.243  0.00  0.00    +0.000 A 
ATOM      6  C   UNL     1      44.475   7.183  11.663  0.00  0.00    +0.000 A 
ENDROOT
BRANCH   1   7
ATOM      7  C   UNL     1      45.768   8.898  12.983  0.00  0.00    +0.000 C 
BRANCH   7   8
ATOM      8  N   UNL     1      44.649   9.761  12.637  0.00  0.00    +0.000 NA
ATOM      9  H   UNL     1      44.810  10.687  13.027  0.00  0.00    +0.000 HD
ATOM     10  H   UNL     1      43.807   9.401  13.083  0.00  0.00    +0.000 HD
ENDBRANCH   7   8
ENDBRANCH   1   7
BRANCH   4  11
ATOM     11  O   UNL     1      44.913   3.513  11.374  0.00  0.00    +0.000 OA
BRANCH  11  12
ATOM     12  C   UNL     1      44.155   3.254  10.189  0.00  0.00    +0.000 C 
BRANCH  12  13
ATOM     13  C   UNL     1      45.070   2.980   9.026  0.00  0.00    +0.000 A 
ATOM     14  C   UNL     1      45.650   1.730   8.798  0.00  0.00    +0.000 A 
ATOM     15  C   UNL     1      46.497   1.553   7.707  0.00  0.00    +0.000 A 
ATOM     16  C   UNL     1      46.741   2.646   6.892  0.00  0.00    +0.000 A 
ATOM     17 CL   UNL     1      47.757   2.508   5.518  0.00  0.00    +0.000 Cl
ATOM     18  N   UNL     1      46.227   3.876   7.090  0.00  0.00    +0.000 NA
ATOM     19  C   UNL     1      45.407   4.012   8.152  0.00  0.00    +0.000 A 
ENDBRANCH  12  13
ENDBRANCH  11  12
ENDBRANCH   4  11
TORSDOF 5
ENDMDL
MODEL 5
REMARK VINA RESULT:    -6.121      1.533      2.302
REMARK INTER + INTRA:          -8.263
REMARK INTER:                  -7.861
REMARK INTRA:                  -0.402
REMARK UNBOUND:                -0.532
REMARK  Name = 
REMARK  5 active torsions:
REMARK  status: ('A' for Active; 'I' for Inactive)
REMARK    1  A    between atoms: N_1  and  C_2
REMARK    2  A    between atoms: C_2  and  C_3
REMARK    3  A    between atoms: C_6  and  O_7
REMARK    4  A    between atoms: O_7  and  C_8
REMARK    5  A    between atoms: C_8  and  C_9
REMARK                            x       y       z     vdW  Elec       q    Type
REMARK                         _______ _______ _______ _____ _____    ______ ____
ROOT
ATOM      1  C   UNL     1      45.567   3.066   8.279  0.00  0.00    +0.000 A 
ATOM      2  C   UNL     1      45.436   4.429   8.582  0.00  0.00    +0.000 A 
ATOM      3  C   UNL     1      44.661   4.844   9.668  0.00  0.00    +0.000 A 
ATOM      4  C   UNL     1      43.998   3.905  10.458  0.00  0.00    +0.000 A 
ATOM      5  C   UNL     1      44.162   2.546  10.191  0.00  0.00    +0.000 A 
ATOM      6  C   UNL     1      44.933   2.130   9.101  0.00  0.00    +0.000 A 
ENDROOT
BRANCH   1   7
ATOM      7  C   UNL     1      46.362   2.613   7.083  0.00  0.00    +0.000 C 
BRANCH   7   8
ATOM      8  N   UNL     1      47.528   3.455   6.860  0.00  0.00    +0.000 NA
ATOM      9  H   UNL     1      47.238   4.304   6.380  0.00  0.00    +0.000 HD
ATOM     10  H   UNL     1      48.167   2.970   6.232  0.00  0.00    +0.000 HD
ENDBRANCH   7   8
ENDBRANCH   1   7
BRANCH   4  11
ATOM     11  O   UNL     1      43.215   4.418  11.458  0.00  0.00    +0.000 OA
BRANCH  11  12
ATOM     12  C   UNL     1      43.705   4.198  12.784  0.00  0.00    +0.000 C 
BRANCH  12  13
ATOM     13  C   UNL     1      44.980   4.965  13.010  0.00  0.00    +0.000 A 
ATOM     14  C   UNL     1      45.073   6.347  12.829  0.00  0.00    +0.000 A 
ATOM     15  C   UNL     1      46.290   6.988  13.046  0.00  0.00    +0.000 A 
ATOM     16  C   UNL     1      47.374   6.212  13.422  0.00  0.00    +0.000 A 
ATOM     17 CL   UNL     1      48.903   6.926  13.725  0.00  0.00    +0.000 Cl
ATOM     18  N   UNL     1      47.337   4.874  13.579  0.00  0.00    +0.000 NA
ATOM     19  C   UNL     1      46.143   4.285  13.367  0.00  0.00    +0.000 A 
ENDBRANCH  12  13
ENDBRANCH  11  12
ENDBRANCH   4  11
TORSDOF 5
ENDMDL
MODEL 6
REMARK VINA RESULT:    -5.602      3.151      6.745
REMARK INTER + INTRA:          -7.608
REMARK INTER:                  -7.192
REMARK INTRA:                  -0.416
REMARK UNBOUND:                -0.532
REMARK  Name = 
REMARK  5 active torsions:
REMARK  status: ('A' for Active; 'I' for Inactive)
REMARK    1  A    between atoms: N_1  and  C_2
REMARK    2  A    between atoms: C_2  and  C_3
REMARK    3  A    between atoms: C_6  and  O_7
REMARK    4  A    between atoms: O_7  and  C_8
REMARK    5  A    between atoms: C_8  and  C_9
REMARK                            x       y       z     vdW  Elec       q    Type
REMARK                         _______ _______ _______ _____ _____    ______ ____
ROOT
ATOM      1  C   UNL     1      47.834   6.228  14.532  0.00  0.00    +0.000 A 
ATOM      2  C   UNL     1      47.544   7.278  13.650  0.00  0.00    +0.000 A 
ATOM      3  C   UNL     1      46.561   7.131  12.667  0.00  0.00    +0.000 A 
ATOM      4  C   UNL     1      45.863   5.929  12.547  0.00  0.00    +0.000 A 
ATOM      5  C   UNL     1      46.112   4.897  13.452  0.00  0.00    +0.000 A 
ATOM      6  C   UNL     1      47.100   5.042  14.431  0.00  0.00    +0.000 A 
ENDROOT
BRANCH   1   7
ATOM      7  C   UNL     1      48.924   6.363  15.563  0.00  0.00    +0.000 C 
BRANCH   7   8
ATOM      8  N   UNL     1      48.382   6.606  16.891  0.00  0.00    +0.000 NA
ATOM      9  H   UNL     1      48.827   5.974  17.553  0.00  0.00    +0.000 HD
ATOM     10  H   UNL     1      47.391   6.371  16.888  0.00  0.00    +0.000 HD
ENDBRANCH   7   8
ENDBRANCH   1   7
BRANCH   4  11
ATOM     11  O   UNL     1      44.965   5.865  11.514  0.00  0.00    +0.000 OA
BRANCH  11  12
ATOM     12  C   UNL     1      44.416   4.568  11.269  0.00  0.00    +0.000 C 
BRANCH  12  13
ATOM     13  C   UNL     1      44.964   3.995   9.989  0.00  0.00    +0.000 A 
ATOM     14  C   UNL     1      44.973   2.626   9.716  0.00  0.00    +0.000 A 
ATOM     15  C   UNL     1      45.508   2.167   8.515  0.00  0.00    +0.000 A 
ATOM     16  C   UNL     1      46.028   3.104   7.637  0.00  0.00    +0.000 A 
ATOM     17 CL   UNL     1      46.688   2.624   6.130  0.00  0.00    +0.000 Cl
ATOM     18  N   UNL     1      46.066   4.430   7.872  0.00  0.00    +0.000 NA
ATOM     19  C   UNL     1      45.536   4.842   9.041  0.00  0.00    +0.000 A 
ENDBRANCH  12  13
ENDBRANCH  11  12
ENDBRANCH   4  11
TORSDOF 5
ENDMDL
MODEL 7
REMARK VINA RESULT:    -5.129      3.775      7.492
REMARK INTER + INTRA:          -7.010
REMARK INTER:                  -6.624
REMARK INTRA:                  -0.386
REMARK UNBOUND:                -0.532
REMARK  Name = 
REMARK  5 active torsions:
REMARK  status: ('A' for Active; 'I' for Inactive)
REMARK    1  A    between atoms: N_1  and  C_2
REMARK    2  A    between atoms: C_2  and  C_3
REMARK    3  A    between atoms: C_6  and  O_7
REMARK    4  A    between atoms: O_7  and  C_8
REMARK    5  A    between atoms: C_8  and  C_9
REMARK                            x       y       z     vdW  Elec       q    Type
REMARK                         _______ _______ _______ _____ _____    ______ ____
ROOT
ATOM      1  C   UNL     1      48.472   4.758  17.104  0.00  0.00    +0.000 A 
ATOM      2  C   UNL     1      47.555   3.932  16.441  0.00  0.00    +0.000 A 
ATOM      3  C   UNL     1      47.028   4.305  15.202  0.00  0.00    +0.000 A 
ATOM      4  C   UNL     1      47.403   5.513  14.614  0.00  0.00    +0.000 A 
ATOM      5  C   UNL     1      48.352   6.318  15.246  0.00  0.00    +0.000 A 
ATOM      6  C   UNL     1      48.874   5.948  16.489  0.00  0.00    +0.000 A 
ENDROOT
BRANCH   1   7
ATOM      7  C   UNL     1      49.008   4.385  18.462  0.00  0.00    +0.000 C 
BRANCH   7   8
ATOM      8  N   UNL     1      48.367   3.188  18.984  0.00  0.00    +0.000 NA
ATOM      9  H   UNL     1      48.019   2.632  18.206  0.00  0.00    +0.000 HD
ATOM     10  H   UNL     1      47.554   3.464  19.531  0.00  0.00    +0.000 HD
ENDBRANCH   7   8
ENDBRANCH   1   7
BRANCH   4  11
ATOM     11  O   UNL     1      46.784   5.815  13.430  0.00  0.00    +0.000 OA
BRANCH  11  12
ATOM     12  C   UNL     1      45.476   5.260  13.272  0.00  0.00    +0.000 C 
BRANCH  12  13
ATOM     13  C   UNL     1      45.293   4.727  11.877  0.00  0.00    +0.000 A 
ATOM     14  C   UNL     1      44.863   3.424  11.615  0.00  0.00    +0.000 A 
ATOM     15  C   UNL     1      44.729   2.995  10.298  0.00  0.00    +0.000 A 
ATOM     16  C   UNL     1      45.045   3.890   9.289  0.00  0.00    +0.000 A 
ATOM     17 CL   UNL     1      44.889   3.448   7.640  0.00  0.00    +0.000 Cl
ATOM     18  N   UNL     1      45.490   5.145   9.495  0.00  0.00    +0.000 NA
ATOM     19  C   UNL     1      45.605   5.531  10.782  0.00  0.00    +0.000 A 
ENDBRANCH  12  13
ENDBRANCH  11  12
ENDBRANCH   4  11
TORSDOF 5
ENDMDL
MODEL 8
REMARK VINA RESULT:    -5.053      3.576      5.270
REMARK INTER + INTRA:          -6.915
REMARK INTER:                  -6.607
REMARK INTRA:                  -0.308
REMARK UNBOUND:                -0.532
REMARK  Name = 
REMARK  5 active torsions:
REMARK  status: ('A' for Active; 'I' for Inactive)
REMARK    1  A    between atoms: N_1  and  C_2
REMARK    2  A    between atoms: C_2  and  C_3
REMARK    3  A    between atoms: C_6  and  O_7
REMARK    4  A    between atoms: O_7  and  C_8
REMARK    5  A    between atoms: C_8  and  C_9
REMARK                            x       y       z     vdW  Elec       q    Type
REMARK                         _______ _______ _______ _____ _____    ______ ____
ROOT
ATOM      1  C   UNL     1      44.905   4.390  10.335  0.00  0.00    +0.000 A 
ATOM      2  C   UNL     1      45.532   5.509  10.901  0.00  0.00    +0.000 A 
ATOM      3  C   UNL     1      45.905   5.510  12.249  0.00  0.00    +0.000 A 
ATOM      4  C   UNL     1      45.646   4.397  13.049  0.00  0.00    +0.000 A 
ATOM      5  C   UNL     1      45.066   3.262  12.481  0.00  0.00    +0.000 A 
ATOM      6  C   UNL     1      44.687   3.264  11.135  0.00  0.00    +0.000 A 
ENDROOT
BRANCH   1   7
ATOM      7  C   UNL     1      44.458   4.400   8.897  0.00  0.00    +0.000 C 
BRANCH   7   8
ATOM      8  N   UNL     1      44.366   3.053   8.353  0.00  0.00    +0.000 NA
ATOM      9  H   UNL     1      44.612   3.076   7.366  0.00  0.00    +0.000 HD
ATOM     10  H   UNL     1      43.395   2.747   8.402  0.00  0.00    +0.000 HD
ENDBRANCH   7   8
ENDBRANCH   1   7
BRANCH   4  11
ATOM     11  O   UNL     1      45.994   4.521  14.368  0.00  0.00    +0.000 OA
BRANCH  11  12
ATOM     12  C   UNL     1      47.370   4.826  14.606  0.00  0.00    +0.000 C 
BRANCH  12  13
ATOM     13  C   UNL     1      47.721   4.593  16.051  0.00  0.00    +0.000 A 
ATOM     14  C   UNL     1      47.524   3.367  16.689  0.00  0.00    +0.000 A 
ATOM     15  C   UNL     1      47.861   3.228  18.033  0.00  0.00    +0.000 A 
ATOM     16  C   UNL     1      48.372   4.335  18.691  0.00  0.00    +0.000 A 
ATOM     17 CL   UNL     1      48.829   4.243  20.340  0.00  0.00    +0.000 Cl
ATOM     18  N   UNL     1      48.552   5.544  18.124  0.00  0.00    +0.000 NA
ATOM     19  C   UNL     1      48.220   5.644  16.820  0.00  0.00    +0.000 A 
ENDBRANCH  12  13
ENDBRANCH  11  12
ENDBRANCH   4  11
TORSDOF 5
ENDMDL
MODEL 9
REMARK VINA RESULT:    -5.036      4.561      6.471
REMARK INTER + INTRA:          -6.894
REMARK INTER:                  -6.623
REMARK INTRA:                  -0.270
REMARK UNBOUND:                -0.532
REMARK  Name = 
REMARK  5 active torsions:
REMARK  status: ('A' for Active; 'I' for Inactive)
REMARK    1  A    between atoms: N_1  and  C_2
REMARK    2  A    between atoms: C_2  and  C_3
REMARK    3  A    between atoms: C_6  and  O_7
REMARK    4  A    between atoms: O_7  and  C_8
REMARK    5  A    between atoms: C_8  and  C_9
REMARK                            x       y       z     vdW  Elec       q    Type
REMARK                         _______ _______ _______ _____ _____    ______ ____
ROOT
ATOM      1  C   UNL     1      44.289   5.062  11.822  0.00  0.00    +0.000 A 
ATOM      2  C   UNL     1      45.042   6.001  12.542  0.00  0.00    +0.000 A 
ATOM      3  C   UNL     1      46.105   5.590  13.351  0.00  0.00    +0.000 A 
ATOM      4  C   UNL     1      46.424   4.236  13.458  0.00  0.00    +0.000 A 
ATOM      5  C   UNL     1      45.709   3.301  12.708  0.00  0.00    +0.000 A 
ATOM      6  C   UNL     1      44.642   3.711  11.904  0.00  0.00    +0.000 A 
ENDROOT
BRANCH   1   7
ATOM      7  C   UNL     1      43.112   5.492  10.986  0.00  0.00    +0.000 C 
BRANCH   7   8
ATOM      8  N   UNL     1      42.099   6.162  11.786  0.00  0.00    +0.000 NA
ATOM      9  H   UNL     1      41.867   7.052  11.351  0.00  0.00    +0.000 HD
ATOM     10  H   UNL     1      42.495   6.381  12.699  0.00  0.00    +0.000 HD
ENDBRANCH   7   8
ENDBRANCH   1   7
BRANCH   4  11
ATOM     11  O   UNL     1      47.441   3.933  14.324  0.00  0.00    +0.000 OA
BRANCH  11  12
ATOM     12  C   UNL     1      47.128   4.096  15.709  0.00  0.00    +0.000 C 
BRANCH  12  13
ATOM     13  C   UNL     1      48.375   4.013  16.547  0.00  0.00    +0.000 A 
ATOM     14  C   UNL     1      48.960   2.800  16.915  0.00  0.00    +0.000 A 
ATOM     15  C   UNL     1      50.109   2.800  17.702  0.00  0.00    +0.000 A 
ATOM     16  C   UNL     1      50.619   4.023  18.104  0.00  0.00    +0.000 A 
ATOM     17 CL   UNL     1      52.040   4.112  19.059  0.00  0.00    +0.000 Cl
ATOM     18  N   UNL     1      50.072   5.216  17.797  0.00  0.00    +0.000 NA
ATOM     19  C   UNL     1      48.964   5.181  17.030  0.00  0.00    +0.000 A 
ENDBRANCH  12  13
ENDBRANCH  11  12
ENDBRANCH   4  11
TORSDOF 5
ENDMDL
