MODEL 1
REMARK VINA RESULT:    -8.644      0.000      0.000
REMARK INTER + INTRA:         -11.132
REMARK INTER:                 -11.170
REMARK INTRA:                   0.039
REMARK UNBOUND:                 0.039
REMARK  Name = 
REMARK  5 active torsions:
REMARK  status: ('A' for Active; 'I' for Inactive)
REMARK    1  A    between atoms: C_2  and  C_4
REMARK    2  A    between atoms: C_7  and  O_8
REMARK    3  A    between atoms: O_8  and  C_9
REMARK    4  A    between atoms: C_9  and  C_10
REMARK    5  A    between atoms: C_15  and  C_16
REMARK                            x       y       z     vdW  Elec       q    Type
REMARK                         _______ _______ _______ _____ _____    ______ ____
ROOT
ATOM      1  C   UNL     1      44.198   4.815  11.509  0.00  0.00    +0.000 C 
ATOM      2  C   UNL     1      42.929   5.136  12.284  0.00  0.00    +0.000 C 
ATOM      3  C   UNL     1      43.205   5.831  10.997  0.00  0.00    +0.000 C 
ENDROOT
BRANCH   1   4
ATOM      4  C   UNL     1      45.546   5.225  12.065  0.00  0.00    +0.000 A 
ATOM      5  C   UNL     1      46.241   6.281  11.460  0.00  0.00    +0.000 A 
ATOM      6  C   UNL     1      47.321   6.865  12.096  0.00  0.00    +0.000 A 
ATOM      7  F   UNL     1      47.913   7.931  11.542  0.00  0.00    +0.000 F 
ATOM      8  C   UNL     1      47.762   6.403  13.328  0.00  0.00    +0.000 A 
ATOM      9  C   UNL     1      47.158   5.299  13.950  0.00  0.00    +0.000 A 
ATOM     10  C   UNL     1      46.050   4.721  13.286  0.00  0.00    +0.000 A 
BRANCH   9  11
ATOM     11  C   UNL     1      47.640   4.812  15.268  0.00  0.00    +0.000 A 
ATOM     12  C   UNL     1      47.473   3.481  15.675  0.00  0.00    +0.000 A 
ATOM     13  C   UNL     1      47.979   3.024  16.889  0.00  0.00    +0.000 A 
ATOM     14  C   UNL     1      48.638   3.926  17.705  0.00  0.00    +0.000 A 
ATOM     15  N   UNL     1      48.819   5.218  17.376  0.00  0.00    +0.000 NA
ATOM     16  C   UNL     1      48.324   5.624  16.177  0.00  0.00    +0.000 A 
ENDBRANCH   9  11
ENDBRANCH   1   4
BRANCH   1  17
ATOM     17  O   UNL     1      44.168   3.442  11.053  0.00  0.00    +0.000 OA
BRANCH  17  21
ATOM     18  C   UNL     1      46.261   2.899   7.672  0.00  0.00    +0.000 A 
ATOM     19  C   UNL     1      45.799   1.795   8.372  0.00  0.00    +0.000 A 
ATOM     20  N   UNL     1      44.989   1.911   9.450  0.00  0.00    +0.000 NA
ATOM     21  C   UNL     1      44.680   3.178   9.803  0.00  0.00    +0.000 A 
ATOM     22  C   UNL     1      45.079   4.280   9.055  0.00  0.00    +0.000 A 
ATOM     23  N   UNL     1      45.882   4.178   7.968  0.00  0.00    +0.000 NA
BRANCH  18  25
ATOM     24  N   UNL     1      47.133   3.411   5.481  0.00  0.00    +0.000 N 
ATOM     25  C   UNL     1      47.322   2.723   6.648  0.00  0.00    +0.000 C 
ATOM     26  O   UNL     1      48.324   2.051   6.854  0.00  0.00    +0.000 OA
ATOM     27  H   UNL     1      47.871   3.423   4.791  0.00  0.00    +0.000 HD
ATOM     28  H   UNL     1      46.331   4.023   5.382  0.00  0.00    +0.000 HD
ENDBRANCH  18  25
ENDBRANCH  17  21
ENDBRANCH   1  17
TORSDOF 5
ENDMDL
MODEL 2
REMARK VINA RESULT:    -8.401      2.193      3.668
REMARK INTER + INTRA:         -10.818
REMARK INTER:                 -10.655
REMARK INTRA:                  -0.163
REMARK UNBOUND:                 0.039
REMARK  Name = 
REMARK  5 active torsions:
REMARK  status: ('A' for Active; 'I' for Inactive)
REMARK    1  A    between atoms: C_2  and  C_4
REMARK    2  A    between atoms: C_7  and  O_8
REMARK    3  A    between atoms: O_8  and  C_9
REMARK    4  A    between atoms: C_9  and  C_10
REMARK    5  A    between atoms: C_15  and  C_16
REMARK                            x       y       z     vdW  Elec       q    Type
REMARK                         _______ _______ _______ _____ _____    ______ ____
ROOT
ATOM      1  C   UNL     1      44.078   4.851  11.457  0.00  0.00    +0.000 C 
ATOM      2  C   UNL     1      42.655   5.128  11.921  0.00  0.00    +0.000 C 
ATOM      3  C   UNL     1      43.186   5.817  10.712  0.00  0.00    +0.000 C 
ENDROOT
BRANCH   1   4
ATOM      4  C   UNL     1      45.249   5.326  12.292  0.00  0.00    +0.000 A 
ATOM      5  C   UNL     1      45.698   4.529  13.353  0.00  0.00    +0.000 A 
ATOM      6  C   UNL     1      46.920   4.781  13.951  0.00  0.00    +0.000 A 
ATOM      7  F   UNL     1      47.371   3.952  14.901  0.00  0.00    +0.000 F 
ATOM      8  C   UNL     1      47.713   5.843  13.540  0.00  0.00    +0.000 A 
ATOM      9  C   UNL     1      47.284   6.726  12.535  0.00  0.00    +0.000 A 
ATOM     10  C   UNL     1      46.034   6.445  11.932  0.00  0.00    +0.000 A 
BRANCH   9  11
ATOM     11  C   UNL     1      48.140   7.861  12.105  0.00  0.00    +0.000 A 
ATOM     12  C   UNL     1      47.665   9.179  12.074  0.00  0.00    +0.000 A 
ATOM     13  C   UNL     1      48.495  10.241  11.722  0.00  0.00    +0.000 A 
ATOM     14  C   UNL     1      49.805   9.962  11.379  0.00  0.00    +0.000 A 
ATOM     15  N   UNL     1      50.315   8.717  11.377  0.00  0.00    +0.000 NA
ATOM     16  C   UNL     1      49.480   7.708  11.740  0.00  0.00    +0.000 A 
ENDBRANCH   9  11
ENDBRANCH   1   4
BRANCH   1  17
ATOM     17  O   UNL     1      44.204   3.472  11.037  0.00  0.00    +0.000 OA
BRANCH  17  21
ATOM     18  C   UNL     1      46.306   2.950   7.658  0.00  0.00    +0.000 A 
ATOM     19  C   UNL     1      45.748   1.849   8.291  0.00  0.00    +0.000 A 
ATOM     20  N   UNL     1      44.931   1.970   9.363  0.00  0.00    +0.000 NA
ATOM     21  C   UNL     1      44.716   3.236   9.781  0.00  0.00    +0.000 A 
ATOM     22  C   UNL     1      45.211   4.342   9.100  0.00  0.00    +0.000 A 
ATOM     23  N   UNL     1      46.022   4.236   8.020  0.00  0.00    +0.000 NA
BRANCH  18  25
ATOM     24  N   UNL     1      47.188   3.417   5.462  0.00  0.00    +0.000 N 
ATOM     25  C   UNL     1      47.367   2.746   6.640  0.00  0.00    +0.000 C 
ATOM     26  O   UNL     1      48.362   2.067   6.859  0.00  0.00    +0.000 OA
ATOM     27  H   UNL     1      47.928   3.410   4.773  0.00  0.00    +0.000 HD
ATOM     28  H   UNL     1      46.393   4.036   5.351  0.00  0.00    +0.000 HD
ENDBRANCH  18  25
ENDBRANCH  17  21
ENDBRANCH   1  17
TORSDOF 5
ENDMDL
MODEL 3
REMARK VINA RESULT:    -8.373      2.599      7.447
REMARK INTER + INTRA:         -10.782
REMARK INTER:                 -10.438
REMARK INTRA:                  -0.344
REMARK UNBOUND:                 0.039
REMARK  Name = 
REMARK  5 active torsions:
REMARK  status: ('A' for Active; 'I' for Inactive)
REMARK    1  A    between atoms: C_2  and  C_4
REMARK    2  A    between atoms: C_7  and  O_8
REMARK    3  A    between atoms: O_8  and  C_9
REMARK    4  A    between atoms: C_9  and  C_10
REMARK    5  A    between atoms: C_15  and  C_16
REMARK                            x       y       z     vdW  Elec       q    Type
REMARK                         _______ _______ _______ _____ _____    ______ ____
ROOT
ATOM      1  C   UNL     1      46.328   7.290  12.435  0.00  0.00    +0.000 C 
ATOM      2  C   UNL     1      46.398   8.667  11.791  0.00  0.00    +0.000 C 
ATOM      3  C   UNL     1      45.761   8.507  13.128  0.00  0.00    +0.000 C 
ENDROOT
BRANCH   1   4
ATOM      4  C   UNL     1      45.435   6.222  11.837  0.00  0.00    +0.000 A 
ATOM      5  C   UNL     1      44.063   6.243  12.121  0.00  0.00    +0.000 A 
ATOM      6  C   UNL     1      43.182   5.473  11.383  0.00  0.00    +0.000 A 
ATOM      7  F   UNL     1      41.867   5.577  11.610  0.00  0.00    +0.000 F 
ATOM      8  C   UNL     1      43.636   4.640  10.369  0.00  0.00    +0.000 A 
ATOM      9  C   UNL     1      45.006   4.515  10.088  0.00  0.00    +0.000 A 
ATOM     10  C   UNL     1      45.889   5.318  10.850  0.00  0.00    +0.000 A 
BRANCH   9  11
ATOM     11  C   UNL     1      45.479   3.619   9.002  0.00  0.00    +0.000 A 
ATOM     12  C   UNL     1      45.996   4.120   7.799  0.00  0.00    +0.000 A 
ATOM     13  C   UNL     1      46.488   3.269   6.811  0.00  0.00    +0.000 A 
ATOM     14  C   UNL     1      46.435   1.906   7.035  0.00  0.00    +0.000 A 
ATOM     15  N   UNL     1      45.938   1.365   8.163  0.00  0.00    +0.000 NA
ATOM     16  C   UNL     1      45.482   2.226   9.110  0.00  0.00    +0.000 A 
ENDBRANCH   9  11
ENDBRANCH   1   4
BRANCH   1  17
ATOM     17  O   UNL     1      47.661   6.812  12.733  0.00  0.00    +0.000 OA
BRANCH  17  21
ATOM     18  C   UNL     1      47.568   4.670  16.126  0.00  0.00    +0.000 A 
ATOM     19  C   UNL     1      47.132   4.092  14.942  0.00  0.00    +0.000 A 
ATOM     20  N   UNL     1      47.249   4.717  13.748  0.00  0.00    +0.000 NA
ATOM     21  C   UNL     1      47.802   5.949  13.796  0.00  0.00    +0.000 A 
ATOM     22  C   UNL     1      48.309   6.495  14.970  0.00  0.00    +0.000 A 
ATOM     23  N   UNL     1      48.207   5.876  16.171  0.00  0.00    +0.000 NA
BRANCH  18  25
ATOM     24  N   UNL     1      47.301   4.853  18.517  0.00  0.00    +0.000 N 
ATOM     25  C   UNL     1      47.207   4.040  17.421  0.00  0.00    +0.000 C 
ATOM     26  O   UNL     1      46.800   2.888  17.498  0.00  0.00    +0.000 OA
ATOM     27  H   UNL     1      46.963   4.521  19.409  0.00  0.00    +0.000 HD
ATOM     28  H   UNL     1      47.561   5.827  18.400  0.00  0.00    +0.000 HD
ENDBRANCH  18  25
ENDBRANCH  17  21
ENDBRANCH   1  17
TORSDOF 5
ENDMDL
MODEL 4
REMARK VINA RESULT:    -8.045      1.872      2.526
REMARK INTER + INTRA:         -10.357
REMARK INTER:                  -9.915
REMARK INTRA:                  -0.442
REMARK UNBOUND:                 0.039
REMARK  Name = 
REMARK  5 active torsions:
REMARK  status: ('A' for Active; 'I' for Inactive)
REMARK    1  A    between atoms: C_2  and  C_4
REMARK    2  A    between atoms: C_7  and  O_8
REMARK    3  A    between atoms: O_8  and  C_9
REMARK    4  A    between atoms: C_9  and  C_10
REMARK    5  A    between atoms: C_15  and  C_16
REMARK                            x       y       z     vdW  Elec       q    Type
REMARK                         _______ _______ _______ _____ _____    ______ ____
ROOT
ATOM      1  C   UNL     1      44.137   5.390  11.783  0.00  0.00    +0.000 C 
ATOM      2  C   UNL     1      43.004   5.163  12.774  0.00  0.00    +0.000 C 
ATOM      3  C   UNL     1      42.694   5.570  11.375  0.00  0.00    +0.000 C 
ENDROOT
BRANCH   1   4
ATOM      4  C   UNL     1      45.070   6.570  11.962  0.00  0.00    +0.000 A 
ATOM      5  C   UNL     1      44.617   7.854  11.630  0.00  0.00    +0.000 A 
ATOM      6  C   UNL     1      45.321   8.973  12.037  0.00  0.00    +0.000 A 
ATOM      7  F   UNL     1      44.822  10.190  11.790  0.00  0.00    +0.000 F 
ATOM      8  C   UNL     1      46.505   8.852  12.752  0.00  0.00    +0.000 A 
ATOM      9  C   UNL     1      47.053   7.593  13.047  0.00  0.00    +0.000 A 
ATOM     10  C   UNL     1      46.312   6.462  12.628  0.00  0.00    +0.000 A 
BRANCH   9  11
ATOM     11  C   UNL     1      48.322   7.478  13.810  0.00  0.00    +0.000 A 
ATOM     12  C   UNL     1      49.415   8.321  13.564  0.00  0.00    +0.000 A 
ATOM     13  C   UNL     1      50.579   8.239  14.325  0.00  0.00    +0.000 A 
ATOM     14  C   UNL     1      50.644   7.284  15.323  0.00  0.00    +0.000 A 
ATOM     15  N   UNL     1      49.633   6.439  15.598  0.00  0.00    +0.000 NA
ATOM     16  C   UNL     1      48.508   6.558  14.845  0.00  0.00    +0.000 A 
ENDBRANCH   9  11
ENDBRANCH   1   4
BRANCH   1  17
ATOM     17  O   UNL     1      44.836   4.147  11.535  0.00  0.00    +0.000 OA
BRANCH  17  21
ATOM     18  C   UNL     1      45.947   3.057   7.836  0.00  0.00    +0.000 A 
ATOM     19  C   UNL     1      45.368   2.119   8.679  0.00  0.00    +0.000 A 
ATOM     20  N   UNL     1      44.865   2.450   9.890  0.00  0.00    +0.000 NA
ATOM     21  C   UNL     1      44.984   3.754  10.224  0.00  0.00    +0.000 A 
ATOM     22  C   UNL     1      45.493   4.706   9.349  0.00  0.00    +0.000 A 
ATOM     23  N   UNL     1      45.992   4.390   8.130  0.00  0.00    +0.000 NA
BRANCH  18  25
ATOM     24  N   UNL     1      46.995   3.576   5.726  0.00  0.00    +0.000 N 
ATOM     25  C   UNL     1      46.682   2.599   6.630  0.00  0.00    +0.000 C 
ATOM     26  O   UNL     1      47.033   1.435   6.480  0.00  0.00    +0.000 OA
ATOM     27  H   UNL     1      47.591   3.350   4.942  0.00  0.00    +0.000 HD
ATOM     28  H   UNL     1      46.760   4.541   5.928  0.00  0.00    +0.000 HD
ENDBRANCH  18  25
ENDBRANCH  17  21
ENDBRANCH   1  17
TORSDOF 5
ENDMDL
MODEL 5
REMARK VINA RESULT:    -7.436      3.011      8.166
REMARK INTER + INTRA:          -9.570
REMARK INTER:                  -8.912
REMARK INTRA:                  -0.658
REMARK UNBOUND:                 0.039
REMARK  Name = 
REMARK  5 active torsions:
REMARK  status: ('A' for Active; 'I' for Inactive)
REMARK    1  A    between atoms: C_2  and  C_4
REMARK    2  A    between atoms: C_7  and  O_8
REMARK    3  A    between atoms: O_8  and  C_9
REMARK    4  A    between atoms: C_9  and  C_10
REMARK    5  A    between atoms: C_15  and  C_16
REMARK                            x       y       z     vdW  Elec       q    Type
REMARK                         _______ _______ _______ _____ _____    ______ ____
ROOT
ATOM      1  C   UNL     1      48.697   7.404  13.624  0.00  0.00    +0.000 C 
ATOM      2  C   UNL     1      49.855   7.881  12.759  0.00  0.00    +0.000 C 
ATOM      3  C   UNL     1      49.375   8.728  13.887  0.00  0.00    +0.000 C 
ENDROOT
BRANCH   1   4
ATOM      4  C   UNL     1      47.302   7.323  13.038  0.00  0.00    +0.000 A 
ATOM      5  C   UNL     1      46.462   8.442  13.120  0.00  0.00    +0.000 A 
ATOM      6  C   UNL     1      45.307   8.508  12.363  0.00  0.00    +0.000 A 
ATOM      7  F   UNL     1      44.568   9.625  12.386  0.00  0.00    +0.000 F 
ATOM      8  C   UNL     1      44.935   7.460  11.532  0.00  0.00    +0.000 A 
ATOM      9  C   UNL     1      45.691   6.280  11.465  0.00  0.00    +0.000 A 
ATOM     10  C   UNL     1      46.874   6.237  12.242  0.00  0.00    +0.000 A 
BRANCH   9  11
ATOM     11  C   UNL     1      45.281   5.165  10.574  0.00  0.00    +0.000 A 
ATOM     12  C   UNL     1      45.654   5.118   9.223  0.00  0.00    +0.000 A 
ATOM     13  C   UNL     1      45.310   4.039   8.412  0.00  0.00    +0.000 A 
ATOM     14  C   UNL     1      44.565   3.015   8.967  0.00  0.00    +0.000 A 
ATOM     15  N   UNL     1      44.166   3.009  10.252  0.00  0.00    +0.000 NA
ATOM     16  C   UNL     1      44.534   4.070  11.017  0.00  0.00    +0.000 A 
ENDBRANCH   9  11
ENDBRANCH   1   4
BRANCH   1  17
ATOM     17  O   UNL     1      49.076   6.210  14.349  0.00  0.00    +0.000 OA
BRANCH  17  21
ATOM     18  C   UNL     1      48.272   5.341  18.183  0.00  0.00    +0.000 A 
ATOM     19  C   UNL     1      49.013   6.474  17.882  0.00  0.00    +0.000 A 
ATOM     20  N   UNL     1      49.215   6.887  16.610  0.00  0.00    +0.000 NA
ATOM     21  C   UNL     1      48.661   6.105  15.657  0.00  0.00    +0.000 A 
ATOM     22  C   UNL     1      47.855   5.015  15.962  0.00  0.00    +0.000 A 
ATOM     23  N   UNL     1      47.636   4.596  17.232  0.00  0.00    +0.000 NA
BRANCH  18  25
ATOM     24  N   UNL     1      48.389   3.456  19.685  0.00  0.00    +0.000 N 
ATOM     25  C   UNL     1      48.277   4.814  19.572  0.00  0.00    +0.000 C 
ATOM     26  O   UNL     1      48.239   5.548  20.550  0.00  0.00    +0.000 OA
ATOM     27  H   UNL     1      48.512   3.045  20.599  0.00  0.00    +0.000 HD
ATOM     28  H   UNL     1      48.504   2.890  18.851  0.00  0.00    +0.000 HD
ENDBRANCH  18  25
ENDBRANCH  17  21
ENDBRANCH   1  17
TORSDOF 5
ENDMDL
MODEL 6
REMARK VINA RESULT:    -6.876      3.116      4.958
REMARK INTER + INTRA:          -8.847
REMARK INTER:                  -8.131
REMARK INTRA:                  -0.716
REMARK UNBOUND:                 0.039
REMARK  Name = 
REMARK  5 active torsions:
REMARK  status: ('A' for Active; 'I' for Inactive)
REMARK    1  A    between atoms: C_2  and  C_4
REMARK    2  A    between atoms: C_7  and  O_8
REMARK    3  A    between atoms: O_8  and  C_9
REMARK    4  A    between atoms: C_9  and  C_10
REMARK    5  A    between atoms: C_15  and  C_16
REMARK                            x       y       z     vdW  Elec       q    Type
REMARK                         _______ _______ _______ _____ _____    ______ ____
ROOT
ATOM      1  C   UNL     1      48.274   8.053  12.727  0.00  0.00    +0.000 C 
ATOM      2  C   UNL     1      48.793   9.133  11.790  0.00  0.00    +0.000 C 
ATOM      3  C   UNL     1      49.276   7.732  11.643  0.00  0.00    +0.000 C 
ENDROOT
BRANCH   1   4
ATOM      4  C   UNL     1      48.661   8.075  14.191  0.00  0.00    +0.000 A 
ATOM      5  C   UNL     1      48.129   9.070  15.022  0.00  0.00    +0.000 A 
ATOM      6  C   UNL     1      48.227   8.962  16.398  0.00  0.00    +0.000 A 
ATOM      7  F   UNL     1      47.632   9.876  17.174  0.00  0.00    +0.000 F 
ATOM      8  C   UNL     1      48.880   7.887  16.986  0.00  0.00    +0.000 A 
ATOM      9  C   UNL     1      49.502   6.898  16.207  0.00  0.00    +0.000 A 
ATOM     10  C   UNL     1      49.382   7.024  14.802  0.00  0.00    +0.000 A 
BRANCH   9  11
ATOM     11  C   UNL     1      50.199   5.754  16.849  0.00  0.00    +0.000 A 
ATOM     12  C   UNL     1      51.591   5.730  17.011  0.00  0.00    +0.000 A 
ATOM     13  C   UNL     1      52.227   4.676  17.664  0.00  0.00    +0.000 A 
ATOM     14  C   UNL     1      51.451   3.633  18.135  0.00  0.00    +0.000 A 
ATOM     15  N   UNL     1      50.113   3.593  17.998  0.00  0.00    +0.000 NA
ATOM     16  C   UNL     1      49.526   4.645  17.369  0.00  0.00    +0.000 A 
ENDBRANCH   9  11
ENDBRANCH   1   4
BRANCH   1  17
ATOM     17  O   UNL     1      46.855   7.854  12.519  0.00  0.00    +0.000 OA
BRANCH  17  21
ATOM     18  C   UNL     1      45.019   4.363  11.777  0.00  0.00    +0.000 A 
ATOM     19  C   UNL     1      45.406   5.170  10.717  0.00  0.00    +0.000 A 
ATOM     20  N   UNL     1      46.132   6.297  10.894  0.00  0.00    +0.000 NA
ATOM     21  C   UNL     1      46.436   6.588  12.178  0.00  0.00    +0.000 A 
ATOM     22  C   UNL     1      46.116   5.740  13.232  0.00  0.00    +0.000 A 
ATOM     23  N   UNL     1      45.397   4.603  13.068  0.00  0.00    +0.000 NA
BRANCH  18  25
ATOM     24  N   UNL     1      43.809   2.451  12.613  0.00  0.00    +0.000 N 
ATOM     25  C   UNL     1      44.037   3.274  11.545  0.00  0.00    +0.000 C 
ATOM     26  O   UNL     1      43.431   3.153  10.488  0.00  0.00    +0.000 OA
ATOM     27  H   UNL     1      43.072   1.763  12.557  0.00  0.00    +0.000 HD
ATOM     28  H   UNL     1      44.269   2.636  13.498  0.00  0.00    +0.000 HD
ENDBRANCH  18  25
ENDBRANCH  17  21
ENDBRANCH   1  17
TORSDOF 5
ENDMDL
MODEL 7
REMARK VINA RESULT:    -6.681      3.963      8.262
REMARK INTER + INTRA:          -8.595
REMARK INTER:                  -8.498
REMARK INTRA:                  -0.097
REMARK UNBOUND:                 0.039
REMARK  Name = 
REMARK  5 active torsions:
REMARK  status: ('A' for Active; 'I' for Inactive)
REMARK    1  A    between atoms: C_2  and  C_4
REMARK    2  A    between atoms: C_7  and  O_8
REMARK    3  A    between atoms: O_8  and  C_9
REMARK    4  A    between atoms: C_9  and  C_10
REMARK    5  A    between atoms: C_15  and  C_16
REMARK                            x       y       z     vdW  Elec       q    Type
REMARK                         _______ _______ _______ _____ _____    ______ ____
ROOT
ATOM      1  C   UNL     1      48.163   4.630  16.995  0.00  0.00    +0.000 C 
ATOM      2  C   UNL     1      47.117   4.649  18.101  0.00  0.00    +0.000 C 
ATOM      3  C   UNL     1      47.401   3.381  17.372  0.00  0.00    +0.000 C 
ENDROOT
BRANCH   1   4
ATOM      4  C   UNL     1      47.900   5.365  15.697  0.00  0.00    +0.000 A 
ATOM      5  C   UNL     1      48.735   6.432  15.337  0.00  0.00    +0.000 A 
ATOM      6  C   UNL     1      48.709   6.939  14.050  0.00  0.00    +0.000 A 
ATOM      7  F   UNL     1      49.579   7.895  13.702  0.00  0.00    +0.000 F 
ATOM      8  C   UNL     1      47.838   6.428  13.097  0.00  0.00    +0.000 A 
ATOM      9  C   UNL     1      46.922   5.413  13.417  0.00  0.00    +0.000 A 
ATOM     10  C   UNL     1      46.971   4.904  14.737  0.00  0.00    +0.000 A 
BRANCH   9  11
ATOM     11  C   UNL     1      45.994   4.876  12.389  0.00  0.00    +0.000 A 
ATOM     12  C   UNL     1      45.732   5.563  11.195  0.00  0.00    +0.000 A 
ATOM     13  C   UNL     1      44.903   5.023  10.215  0.00  0.00    +0.000 A 
ATOM     14  C   UNL     1      44.319   3.793  10.456  0.00  0.00    +0.000 A 
ATOM     15  N   UNL     1      44.522   3.092  11.587  0.00  0.00    +0.000 NA
ATOM     16  C   UNL     1      45.348   3.644  12.514  0.00  0.00    +0.000 A 
ENDBRANCH   9  11
ENDBRANCH   1   4
BRANCH   1  17
ATOM     17  O   UNL     1      49.473   4.903  17.545  0.00  0.00    +0.000 OA
BRANCH  17  21
ATOM     18  C   UNL     1      52.316   2.075  17.721  0.00  0.00    +0.000 A 
ATOM     19  C   UNL     1      51.064   1.753  17.218  0.00  0.00    +0.000 A 
ATOM     20  N   UNL     1      50.104   2.685  17.021  0.00  0.00    +0.000 NA
ATOM     21  C   UNL     1      50.447   3.945  17.368  0.00  0.00    +0.000 A 
ATOM     22  C   UNL     1      51.725   4.280  17.798  0.00  0.00    +0.000 A 
ATOM     23  N   UNL     1      52.700   3.358  17.990  0.00  0.00    +0.000 NA
BRANCH  18  25
ATOM     24  N   UNL     1      52.666  -0.243  18.290  0.00  0.00    +0.000 N 
ATOM     25  C   UNL     1      53.241   0.987  18.127  0.00  0.00    +0.000 C 
ATOM     26  O   UNL     1      54.445   1.165  18.255  0.00  0.00    +0.000 OA
ATOM     27  H   UNL     1      53.257  -1.046  18.455  0.00  0.00    +0.000 HD
ATOM     28  H   UNL     1      51.679  -0.367  18.092  0.00  0.00    +0.000 HD
ENDBRANCH  18  25
ENDBRANCH  17  21
ENDBRANCH   1  17
TORSDOF 5
ENDMDL
MODEL 8
REMARK VINA RESULT:    -6.575      4.019      6.503
REMARK INTER + INTRA:          -8.458
REMARK INTER:                  -7.946
REMARK INTRA:                  -0.512
REMARK UNBOUND:                 0.039
REMARK  Name = 
REMARK  5 active torsions:
REMARK  status: ('A' for Active; 'I' for Inactive)
REMARK    1  A    between atoms: C_2  and  C_4
REMARK    2  A    between atoms: C_7  and  O_8
REMARK    3  A    between atoms: O_8  and  C_9
REMARK    4  A    between atoms: C_9  and  C_10
REMARK    5  A    between atoms: C_15  and  C_16
REMARK                            x       y       z     vdW  Elec       q    Type
REMARK                         _______ _______ _______ _____ _____    ______ ____
ROOT
ATOM      1  C   UNL     1      48.006   3.887  16.647  0.00  0.00    +0.000 C 
ATOM      2  C   UNL     1      47.232   2.887  17.492  0.00  0.00    +0.000 C 
ATOM      3  C   UNL     1      46.852   4.326  17.516  0.00  0.00    +0.000 C 
ENDROOT
BRANCH   1   4
ATOM      4  C   UNL     1      49.442   4.219  16.997  0.00  0.00    +0.000 A 
ATOM      5  C   UNL     1      49.777   5.540  17.322  0.00  0.00    +0.000 A 
ATOM      6  C   UNL     1      50.993   5.830  17.914  0.00  0.00    +0.000 A 
ATOM      7  F   UNL     1      51.254   7.085  18.301  0.00  0.00    +0.000 F 
ATOM      8  C   UNL     1      51.921   4.830  18.170  0.00  0.00    +0.000 A 
ATOM      9  C   UNL     1      51.678   3.498  17.796  0.00  0.00    +0.000 A 
ATOM     10  C   UNL     1      50.425   3.223  17.199  0.00  0.00    +0.000 A 
BRANCH   9  11
ATOM     11  C   UNL     1      52.680   2.438  18.074  0.00  0.00    +0.000 A 
ATOM     12  C   UNL     1      53.947   2.732  18.597  0.00  0.00    +0.000 A 
ATOM     13  C   UNL     1      54.857   1.723  18.904  0.00  0.00    +0.000 A 
ATOM     14  C   UNL     1      54.490   0.413  18.660  0.00  0.00    +0.000 A 
ATOM     15  N   UNL     1      53.294   0.069  18.147  0.00  0.00    +0.000 NA
ATOM     16  C   UNL     1      52.427   1.078  17.874  0.00  0.00    +0.000 A 
ENDBRANCH   9  11
ENDBRANCH   1   4
BRANCH   1  17
ATOM     17  O   UNL     1      47.819   3.600  15.241  0.00  0.00    +0.000 OA
BRANCH  17  21
ATOM     18  C   UNL     1      45.887   5.956  12.628  0.00  0.00    +0.000 A 
ATOM     19  C   UNL     1      45.294   4.776  13.050  0.00  0.00    +0.000 A 
ATOM     20  N   UNL     1      45.837   3.999  14.016  0.00  0.00    +0.000 NA
ATOM     21  C   UNL     1      47.005   4.448  14.524  0.00  0.00    +0.000 A 
ATOM     22  C   UNL     1      47.559   5.669  14.157  0.00  0.00    +0.000 A 
ATOM     23  N   UNL     1      47.022   6.461  13.198  0.00  0.00    +0.000 NA
BRANCH  18  25
ATOM     24  N   UNL     1      45.315   5.872  10.286  0.00  0.00    +0.000 N 
ATOM     25  C   UNL     1      45.370   6.640  11.416  0.00  0.00    +0.000 C 
ATOM     26  O   UNL     1      44.969   7.796  11.438  0.00  0.00    +0.000 OA
ATOM     27  H   UNL     1      44.870   6.243   9.458  0.00  0.00    +0.000 HD
ATOM     28  H   UNL     1      45.578   4.893  10.329  0.00  0.00    +0.000 HD
ENDBRANCH  18  25
ENDBRANCH  17  21
ENDBRANCH   1  17
TORSDOF 5
ENDMDL
MODEL 9
REMARK VINA RESULT:    -6.237      3.905      7.716
REMARK INTER + INTRA:          -8.022
REMARK INTER:                  -7.225
REMARK INTRA:                  -0.796
REMARK UNBOUND:                 0.039
REMARK  Name = 
REMARK  5 active torsions:
REMARK  status: ('A' for Active; 'I' for Inactive)
REMARK    1  A    between atoms: C_2  and  C_4
REMARK    2  A    between atoms: C_7  and  O_8
REMARK    3  A    between atoms: O_8  and  C_9
REMARK    4  A    between atoms: C_9  and  C_10
REMARK    5  A    between atoms: C_15  and  C_16
REMARK                            x       y       z     vdW  Elec       q    Type
REMARK                         _______ _______ _______ _____ _____    ______ ____
ROOT
ATOM      1  C   UNL     1      49.024   8.951  16.517  0.00  0.00    +0.000 C 
ATOM      2  C   UNL     1      49.210  10.439  16.776  0.00  0.00    +0.000 C 
ATOM      3  C   UNL     1      47.910   9.789  17.100  0.00  0.00    +0.000 C 
ENDROOT
BRANCH   1   4
ATOM      4  C   UNL     1      48.974   8.434  15.094  0.00  0.00    +0.000 A 
ATOM      5  C   UNL     1      50.087   8.618  14.262  0.00  0.00    +0.000 A 
ATOM      6  C   UNL     1      50.193   7.925  13.069  0.00  0.00    +0.000 A 
ATOM      7  F   UNL     1      51.306   8.046  12.335  0.00  0.00    +0.000 F 
ATOM      8  C   UNL     1      49.190   7.059  12.653  0.00  0.00    +0.000 A 
ATOM      9  C   UNL     1      48.015   6.891  13.403  0.00  0.00    +0.000 A 
ATOM     10  C   UNL     1      47.931   7.604  14.623  0.00  0.00    +0.000 A 
BRANCH   9  11
ATOM     11  C   UNL     1      46.949   5.964  12.945  0.00  0.00    +0.000 A 
ATOM     12  C   UNL     1      46.312   6.119  11.706  0.00  0.00    +0.000 A 
ATOM     13  C   UNL     1      45.353   5.211  11.265  0.00  0.00    +0.000 A 
ATOM     14  C   UNL     1      45.023   4.153  12.093  0.00  0.00    +0.000 A 
ATOM     15  N   UNL     1      45.589   3.959  13.298  0.00  0.00    +0.000 NA
ATOM     16  C   UNL     1      46.531   4.857  13.688  0.00  0.00    +0.000 A 
ENDBRANCH   9  11
ENDBRANCH   1   4
BRANCH   1  17
ATOM     17  O   UNL     1      49.908   8.183  17.367  0.00  0.00    +0.000 OA
BRANCH  17  21
ATOM     18  C   UNL     1      48.526   4.417  17.472  0.00  0.00    +0.000 A 
ATOM     19  C   UNL     1      49.795   4.664  16.971  0.00  0.00    +0.000 A 
ATOM     20  N   UNL     1      50.364   5.890  17.018  0.00  0.00    +0.000 NA
ATOM     21  C   UNL     1      49.599   6.857  17.571  0.00  0.00    +0.000 A 
ATOM     22  C   UNL     1      48.360   6.594  18.142  0.00  0.00    +0.000 A 
ATOM     23  N   UNL     1      47.782   5.369  18.111  0.00  0.00    +0.000 NA
BRANCH  18  25
ATOM     24  N   UNL     1      48.686   2.143  16.683  0.00  0.00    +0.000 N 
ATOM     25  C   UNL     1      47.869   3.116  17.187  0.00  0.00    +0.000 C 
ATOM     26  O   UNL     1      46.688   2.911  17.437  0.00  0.00    +0.000 OA
ATOM     27  H   UNL     1      48.328   1.205  16.574  0.00  0.00    +0.000 HD
ATOM     28  H   UNL     1      49.677   2.327  16.570  0.00  0.00    +0.000 HD
ENDBRANCH  18  25
ENDBRANCH  17  21
ENDBRANCH   1  17
TORSDOF 5
ENDMDL
