MODEL 1
REMARK VINA RESULT:    -9.273      0.000      0.000
REMARK INTER + INTRA:         -13.647
REMARK INTER:                 -12.525
REMARK INTRA:                  -1.122
REMARK UNBOUND:                -1.122
REMARK  Name = 
REMARK  6 active torsions:
REMARK  status: ('A' for Active; 'I' for Inactive)
REMARK    1  A    between atoms: C_2  and  C_3
REMARK    2  A    between atoms: N_7  and  C_8
REMARK    3  A    between atoms: C_8  and  C_9
REMARK    4  A    between atoms: C_9  and  C_12
REMARK    5  A    between atoms: C_16  and  O_17
REMARK    6  A    between atoms: O_17  and  C_18
REMARK                            x       y       z     vdW  Elec       q    Type
REMARK                         _______ _______ _______ _____ _____    ______ ____
ROOT
ATOM      1  C   UNL     1      43.724   4.659  12.407  0.00  0.00    +0.000 C 
ATOM      2  F   UNL     1      42.785   5.510  12.916  0.00  0.00    +0.000 F 
ATOM      3  F   UNL     1      43.565   3.491  13.101  0.00  0.00    +0.000 F 
ENDROOT
BRANCH   1   4
ATOM      4  C   UNL     1      45.131   5.213  12.535  0.00  0.00    +0.000 A 
ATOM      5  C   UNL     1      45.619   6.147  11.610  0.00  0.00    +0.000 A 
ATOM      6  C   UNL     1      46.887   6.707  11.774  0.00  0.00    +0.000 A 
ATOM      7  C   UNL     1      47.688   6.341  12.859  0.00  0.00    +0.000 A 
ATOM      8  C   UNL     1      47.220   5.405  13.779  0.00  0.00    +0.000 A 
ATOM      9  C   UNL     1      45.947   4.850  13.618  0.00  0.00    +0.000 A 
BRANCH   8  10
ATOM     10  O   UNL     1      47.891   4.994  14.902  0.00  0.00    +0.000 OA
BRANCH  10  11
ATOM     11  C   UNL     1      47.278   4.039  15.792  0.00  0.00    +0.000 C 
ATOM     12  C   UNL     1      47.154   4.439  17.279  0.00  0.00    +0.000 C 
ATOM     13  C   UNL     1      47.629   3.024  17.654  0.00  0.00    +0.000 C 
ATOM     14  F   UNL     1      48.507   2.952  18.678  0.00  0.00    +0.000 F 
ATOM     15  F   UNL     1      46.643   2.137  17.922  0.00  0.00    +0.000 F 
ATOM     16  C   UNL     1      48.237   2.915  16.246  0.00  0.00    +0.000 C 
ENDBRANCH  10  11
ENDBRANCH   8  10
ENDBRANCH   1   4
BRANCH   1  17
ATOM     17  C   UNL     1      43.405   4.398  10.915  0.00  0.00    +0.000 C 
BRANCH  17  22
ATOM     18  C   UNL     1      46.614   2.434   7.410  0.00  0.00    +0.000 A 
ATOM     19  C   UNL     1      46.249   3.745   7.687  0.00  0.00    +0.000 A 
ATOM     20  C   UNL     1      45.326   3.995   8.704  0.00  0.00    +0.000 A 
ATOM     21  C   UNL     1      44.780   2.935   9.424  0.00  0.00    +0.000 A 
ATOM     22  N   UNL     1      43.854   3.101  10.418  0.00  0.00    +0.000 N 
ATOM     23  N   UNL     1      45.134   1.663   9.165  0.00  0.00    +0.000 NA
ATOM     24  C   UNL     1      46.036   1.435   8.173  0.00  0.00    +0.000 A 
ATOM     25  H   UNL     1      43.557   2.247  10.879  0.00  0.00    +0.000 HD
BRANCH  18  27
ATOM     26  N   UNL     1      48.299   1.862   5.533  0.00  0.00    +0.000 NA
ATOM     27  C   UNL     1      47.545   2.126   6.376  0.00  0.00    +0.000 C 
ENDBRANCH  18  27
ENDBRANCH  17  22
ENDBRANCH   1  17
TORSDOF 6
ENDMDL
MODEL 2
REMARK VINA RESULT:    -7.790      2.078      2.436
REMARK INTER + INTRA:         -11.644
REMARK INTER:                 -10.709
REMARK INTRA:                  -0.935
REMARK UNBOUND:                -1.122
REMARK  Name = 
REMARK  6 active torsions:
REMARK  status: ('A' for Active; 'I' for Inactive)
REMARK    1  A    between atoms: C_2  and  C_3
REMARK    2  A    between atoms: N_7  and  C_8
REMARK    3  A    between atoms: C_8  and  C_9
REMARK    4  A    between atoms: C_9  and  C_12
REMARK    5  A    between atoms: C_16  and  O_17
REMARK    6  A    between atoms: O_17  and  C_18
REMARK                            x       y       z     vdW  Elec       q    Type
REMARK                         _______ _______ _______ _____ _____    ______ ____
ROOT
ATOM      1  C   UNL     1      43.854   4.793  12.488  0.00  0.00    +0.000 C 
ATOM      2  F   UNL     1      42.843   5.459  13.119  0.00  0.00    +0.000 F 
ATOM      3  F   UNL     1      43.949   3.589  13.129  0.00  0.00    +0.000 F 
ENDROOT
BRANCH   1   4
ATOM      4  C   UNL     1      45.161   5.564  12.523  0.00  0.00    +0.000 A 
ATOM      5  C   UNL     1      45.387   6.630  11.642  0.00  0.00    +0.000 A 
ATOM      6  C   UNL     1      46.561   7.382  11.728  0.00  0.00    +0.000 A 
ATOM      7  C   UNL     1      47.527   7.077  12.691  0.00  0.00    +0.000 A 
ATOM      8  C   UNL     1      47.320   6.013  13.564  0.00  0.00    +0.000 A 
ATOM      9  C   UNL     1      46.142   5.265  13.482  0.00  0.00    +0.000 A 
BRANCH   8  10
ATOM     10  O   UNL     1      48.171   5.640  14.574  0.00  0.00    +0.000 OA
BRANCH  10  11
ATOM     11  C   UNL     1      48.765   6.649  15.418  0.00  0.00    +0.000 C 
ATOM     12  C   UNL     1      50.134   7.215  14.983  0.00  0.00    +0.000 C 
ATOM     13  C   UNL     1      50.597   7.101  16.447  0.00  0.00    +0.000 C 
ATOM     14  F   UNL     1      51.855   6.644  16.630  0.00  0.00    +0.000 F 
ATOM     15  F   UNL     1      50.482   8.234  17.178  0.00  0.00    +0.000 F 
ATOM     16  C   UNL     1      49.476   6.070  16.662  0.00  0.00    +0.000 C 
ENDBRANCH  10  11
ENDBRANCH   8  10
ENDBRANCH   1   4
BRANCH   1  17
ATOM     17  C   UNL     1      43.444   4.541  11.016  0.00  0.00    +0.000 C 
BRANCH  17  22
ATOM     18  C   UNL     1      46.544   2.442   7.493  0.00  0.00    +0.000 A 
ATOM     19  C   UNL     1      46.257   3.768   7.789  0.00  0.00    +0.000 A 
ATOM     20  C   UNL     1      45.346   4.057   8.806  0.00  0.00    +0.000 A 
ATOM     21  C   UNL     1      44.735   3.021   9.508  0.00  0.00    +0.000 A 
ATOM     22  N   UNL     1      43.816   3.227  10.501  0.00  0.00    +0.000 N 
ATOM     23  N   UNL     1      45.013   1.735   9.230  0.00  0.00    +0.000 NA
ATOM     24  C   UNL     1      45.904   1.468   8.237  0.00  0.00    +0.000 A 
ATOM     25  H   UNL     1      43.466   2.385  10.947  0.00  0.00    +0.000 HD
BRANCH  18  27
ATOM     26  N   UNL     1      48.212   1.823   5.616  0.00  0.00    +0.000 NA
ATOM     27  C   UNL     1      47.460   2.095   6.456  0.00  0.00    +0.000 C 
ENDBRANCH  18  27
ENDBRANCH  17  22
ENDBRANCH   1  17
TORSDOF 6
ENDMDL
MODEL 3
REMARK VINA RESULT:    -7.708      3.935      7.792
REMARK INTER + INTRA:         -11.534
REMARK INTER:                 -10.543
REMARK INTRA:                  -0.990
REMARK UNBOUND:                -1.122
REMARK  Name = 
REMARK  6 active torsions:
REMARK  status: ('A' for Active; 'I' for Inactive)
REMARK    1  A    between atoms: C_2  and  C_3
REMARK    2  A    between atoms: N_7  and  C_8
REMARK    3  A    between atoms: C_8  and  C_9
REMARK    4  A    between atoms: C_9  and  C_12
REMARK    5  A    between atoms: C_16  and  O_17
REMARK    6  A    between atoms: O_17  and  C_18
REMARK                            x       y       z     vdW  Elec       q    Type
REMARK                         _______ _______ _______ _____ _____    ______ ____
ROOT
ATOM      1  C   UNL     1      45.363   6.753  11.921  0.00  0.00    +0.000 C 
ATOM      2  F   UNL     1      45.020   7.344  13.104  0.00  0.00    +0.000 F 
ATOM      3  F   UNL     1      44.943   7.619  10.950  0.00  0.00    +0.000 F 
ENDROOT
BRANCH   1   4
ATOM      4  C   UNL     1      44.744   5.376  11.766  0.00  0.00    +0.000 A 
ATOM      5  C   UNL     1      43.920   4.844  12.767  0.00  0.00    +0.000 A 
ATOM      6  C   UNL     1      43.295   3.609  12.587  0.00  0.00    +0.000 A 
ATOM      7  C   UNL     1      43.488   2.884  11.407  0.00  0.00    +0.000 A 
ATOM      8  C   UNL     1      44.314   3.396  10.409  0.00  0.00    +0.000 A 
ATOM      9  C   UNL     1      44.933   4.636  10.588  0.00  0.00    +0.000 A 
BRANCH   8  10
ATOM     10  O   UNL     1      44.550   2.802   9.195  0.00  0.00    +0.000 OA
BRANCH  10  11
ATOM     11  C   UNL     1      45.881   2.817   8.639  0.00  0.00    +0.000 C 
ATOM     12  C   UNL     1      46.047   3.411   7.223  0.00  0.00    +0.000 C 
ATOM     13  C   UNL     1      46.964   2.222   6.880  0.00  0.00    +0.000 C 
ATOM     14  F   UNL     1      46.790   1.681   5.654  0.00  0.00    +0.000 F 
ATOM     15  F   UNL     1      48.289   2.458   7.018  0.00  0.00    +0.000 F 
ATOM     16  C   UNL     1      46.315   1.457   8.045  0.00  0.00    +0.000 C 
ENDBRANCH  10  11
ENDBRANCH   8  10
ENDBRANCH   1   4
BRANCH   1  17
ATOM     17  C   UNL     1      46.905   6.636  11.850  0.00  0.00    +0.000 C 
BRANCH  17  22
ATOM     18  C   UNL     1      48.077   4.666  16.452  0.00  0.00    +0.000 A 
ATOM     19  C   UNL     1      47.310   4.166  15.408  0.00  0.00    +0.000 A 
ATOM     20  C   UNL     1      47.142   4.936  14.256  0.00  0.00    +0.000 A 
ATOM     21  C   UNL     1      47.737   6.192  14.166  0.00  0.00    +0.000 A 
ATOM     22  N   UNL     1      47.598   7.011  13.079  0.00  0.00    +0.000 N 
ATOM     23  N   UNL     1      48.486   6.680  15.171  0.00  0.00    +0.000 NA
ATOM     24  C   UNL     1      48.643   5.918  16.286  0.00  0.00    +0.000 A 
ATOM     25  H   UNL     1      48.105   7.890  13.132  0.00  0.00    +0.000 HD
BRANCH  18  27
ATOM     26  N   UNL     1      48.420   3.309  18.627  0.00  0.00    +0.000 NA
ATOM     27  C   UNL     1      48.271   3.923  17.653  0.00  0.00    +0.000 C 
ENDBRANCH  18  27
ENDBRANCH  17  22
ENDBRANCH   1  17
TORSDOF 6
ENDMDL
MODEL 4
REMARK VINA RESULT:    -7.442      3.147      4.129
REMARK INTER + INTRA:         -11.174
REMARK INTER:                 -10.278
REMARK INTRA:                  -0.897
REMARK UNBOUND:                -1.122
REMARK  Name = 
REMARK  6 active torsions:
REMARK  status: ('A' for Active; 'I' for Inactive)
REMARK    1  A    between atoms: C_2  and  C_3
REMARK    2  A    between atoms: N_7  and  C_8
REMARK    3  A    between atoms: C_8  and  C_9
REMARK    4  A    between atoms: C_9  and  C_12
REMARK    5  A    between atoms: C_16  and  O_17
REMARK    6  A    between atoms: O_17  and  C_18
REMARK                            x       y       z     vdW  Elec       q    Type
REMARK                         _______ _______ _______ _____ _____    ______ ____
ROOT
ATOM      1  C   UNL     1      44.140   5.480  12.239  0.00  0.00    +0.000 C 
ATOM      2  F   UNL     1      43.134   5.376  13.157  0.00  0.00    +0.000 F 
ATOM      3  F   UNL     1      45.079   4.565  12.627  0.00  0.00    +0.000 F 
ENDROOT
BRANCH   1   4
ATOM      4  C   UNL     1      44.708   6.886  12.165  0.00  0.00    +0.000 A 
ATOM      5  C   UNL     1      44.107   7.859  11.355  0.00  0.00    +0.000 A 
ATOM      6  C   UNL     1      44.591   9.169  11.347  0.00  0.00    +0.000 A 
ATOM      7  C   UNL     1      45.683   9.525  12.144  0.00  0.00    +0.000 A 
ATOM      8  C   UNL     1      46.296   8.565  12.945  0.00  0.00    +0.000 A 
ATOM      9  C   UNL     1      45.807   7.255  12.958  0.00  0.00    +0.000 A 
BRANCH   8  10
ATOM     10  O   UNL     1      47.345   8.798  13.798  0.00  0.00    +0.000 OA
BRANCH  10  11
ATOM     11  C   UNL     1      48.669   9.003  13.264  0.00  0.00    +0.000 C 
ATOM     12  C   UNL     1      48.814   9.023  11.727  0.00  0.00    +0.000 C 
ATOM     13  C   UNL     1      50.065   8.138  11.877  0.00  0.00    +0.000 C 
ATOM     14  F   UNL     1      50.189   7.140  10.974  0.00  0.00    +0.000 F 
ATOM     15  F   UNL     1      51.243   8.803  11.889  0.00  0.00    +0.000 F 
ATOM     16  C   UNL     1      49.537   7.723  13.260  0.00  0.00    +0.000 C 
ENDBRANCH  10  11
ENDBRANCH   8  10
ENDBRANCH   1   4
BRANCH   1  17
ATOM     17  C   UNL     1      43.592   5.072  10.849  0.00  0.00    +0.000 C 
BRANCH  17  22
ATOM     18  C   UNL     1      46.623   2.610   7.505  0.00  0.00    +0.000 A 
ATOM     19  C   UNL     1      46.372   3.963   7.692  0.00  0.00    +0.000 A 
ATOM     20  C   UNL     1      45.473   4.359   8.684  0.00  0.00    +0.000 A 
ATOM     21  C   UNL     1      44.837   3.400   9.469  0.00  0.00    +0.000 A 
ATOM     22  N   UNL     1      43.928   3.711  10.443  0.00  0.00    +0.000 N 
ATOM     23  N   UNL     1      45.080   2.088   9.297  0.00  0.00    +0.000 NA
ATOM     24  C   UNL     1      45.960   1.717   8.328  0.00  0.00    +0.000 A 
ATOM     25  H   UNL     1      43.557   2.918  10.957  0.00  0.00    +0.000 HD
BRANCH  18  27
ATOM     26  N   UNL     1      48.270   1.792   5.686  0.00  0.00    +0.000 NA
ATOM     27  C   UNL     1      47.526   2.155   6.499  0.00  0.00    +0.000 C 
ENDBRANCH  18  27
ENDBRANCH  17  22
ENDBRANCH   1  17
TORSDOF 6
ENDMDL
MODEL 5
REMARK VINA RESULT:    -7.290      4.405      8.588
REMARK INTER + INTRA:         -10.969
REMARK INTER:                 -10.251
REMARK INTRA:                  -0.717
REMARK UNBOUND:                -1.122
REMARK  Name = 
REMARK  6 active torsions:
REMARK  status: ('A' for Active; 'I' for Inactive)
REMARK    1  A    between atoms: C_2  and  C_3
REMARK    2  A    between atoms: N_7  and  C_8
REMARK    3  A    between atoms: C_8  and  C_9
REMARK    4  A    between atoms: C_9  and  C_12
REMARK    5  A    between atoms: C_16  and  O_17
REMARK    6  A    between atoms: O_17  and  C_18
REMARK                            x       y       z     vdW  Elec       q    Type
REMARK                         _______ _______ _______ _____ _____    ______ ____
ROOT
ATOM      1  C   UNL     1      46.593   6.146  12.500  0.00  0.00    +0.000 C 
ATOM      2  F   UNL     1      45.974   7.214  13.083  0.00  0.00    +0.000 F 
ATOM      3  F   UNL     1      47.553   6.684  11.689  0.00  0.00    +0.000 F 
ENDROOT
BRANCH   1   4
ATOM      4  C   UNL     1      45.623   5.267  11.732  0.00  0.00    +0.000 A 
ATOM      5  C   UNL     1      44.591   4.589  12.397  0.00  0.00    +0.000 A 
ATOM      6  C   UNL     1      43.659   3.840  11.676  0.00  0.00    +0.000 A 
ATOM      7  C   UNL     1      43.744   3.754  10.283  0.00  0.00    +0.000 A 
ATOM      8  C   UNL     1      44.771   4.414   9.612  0.00  0.00    +0.000 A 
ATOM      9  C   UNL     1      45.700   5.169  10.334  0.00  0.00    +0.000 A 
BRANCH   8  10
ATOM     10  O   UNL     1      44.939   4.439   8.251  0.00  0.00    +0.000 OA
BRANCH  10  11
ATOM     11  C   UNL     1      45.304   3.231   7.553  0.00  0.00    +0.000 C 
ATOM     12  C   UNL     1      46.123   2.184   8.337  0.00  0.00    +0.000 C 
ATOM     13  C   UNL     1      47.018   2.017   7.095  0.00  0.00    +0.000 C 
ATOM     14  F   UNL     1      48.343   1.913   7.336  0.00  0.00    +0.000 F 
ATOM     15  F   UNL     1      46.687   0.990   6.279  0.00  0.00    +0.000 F 
ATOM     16  C   UNL     1      46.532   3.400   6.629  0.00  0.00    +0.000 C 
ENDBRANCH  10  11
ENDBRANCH   8  10
ENDBRANCH   1   4
BRANCH   1  17
ATOM     17  C   UNL     1      47.286   5.308  13.603  0.00  0.00    +0.000 C 
BRANCH  17  22
ATOM     18  C   UNL     1      48.336   4.878  18.617  0.00  0.00    +0.000 A 
ATOM     19  C   UNL     1      47.695   4.016  17.737  0.00  0.00    +0.000 A 
ATOM     20  C   UNL     1      47.529   4.401  16.406  0.00  0.00    +0.000 A 
ATOM     21  C   UNL     1      48.001   5.639  15.976  0.00  0.00    +0.000 A 
ATOM     22  N   UNL     1      47.854   6.094  14.694  0.00  0.00    +0.000 N 
ATOM     23  N   UNL     1      48.628   6.476  16.822  0.00  0.00    +0.000 NA
ATOM     24  C   UNL     1      48.784   6.087  18.116  0.00  0.00    +0.000 A 
ATOM     25  H   UNL     1      48.265   7.003  14.508  0.00  0.00    +0.000 HD
BRANCH  18  27
ATOM     26  N   UNL     1      48.687   4.257  21.103  0.00  0.00    +0.000 NA
ATOM     27  C   UNL     1      48.522   4.534  19.989  0.00  0.00    +0.000 C 
ENDBRANCH  18  27
ENDBRANCH  17  22
ENDBRANCH   1  17
TORSDOF 6
ENDMDL
MODEL 6
REMARK VINA RESULT:    -6.891      3.155      4.241
REMARK INTER + INTRA:         -10.430
REMARK INTER:                  -9.460
REMARK INTRA:                  -0.970
REMARK UNBOUND:                -1.122
REMARK  Name = 
REMARK  6 active torsions:
REMARK  status: ('A' for Active; 'I' for Inactive)
REMARK    1  A    between atoms: C_2  and  C_3
REMARK    2  A    between atoms: N_7  and  C_8
REMARK    3  A    between atoms: C_8  and  C_9
REMARK    4  A    between atoms: C_9  and  C_12
REMARK    5  A    between atoms: C_16  and  O_17
REMARK    6  A    between atoms: O_17  and  C_18
REMARK                            x       y       z     vdW  Elec       q    Type
REMARK                         _______ _______ _______ _____ _____    ______ ____
ROOT
ATOM      1  C   UNL     1      43.396   5.902  12.171  0.00  0.00    +0.000 C 
ATOM      2  F   UNL     1      43.074   7.172  11.786  0.00  0.00    +0.000 F 
ATOM      3  F   UNL     1      42.511   5.591  13.166  0.00  0.00    +0.000 F 
ENDROOT
BRANCH   1   4
ATOM      4  C   UNL     1      44.837   5.790  12.633  0.00  0.00    +0.000 A 
ATOM      5  C   UNL     1      45.255   4.706  13.419  0.00  0.00    +0.000 A 
ATOM      6  C   UNL     1      46.597   4.571  13.779  0.00  0.00    +0.000 A 
ATOM      7  C   UNL     1      47.540   5.516  13.365  0.00  0.00    +0.000 A 
ATOM      8  C   UNL     1      47.136   6.603  12.595  0.00  0.00    +0.000 A 
ATOM      9  C   UNL     1      45.794   6.734  12.228  0.00  0.00    +0.000 A 
BRANCH   8  10
ATOM     10  O   UNL     1      47.968   7.572  12.095  0.00  0.00    +0.000 OA
BRANCH  10  11
ATOM     11  C   UNL     1      49.366   7.569  12.453  0.00  0.00    +0.000 C 
ATOM     12  C   UNL     1      49.820   8.580  13.528  0.00  0.00    +0.000 C 
ATOM     13  C   UNL     1      51.044   8.898  12.650  0.00  0.00    +0.000 C 
ATOM     14  F   UNL     1      51.385  10.203  12.567  0.00  0.00    +0.000 F 
ATOM     15  F   UNL     1      52.172   8.219  12.964  0.00  0.00    +0.000 F 
ATOM     16  C   UNL     1      50.260   8.336  11.452  0.00  0.00    +0.000 C 
ENDBRANCH  10  11
ENDBRANCH   8  10
ENDBRANCH   1   4
BRANCH   1  17
ATOM     17  C   UNL     1      43.161   4.943  10.978  0.00  0.00    +0.000 C 
BRANCH  17  22
ATOM     18  C   UNL     1      46.343   2.470   7.786  0.00  0.00    +0.000 A 
ATOM     19  C   UNL     1      45.677   2.046   8.929  0.00  0.00    +0.000 A 
ATOM     20  C   UNL     1      44.874   2.951   9.624  0.00  0.00    +0.000 A 
ATOM     21  C   UNL     1      44.750   4.262   9.172  0.00  0.00    +0.000 A 
ATOM     22  N   UNL     1      44.000   5.209   9.814  0.00  0.00    +0.000 N 
ATOM     23  N   UNL     1      45.387   4.677   8.063  0.00  0.00    +0.000 NA
ATOM     24  C   UNL     1      46.165   3.784   7.394  0.00  0.00    +0.000 A 
ATOM     25  H   UNL     1      43.976   6.119   9.364  0.00  0.00    +0.000 HD
BRANCH  18  27
ATOM     26  N   UNL     1      47.855   0.862   6.438  0.00  0.00    +0.000 NA
ATOM     27  C   UNL     1      47.183   1.586   7.046  0.00  0.00    +0.000 C 
ENDBRANCH  18  27
ENDBRANCH  17  22
ENDBRANCH   1  17
TORSDOF 6
ENDMDL
MODEL 7
REMARK VINA RESULT:    -6.865      4.358      8.087
REMARK INTER + INTRA:         -10.394
REMARK INTER:                  -9.633
REMARK INTRA:                  -0.761
REMARK UNBOUND:                -1.122
REMARK  Name = 
REMARK  6 active torsions:
REMARK  status: ('A' for Active; 'I' for Inactive)
REMARK    1  A    between atoms: C_2  and  C_3
REMARK    2  A    between atoms: N_7  and  C_8
REMARK    3  A    between atoms: C_8  and  C_9
REMARK    4  A    between atoms: C_9  and  C_12
REMARK    5  A    between atoms: C_16  and  O_17
REMARK    6  A    between atoms: O_17  and  C_18
REMARK                            x       y       z     vdW  Elec       q    Type
REMARK                         _______ _______ _______ _____ _____    ______ ____
ROOT
ATOM      1  C   UNL     1      46.680   4.685  13.538  0.00  0.00    +0.000 C 
ATOM      2  F   UNL     1      47.330   5.855  13.265  0.00  0.00    +0.000 F 
ATOM      3  F   UNL     1      47.573   3.696  13.232  0.00  0.00    +0.000 F 
ENDROOT
BRANCH   1   4
ATOM      4  C   UNL     1      45.387   4.550  12.755  0.00  0.00    +0.000 A 
ATOM      5  C   UNL     1      44.187   5.069  13.260  0.00  0.00    +0.000 A 
ATOM      6  C   UNL     1      43.015   5.005  12.503  0.00  0.00    +0.000 A 
ATOM      7  C   UNL     1      43.023   4.419  11.234  0.00  0.00    +0.000 A 
ATOM      8  C   UNL     1      44.206   3.889  10.725  0.00  0.00    +0.000 A 
ATOM      9  C   UNL     1      45.380   3.960  11.481  0.00  0.00    +0.000 A 
BRANCH   8  10
ATOM     10  O   UNL     1      44.353   3.327   9.483  0.00  0.00    +0.000 OA
BRANCH  10  11
ATOM     11  C   UNL     1      45.670   3.185   8.913  0.00  0.00    +0.000 C 
ATOM     12  C   UNL     1      45.872   3.697   7.470  0.00  0.00    +0.000 C 
ATOM     13  C   UNL     1      46.663   2.411   7.171  0.00  0.00    +0.000 C 
ATOM     14  F   UNL     1      46.418   1.836   5.972  0.00  0.00    +0.000 F 
ATOM     15  F   UNL     1      48.007   2.520   7.283  0.00  0.00    +0.000 F 
ATOM     16  C   UNL     1      45.959   1.764   8.376  0.00  0.00    +0.000 C 
ENDBRANCH  10  11
ENDBRANCH   8  10
ENDBRANCH   1   4
BRANCH   1  17
ATOM     17  C   UNL     1      46.373   4.626  15.055  0.00  0.00    +0.000 C 
BRANCH  17  22
ATOM     18  C   UNL     1      50.395   2.259  17.212  0.00  0.00    +0.000 A 
ATOM     19  C   UNL     1      49.333   1.766  16.465  0.00  0.00    +0.000 A 
ATOM     20  C   UNL     1      48.353   2.650  16.009  0.00  0.00    +0.000 A 
ATOM     21  C   UNL     1      48.447   4.007  16.308  0.00  0.00    +0.000 A 
ATOM     22  N   UNL     1      47.514   4.927  15.915  0.00  0.00    +0.000 N 
ATOM     23  N   UNL     1      49.476   4.491  17.026  0.00  0.00    +0.000 NA
ATOM     24  C   UNL     1      50.424   3.619  17.462  0.00  0.00    +0.000 A 
ATOM     25  H   UNL     1      47.715   5.887  16.178  0.00  0.00    +0.000 HD
BRANCH  18  27
ATOM     26  N   UNL     1      52.250   0.703  18.122  0.00  0.00    +0.000 NA
ATOM     27  C   UNL     1      51.416   1.396  17.709  0.00  0.00    +0.000 C 
ENDBRANCH  18  27
ENDBRANCH  17  22
ENDBRANCH   1  17
TORSDOF 6
ENDMDL
MODEL 8
REMARK VINA RESULT:    -6.837      4.476      7.626
REMARK INTER + INTRA:         -10.357
REMARK INTER:                  -9.458
REMARK INTRA:                  -0.900
REMARK UNBOUND:                -1.122
REMARK  Name = 
REMARK  6 active torsions:
REMARK  status: ('A' for Active; 'I' for Inactive)
REMARK    1  A    between atoms: C_2  and  C_3
REMARK    2  A    between atoms: N_7  and  C_8
REMARK    3  A    between atoms: C_8  and  C_9
REMARK    4  A    between atoms: C_9  and  C_12
REMARK    5  A    between atoms: C_16  and  O_17
REMARK    6  A    between atoms: O_17  and  C_18
REMARK                            x       y       z     vdW  Elec       q    Type
REMARK                         _______ _______ _______ _____ _____    ______ ____
ROOT
ATOM      1  C   UNL     1      46.194   5.135  13.267  0.00  0.00    +0.000 C 
ATOM      2  F   UNL     1      47.500   4.737  13.270  0.00  0.00    +0.000 F 
ATOM      3  F   UNL     1      45.734   4.875  14.528  0.00  0.00    +0.000 F 
ENDROOT
BRANCH   1   4
ATOM      4  C   UNL     1      45.379   4.422  12.203  0.00  0.00    +0.000 A 
ATOM      5  C   UNL     1      44.346   3.544  12.561  0.00  0.00    +0.000 A 
ATOM      6  C   UNL     1      43.553   2.948  11.579  0.00  0.00    +0.000 A 
ATOM      7  C   UNL     1      43.781   3.216  10.226  0.00  0.00    +0.000 A 
ATOM      8  C   UNL     1      44.811   4.078   9.856  0.00  0.00    +0.000 A 
ATOM      9  C   UNL     1      45.600   4.679  10.841  0.00  0.00    +0.000 A 
BRANCH   8  10
ATOM     10  O   UNL     1      45.109   4.450   8.570  0.00  0.00    +0.000 OA
BRANCH  10  11
ATOM     11  C   UNL     1      45.449   3.444   7.595  0.00  0.00    +0.000 C 
ATOM     12  C   UNL     1      46.152   2.170   8.111  0.00  0.00    +0.000 C 
ATOM     13  C   UNL     1      47.116   2.270   6.915  0.00  0.00    +0.000 C 
ATOM     14  F   UNL     1      48.414   2.009   7.183  0.00  0.00    +0.000 F 
ATOM     15  F   UNL     1      46.781   1.518   5.840  0.00  0.00    +0.000 F 
ATOM     16  C   UNL     1      46.744   3.758   6.810  0.00  0.00    +0.000 C 
ENDBRANCH  10  11
ENDBRANCH   8  10
ENDBRANCH   1   4
BRANCH   1  17
ATOM     17  C   UNL     1      46.137   6.663  13.022  0.00  0.00    +0.000 C 
BRANCH  17  22
ATOM     18  C   UNL     1      50.791   8.714  12.267  0.00  0.00    +0.000 A 
ATOM     19  C   UNL     1      49.996   7.919  11.452  0.00  0.00    +0.000 A 
ATOM     20  C   UNL     1      48.758   7.481  11.927  0.00  0.00    +0.000 A 
ATOM     21  C   UNL     1      48.337   7.840  13.205  0.00  0.00    +0.000 A 
ATOM     22  N   UNL     1      47.148   7.429  13.745  0.00  0.00    +0.000 N 
ATOM     23  N   UNL     1      49.100   8.614  13.997  0.00  0.00    +0.000 NA
ATOM     24  C   UNL     1      50.302   9.034  13.521  0.00  0.00    +0.000 A 
ATOM     25  H   UNL     1      46.952   7.783  14.676  0.00  0.00    +0.000 HD
BRANCH  18  27
ATOM     26  N   UNL     1      53.107   9.546  11.472  0.00  0.00    +0.000 NA
ATOM     27  C   UNL     1      52.067   9.179  11.833  0.00  0.00    +0.000 C 
ENDBRANCH  18  27
ENDBRANCH  17  22
ENDBRANCH   1  17
TORSDOF 6
ENDMDL
MODEL 9
REMARK VINA RESULT:    -6.325      4.246      7.168
REMARK INTER + INTRA:          -9.665
REMARK INTER:                  -8.044
REMARK INTRA:                  -1.622
REMARK UNBOUND:                -1.122
REMARK  Name = 
REMARK  6 active torsions:
REMARK  status: ('A' for Active; 'I' for Inactive)
REMARK    1  A    between atoms: C_2  and  C_3
REMARK    2  A    between atoms: N_7  and  C_8
REMARK    3  A    between atoms: C_8  and  C_9
REMARK    4  A    between atoms: C_9  and  C_12
REMARK    5  A    between atoms: C_16  and  O_17
REMARK    6  A    between atoms: O_17  and  C_18
REMARK                            x       y       z     vdW  Elec       q    Type
REMARK                         _______ _______ _______ _____ _____    ______ ____
ROOT
ATOM      1  C   UNL     1      47.822   9.449  12.227  0.00  0.00    +0.000 C 
ATOM      2  F   UNL     1      48.053  10.122  13.392  0.00  0.00    +0.000 F 
ATOM      3  F   UNL     1      48.582  10.086  11.286  0.00  0.00    +0.000 F 
ENDROOT
BRANCH   1   4
ATOM      4  C   UNL     1      46.350   9.430  11.856  0.00  0.00    +0.000 A 
ATOM      5  C   UNL     1      45.696  10.606  11.465  0.00  0.00    +0.000 A 
ATOM      6  C   UNL     1      44.361  10.569  11.055  0.00  0.00    +0.000 A 
ATOM      7  C   UNL     1      43.661   9.360  11.034  0.00  0.00    +0.000 A 
ATOM      8  C   UNL     1      44.296   8.186  11.431  0.00  0.00    +0.000 A 
ATOM      9  C   UNL     1      45.634   8.223  11.834  0.00  0.00    +0.000 A 
BRANCH   8  10
ATOM     10  O   UNL     1      43.731   6.936  11.417  0.00  0.00    +0.000 OA
BRANCH  10  11
ATOM     11  C   UNL     1      44.532   5.786  11.757  0.00  0.00    +0.000 C 
ATOM     12  C   UNL     1      44.716   4.707  10.668  0.00  0.00    +0.000 C 
ATOM     13  C   UNL     1      44.463   3.637  11.746  0.00  0.00    +0.000 C 
ATOM     14  F   UNL     1      43.683   2.600  11.371  0.00  0.00    +0.000 F 
ATOM     15  F   UNL     1      45.575   3.108  12.306  0.00  0.00    +0.000 F 
ATOM     16  C   UNL     1      43.768   4.725  12.582  0.00  0.00    +0.000 C 
ENDBRANCH  10  11
ENDBRANCH   8  10
ENDBRANCH   1   4
BRANCH   1  17
ATOM     17  C   UNL     1      48.334   7.995  12.379  0.00  0.00    +0.000 C 
BRANCH  17  22
ATOM     18  C   UNL     1      47.533   4.498  16.061  0.00  0.00    +0.000 A 
ATOM     19  C   UNL     1      46.900   4.709  14.843  0.00  0.00    +0.000 A 
ATOM     20  C   UNL     1      47.320   5.764  14.031  0.00  0.00    +0.000 A 
ATOM     21  C   UNL     1      48.359   6.592  14.449  0.00  0.00    +0.000 A 
ATOM     22  N   UNL     1      48.808   7.658  13.718  0.00  0.00    +0.000 N 
ATOM     23  N   UNL     1      48.980   6.389  15.625  0.00  0.00    +0.000 NA
ATOM     24  C   UNL     1      48.562   5.356  16.404  0.00  0.00    +0.000 A 
ATOM     25  H   UNL     1      49.588   8.164  14.126  0.00  0.00    +0.000 HD
BRANCH  18  27
ATOM     26  N   UNL     1      46.823   2.579  17.643  0.00  0.00    +0.000 NA
ATOM     27  C   UNL     1      47.135   3.439  16.930  0.00  0.00    +0.000 C 
ENDBRANCH  18  27
ENDBRANCH  17  22
ENDBRANCH   1  17
TORSDOF 6
ENDMDL
