MODEL 1
REMARK VINA RESULT:    -8.239      0.000      0.000
REMARK INTER + INTRA:         -10.784
REMARK INTER:                 -10.166
REMARK INTRA:                  -0.617
REMARK UNBOUND:                -0.617
REMARK  Name = 
REMARK  5 active torsions:
REMARK  status: ('A' for Active; 'I' for Inactive)
REMARK    1  A    between atoms: C_1  and  C_2
REMARK    2  A    between atoms: C_2  and  O_3
REMARK    3  A    between atoms: C_2  and  C_13
REMARK    4  A    between atoms: O_3  and  C_4
REMARK    5  A    between atoms: C_7  and  C_8
REMARK                            x       y       z     vdW  Elec       q    Type
REMARK                         _______ _______ _______ _____ _____    ______ ____
ROOT
ATOM      1  C   UNL     1      44.428   3.504   9.464  0.00  0.00    +0.000 A 
ATOM      2  C   UNL     1      45.069   4.294   8.516  0.00  0.00    +0.000 A 
ATOM      3  C   UNL     1      46.014   3.714   7.666  0.00  0.00    +0.000 A 
ATOM      4  C   UNL     1      46.294   2.359   7.809  0.00  0.00    +0.000 A 
ATOM      5  N   UNL     1      45.695   1.557   8.730  0.00  0.00    +0.000 NA
ATOM      6  C   UNL     1      44.786   2.158   9.532  0.00  0.00    +0.000 A 
ENDROOT
BRANCH   4   7
ATOM      7  C   UNL     1      47.330   1.717   6.938  0.00  0.00    +0.000 C 
ATOM      8  N   UNL     1      48.369   2.529   6.568  0.00  0.00    +0.000 N 
ATOM      9  O   UNL     1      47.258   0.551   6.572  0.00  0.00    +0.000 OA
ATOM     10  H   UNL     1      48.383   3.494   6.876  0.00  0.00    +0.000 HD
ATOM     11  H   UNL     1      49.092   2.172   5.961  0.00  0.00    +0.000 HD
ENDBRANCH   4   7
BRANCH   1  12
ATOM     12  O   UNL     1      43.524   3.925  10.391  0.00  0.00    +0.000 OA
BRANCH  12  14
ATOM     13  C   UNL     1      42.393   5.486  11.778  0.00  0.00    +0.000 C 
ATOM     14  C   UNL     1      43.646   5.248  10.935  0.00  0.00    +0.000 C 
BRANCH  14  15
ATOM     15  C   UNL     1      44.896   5.349  11.797  0.00  0.00    +0.000 A 
ATOM     16  C   UNL     1      45.041   4.591  12.972  0.00  0.00    +0.000 A 
ATOM     17  C   UNL     1      46.184   4.710  13.767  0.00  0.00    +0.000 A 
ATOM     18  C   UNL     1      47.197   5.594  13.406  0.00  0.00    +0.000 A 
ATOM     19  C   UNL     1      47.061   6.359  12.248  0.00  0.00    +0.000 A 
ATOM     20 CL   UNL     1      48.308   7.459  11.804  0.00  0.00    +0.000 Cl
ATOM     21  C   UNL     1      45.922   6.243  11.449  0.00  0.00    +0.000 A 
ENDBRANCH  14  15
ENDBRANCH  12  14
ENDBRANCH   1  12
TORSDOF 4
ENDMDL
MODEL 2
REMARK VINA RESULT:    -7.881      1.234      1.653
REMARK INTER + INTRA:         -10.341
REMARK INTER:                  -9.801
REMARK INTRA:                  -0.540
REMARK UNBOUND:                -0.617
REMARK  Name = 
REMARK  5 active torsions:
REMARK  status: ('A' for Active; 'I' for Inactive)
REMARK    1  A    between atoms: C_1  and  C_2
REMARK    2  A    between atoms: C_2  and  O_3
REMARK    3  A    between atoms: C_2  and  C_13
REMARK    4  A    between atoms: O_3  and  C_4
REMARK    5  A    between atoms: C_7  and  C_8
REMARK                            x       y       z     vdW  Elec       q    Type
REMARK                         _______ _______ _______ _____ _____    ______ ____
ROOT
ATOM      1  C   UNL     1      44.761   3.479   9.413  0.00  0.00    +0.000 A 
ATOM      2  C   UNL     1      45.297   4.397   8.518  0.00  0.00    +0.000 A 
ATOM      3  C   UNL     1      46.201   3.960   7.545  0.00  0.00    +0.000 A 
ATOM      4  C   UNL     1      46.547   2.614   7.516  0.00  0.00    +0.000 A 
ATOM      5  N   UNL     1      46.051   1.688   8.380  0.00  0.00    +0.000 NA
ATOM      6  C   UNL     1      45.179   2.152   9.305  0.00  0.00    +0.000 A 
ENDROOT
BRANCH   4   7
ATOM      7  C   UNL     1      47.542   2.123   6.509  0.00  0.00    +0.000 C 
ATOM      8  N   UNL     1      47.753   2.952   5.441  0.00  0.00    +0.000 N 
ATOM      9  O   UNL     1      48.125   1.052   6.623  0.00  0.00    +0.000 OA
ATOM     10  H   UNL     1      47.236   3.822   5.374  0.00  0.00    +0.000 HD
ATOM     11  H   UNL     1      48.391   2.675   4.711  0.00  0.00    +0.000 HD
ENDBRANCH   4   7
BRANCH   1  12
ATOM     12  O   UNL     1      43.912   3.751  10.440  0.00  0.00    +0.000 OA
BRANCH  12  14
ATOM     13  C   UNL     1      42.583   5.145  11.830  0.00  0.00    +0.000 C 
ATOM     14  C   UNL     1      43.821   5.096  10.934  0.00  0.00    +0.000 C 
BRANCH  14  15
ATOM     15  C   UNL     1      45.069   5.451  11.727  0.00  0.00    +0.000 A 
ATOM     16  C   UNL     1      45.932   6.482  11.316  0.00  0.00    +0.000 A 
ATOM     17  C   UNL     1      47.088   6.783  12.042  0.00  0.00    +0.000 A 
ATOM     18  C   UNL     1      47.405   6.053  13.185  0.00  0.00    +0.000 A 
ATOM     19  C   UNL     1      46.564   5.022  13.597  0.00  0.00    +0.000 A 
ATOM     20 CL   UNL     1      46.959   4.112  15.004  0.00  0.00    +0.000 Cl
ATOM     21  C   UNL     1      45.406   4.717  12.877  0.00  0.00    +0.000 A 
ENDBRANCH  14  15
ENDBRANCH  12  14
ENDBRANCH   1  12
TORSDOF 4
ENDMDL
MODEL 3
REMARK VINA RESULT:    -7.082      1.429      1.890
REMARK INTER + INTRA:          -9.355
REMARK INTER:                  -9.371
REMARK INTRA:                   0.016
REMARK UNBOUND:                -0.617
REMARK  Name = 
REMARK  5 active torsions:
REMARK  status: ('A' for Active; 'I' for Inactive)
REMARK    1  A    between atoms: C_1  and  C_2
REMARK    2  A    between atoms: C_2  and  O_3
REMARK    3  A    between atoms: C_2  and  C_13
REMARK    4  A    between atoms: O_3  and  C_4
REMARK    5  A    between atoms: C_7  and  C_8
REMARK                            x       y       z     vdW  Elec       q    Type
REMARK                         _______ _______ _______ _____ _____    ______ ____
ROOT
ATOM      1  C   UNL     1      44.650   3.764   9.433  0.00  0.00    +0.000 A 
ATOM      2  C   UNL     1      45.500   4.510   8.625  0.00  0.00    +0.000 A 
ATOM      3  C   UNL     1      46.389   3.850   7.772  0.00  0.00    +0.000 A 
ATOM      4  C   UNL     1      46.403   2.460   7.772  0.00  0.00    +0.000 A 
ATOM      5  N   UNL     1      45.594   1.697   8.555  0.00  0.00    +0.000 NA
ATOM      6  C   UNL     1      44.748   2.375   9.365  0.00  0.00    +0.000 A 
ENDROOT
BRANCH   4   7
ATOM      7  C   UNL     1      47.372   1.725   6.896  0.00  0.00    +0.000 C 
ATOM      8  N   UNL     1      48.427   2.467   6.439  0.00  0.00    +0.000 N 
ATOM      9  O   UNL     1      47.233   0.546   6.600  0.00  0.00    +0.000 OA
ATOM     10  H   UNL     1      48.496   3.446   6.691  0.00  0.00    +0.000 HD
ATOM     11  H   UNL     1      49.106   2.045   5.824  0.00  0.00    +0.000 HD
ENDBRANCH   4   7
BRANCH   1  12
ATOM     12  O   UNL     1      43.766   4.251  10.346  0.00  0.00    +0.000 OA
BRANCH  12  14
ATOM     13  C   UNL     1      45.084   3.269  12.061  0.00  0.00    +0.000 C 
ATOM     14  C   UNL     1      44.204   4.465  11.697  0.00  0.00    +0.000 C 
BRANCH  14  15
ATOM     15  C   UNL     1      44.996   5.760  11.794  0.00  0.00    +0.000 A 
ATOM     16  C   UNL     1      46.357   5.764  12.150  0.00  0.00    +0.000 A 
ATOM     17  C   UNL     1      47.067   6.963  12.258  0.00  0.00    +0.000 A 
ATOM     18  C   UNL     1      46.429   8.177  12.022  0.00  0.00    +0.000 A 
ATOM     19  C   UNL     1      45.078   8.188  11.678  0.00  0.00    +0.000 A 
ATOM     20 CL   UNL     1      44.284   9.689  11.393  0.00  0.00    +0.000 Cl
ATOM     21  C   UNL     1      44.363   6.993  11.566  0.00  0.00    +0.000 A 
ENDBRANCH  14  15
ENDBRANCH  12  14
ENDBRANCH   1  12
TORSDOF 4
ENDMDL
MODEL 4
REMARK VINA RESULT:    -6.831      3.766      6.444
REMARK INTER + INTRA:          -9.046
REMARK INTER:                  -8.509
REMARK INTRA:                  -0.537
REMARK UNBOUND:                -0.617
REMARK  Name = 
REMARK  5 active torsions:
REMARK  status: ('A' for Active; 'I' for Inactive)
REMARK    1  A    between atoms: C_1  and  C_2
REMARK    2  A    between atoms: C_2  and  O_3
REMARK    3  A    between atoms: C_2  and  C_13
REMARK    4  A    between atoms: O_3  and  C_4
REMARK    5  A    between atoms: C_7  and  C_8
REMARK                            x       y       z     vdW  Elec       q    Type
REMARK                         _______ _______ _______ _____ _____    ______ ____
ROOT
ATOM      1  C   UNL     1      46.135   5.179  12.034  0.00  0.00    +0.000 A 
ATOM      2  C   UNL     1      47.034   6.098  12.563  0.00  0.00    +0.000 A 
ATOM      3  C   UNL     1      47.551   5.892  13.845  0.00  0.00    +0.000 A 
ATOM      4  C   UNL     1      47.134   4.774  14.559  0.00  0.00    +0.000 A 
ATOM      5  N   UNL     1      46.249   3.859  14.078  0.00  0.00    +0.000 NA
ATOM      6  C   UNL     1      45.773   4.095  12.833  0.00  0.00    +0.000 A 
ENDROOT
BRANCH   4   7
ATOM      7  C   UNL     1      47.641   4.546  15.950  0.00  0.00    +0.000 C 
ATOM      8  N   UNL     1      46.842   3.768  16.744  0.00  0.00    +0.000 N 
ATOM      9  O   UNL     1      48.692   5.024  16.358  0.00  0.00    +0.000 OA
ATOM     10  H   UNL     1      45.970   3.407  16.375  0.00  0.00    +0.000 HD
ATOM     11  H   UNL     1      47.108   3.592  17.701  0.00  0.00    +0.000 HD
ENDBRANCH   4   7
BRANCH   1  12
ATOM     12  O   UNL     1      45.510   5.261  10.829  0.00  0.00    +0.000 OA
BRANCH  12  14
ATOM     13  C   UNL     1      43.404   4.602   9.950  0.00  0.00    +0.000 C 
ATOM     14  C   UNL     1      44.803   4.116  10.329  0.00  0.00    +0.000 C 
BRANCH  14  15
ATOM     15  C   UNL     1      45.517   3.546   9.113  0.00  0.00    +0.000 A 
ATOM     16  C   UNL     1      45.958   4.374   8.065  0.00  0.00    +0.000 A 
ATOM     17  C   UNL     1      46.593   3.834   6.943  0.00  0.00    +0.000 A 
ATOM     18  C   UNL     1      46.790   2.459   6.845  0.00  0.00    +0.000 A 
ATOM     19  C   UNL     1      46.349   1.627   7.872  0.00  0.00    +0.000 A 
ATOM     20 CL   UNL     1      46.583  -0.074   7.749  0.00  0.00    +0.000 Cl
ATOM     21  C   UNL     1      45.715   2.160   8.997  0.00  0.00    +0.000 A 
ENDBRANCH  14  15
ENDBRANCH  12  14
ENDBRANCH   1  12
TORSDOF 4
ENDMDL
MODEL 5
REMARK VINA RESULT:    -6.141      4.228      6.683
REMARK INTER + INTRA:          -8.195
REMARK INTER:                  -7.680
REMARK INTRA:                  -0.515
REMARK UNBOUND:                -0.617
REMARK  Name = 
REMARK  5 active torsions:
REMARK  status: ('A' for Active; 'I' for Inactive)
REMARK    1  A    between atoms: C_1  and  C_2
REMARK    2  A    between atoms: C_2  and  O_3
REMARK    3  A    between atoms: C_2  and  C_13
REMARK    4  A    between atoms: O_3  and  C_4
REMARK    5  A    between atoms: C_7  and  C_8
REMARK                            x       y       z     vdW  Elec       q    Type
REMARK                         _______ _______ _______ _____ _____    ______ ____
ROOT
ATOM      1  C   UNL     1      45.443   6.226  11.818  0.00  0.00    +0.000 A 
ATOM      2  C   UNL     1      46.628   5.765  12.381  0.00  0.00    +0.000 A 
ATOM      3  C   UNL     1      47.398   6.631  13.162  0.00  0.00    +0.000 A 
ATOM      4  C   UNL     1      46.958   7.938  13.337  0.00  0.00    +0.000 A 
ATOM      5  N   UNL     1      45.811   8.428  12.795  0.00  0.00    +0.000 NA
ATOM      6  C   UNL     1      45.094   7.556  12.047  0.00  0.00    +0.000 A 
ENDROOT
BRANCH   4   7
ATOM      7  C   UNL     1      47.782   8.900  14.138  0.00  0.00    +0.000 C 
ATOM      8  N   UNL     1      47.450   8.994  15.463  0.00  0.00    +0.000 N 
ATOM      9  O   UNL     1      48.686   9.565  13.648  0.00  0.00    +0.000 OA
ATOM     10  H   UNL     1      46.682   8.440  15.826  0.00  0.00    +0.000 HD
ATOM     11  H   UNL     1      47.945   9.640  16.058  0.00  0.00    +0.000 HD
ENDBRANCH   4   7
BRANCH   1  12
ATOM     12  O   UNL     1      44.611   5.527  10.999  0.00  0.00    +0.000 OA
BRANCH  12  14
ATOM     13  C   UNL     1      43.315   3.537  11.038  0.00  0.00    +0.000 C 
ATOM     14  C   UNL     1      44.733   4.098  10.933  0.00  0.00    +0.000 C 
BRANCH  14  15
ATOM     15  C   UNL     1      45.374   3.686   9.617  0.00  0.00    +0.000 A 
ATOM     16  C   UNL     1      45.702   4.634   8.631  0.00  0.00    +0.000 A 
ATOM     17  C   UNL     1      46.270   4.239   7.416  0.00  0.00    +0.000 A 
ATOM     18  C   UNL     1      46.511   2.892   7.162  0.00  0.00    +0.000 A 
ATOM     19  C   UNL     1      46.181   1.941   8.127  0.00  0.00    +0.000 A 
ATOM     20 CL   UNL     1      46.470   0.274   7.812  0.00  0.00    +0.000 Cl
ATOM     21  C   UNL     1      45.616   2.329   9.344  0.00  0.00    +0.000 A 
ENDBRANCH  14  15
ENDBRANCH  12  14
ENDBRANCH   1  12
TORSDOF 4
ENDMDL
MODEL 6
REMARK VINA RESULT:    -5.959      4.127      6.539
REMARK INTER + INTRA:          -7.970
REMARK INTER:                  -7.481
REMARK INTRA:                  -0.489
REMARK UNBOUND:                -0.617
REMARK  Name = 
REMARK  5 active torsions:
REMARK  status: ('A' for Active; 'I' for Inactive)
REMARK    1  A    between atoms: C_1  and  C_2
REMARK    2  A    between atoms: C_2  and  O_3
REMARK    3  A    between atoms: C_2  and  C_13
REMARK    4  A    between atoms: O_3  and  C_4
REMARK    5  A    between atoms: C_7  and  C_8
REMARK                            x       y       z     vdW  Elec       q    Type
REMARK                         _______ _______ _______ _____ _____    ______ ____
ROOT
ATOM      1  C   UNL     1      46.850   6.397  12.526  0.00  0.00    +0.000 A 
ATOM      2  C   UNL     1      47.534   7.536  12.935  0.00  0.00    +0.000 A 
ATOM      3  C   UNL     1      48.264   7.506  14.127  0.00  0.00    +0.000 A 
ATOM      4  C   UNL     1      48.268   6.334  14.875  0.00  0.00    +0.000 A 
ATOM      5  N   UNL     1      47.604   5.204  14.513  0.00  0.00    +0.000 NA
ATOM      6  C   UNL     1      46.910   5.275  13.352  0.00  0.00    +0.000 A 
ENDROOT
BRANCH   4   7
ATOM      7  C   UNL     1      49.010   6.284  16.176  0.00  0.00    +0.000 C 
ATOM      8  N   UNL     1      48.266   6.581  17.287  0.00  0.00    +0.000 N 
ATOM      9  O   UNL     1      50.200   6.004  16.249  0.00  0.00    +0.000 OA
ATOM     10  H   UNL     1      47.289   6.827  17.182  0.00  0.00    +0.000 HD
ATOM     11  H   UNL     1      48.705   6.592  18.194  0.00  0.00    +0.000 HD
ENDBRANCH   4   7
BRANCH   1  12
ATOM     12  O   UNL     1      46.061   6.279  11.424  0.00  0.00    +0.000 OA
BRANCH  12  14
ATOM     13  C   UNL     1      43.693   6.408  11.292  0.00  0.00    +0.000 C 
ATOM     14  C   UNL     1      44.880   5.466  11.494  0.00  0.00    +0.000 C 
BRANCH  14  15
ATOM     15  C   UNL     1      44.909   4.403  10.406  0.00  0.00    +0.000 A 
ATOM     16  C   UNL     1      44.289   3.153  10.584  0.00  0.00    +0.000 A 
ATOM     17  C   UNL     1      44.342   2.177   9.585  0.00  0.00    +0.000 A 
ATOM     18  C   UNL     1      45.023   2.429   8.397  0.00  0.00    +0.000 A 
ATOM     19  C   UNL     1      45.650   3.659   8.213  0.00  0.00    +0.000 A 
ATOM     20 CL   UNL     1      46.500   3.970   6.748  0.00  0.00    +0.000 Cl
ATOM     21  C   UNL     1      45.599   4.640   9.206  0.00  0.00    +0.000 A 
ENDBRANCH  14  15
ENDBRANCH  12  14
ENDBRANCH   1  12
TORSDOF 4
ENDMDL
MODEL 7
REMARK VINA RESULT:    -5.803      4.668      7.099
REMARK INTER + INTRA:          -7.778
REMARK INTER:                  -7.209
REMARK INTRA:                  -0.569
REMARK UNBOUND:                -0.617
REMARK  Name = 
REMARK  5 active torsions:
REMARK  status: ('A' for Active; 'I' for Inactive)
REMARK    1  A    between atoms: C_1  and  C_2
REMARK    2  A    between atoms: C_2  and  O_3
REMARK    3  A    between atoms: C_2  and  C_13
REMARK    4  A    between atoms: O_3  and  C_4
REMARK    5  A    between atoms: C_7  and  C_8
REMARK                            x       y       z     vdW  Elec       q    Type
REMARK                         _______ _______ _______ _____ _____    ______ ____
ROOT
ATOM      1  C   UNL     1      47.277   5.558  14.051  0.00  0.00    +0.000 A 
ATOM      2  C   UNL     1      46.805   4.434  14.718  0.00  0.00    +0.000 A 
ATOM      3  C   UNL     1      47.311   4.125  15.984  0.00  0.00    +0.000 A 
ATOM      4  C   UNL     1      48.286   4.952  16.531  0.00  0.00    +0.000 A 
ATOM      5  N   UNL     1      48.779   6.054  15.905  0.00  0.00    +0.000 NA
ATOM      6  C   UNL     1      48.263   6.318  14.681  0.00  0.00    +0.000 A 
ENDROOT
BRANCH   4   7
ATOM      7  C   UNL     1      48.874   4.626  17.870  0.00  0.00    +0.000 C 
ATOM      8  N   UNL     1      48.090   3.850  18.681  0.00  0.00    +0.000 N 
ATOM      9  O   UNL     1      49.975   5.026  18.225  0.00  0.00    +0.000 OA
ATOM     10  H   UNL     1      47.176   3.554  18.357  0.00  0.00    +0.000 HD
ATOM     11  H   UNL     1      48.410   3.611  19.606  0.00  0.00    +0.000 HD
ENDBRANCH   4   7
BRANCH   1  12
ATOM     12  O   UNL     1      46.924   5.965  12.802  0.00  0.00    +0.000 OA
BRANCH  12  14
ATOM     13  C   UNL     1      45.438   7.500  11.763  0.00  0.00    +0.000 C 
ATOM     14  C   UNL     1      45.535   6.163  12.498  0.00  0.00    +0.000 C 
BRANCH  14  15
ATOM     15  C   UNL     1      45.023   5.032  11.618  0.00  0.00    +0.000 A 
ATOM     16  C   UNL     1      44.186   4.025  12.130  0.00  0.00    +0.000 A 
ATOM     17  C   UNL     1      43.742   2.979  11.317  0.00  0.00    +0.000 A 
ATOM     18  C   UNL     1      44.133   2.916   9.982  0.00  0.00    +0.000 A 
ATOM     19  C   UNL     1      44.971   3.903   9.465  0.00  0.00    +0.000 A 
ATOM     20 CL   UNL     1      45.464   3.824   7.818  0.00  0.00    +0.000 Cl
ATOM     21  C   UNL     1      45.417   4.952  10.272  0.00  0.00    +0.000 A 
ENDBRANCH  14  15
ENDBRANCH  12  14
ENDBRANCH   1  12
TORSDOF 4
ENDMDL
MODEL 8
REMARK VINA RESULT:    -5.782      4.140      6.508
REMARK INTER + INTRA:          -7.752
REMARK INTER:                  -7.241
REMARK INTRA:                  -0.510
REMARK UNBOUND:                -0.617
REMARK  Name = 
REMARK  5 active torsions:
REMARK  status: ('A' for Active; 'I' for Inactive)
REMARK    1  A    between atoms: C_1  and  C_2
REMARK    2  A    between atoms: C_2  and  O_3
REMARK    3  A    between atoms: C_2  and  C_13
REMARK    4  A    between atoms: O_3  and  C_4
REMARK    5  A    between atoms: C_7  and  C_8
REMARK                            x       y       z     vdW  Elec       q    Type
REMARK                         _______ _______ _______ _____ _____    ______ ____
ROOT
ATOM      1  C   UNL     1      45.802   7.132  11.844  0.00  0.00    +0.000 A 
ATOM      2  C   UNL     1      45.756   8.458  12.257  0.00  0.00    +0.000 A 
ATOM      3  C   UNL     1      46.644   8.901  13.241  0.00  0.00    +0.000 A 
ATOM      4  C   UNL     1      47.539   7.989  13.789  0.00  0.00    +0.000 A 
ATOM      5  N   UNL     1      47.607   6.682  13.418  0.00  0.00    +0.000 NA
ATOM      6  C   UNL     1      46.731   6.294  12.461  0.00  0.00    +0.000 A 
ENDROOT
BRANCH   4   7
ATOM      7  C   UNL     1      48.477   8.425  14.873  0.00  0.00    +0.000 C 
ATOM      8  N   UNL     1      47.904   8.616  16.102  0.00  0.00    +0.000 N 
ATOM      9  O   UNL     1      49.672   8.607  14.680  0.00  0.00    +0.000 OA
ATOM     10  H   UNL     1      46.907   8.473  16.215  0.00  0.00    +0.000 HD
ATOM     11  H   UNL     1      48.470   8.933  16.873  0.00  0.00    +0.000 HD
ENDBRANCH   4   7
BRANCH   1  12
ATOM     12  O   UNL     1      44.980   6.537  10.937  0.00  0.00    +0.000 OA
BRANCH  12  14
ATOM     13  C   UNL     1      42.826   5.623  11.343  0.00  0.00    +0.000 C 
ATOM     14  C   UNL     1      44.322   5.311  11.289  0.00  0.00    +0.000 C 
BRANCH  14  15
ATOM     15  C   UNL     1      44.606   4.243  10.244  0.00  0.00    +0.000 A 
ATOM     16  C   UNL     1      44.125   2.929  10.387  0.00  0.00    +0.000 A 
ATOM     17  C   UNL     1      44.413   1.951   9.430  0.00  0.00    +0.000 A 
ATOM     18  C   UNL     1      45.193   2.267   8.321  0.00  0.00    +0.000 A 
ATOM     19  C   UNL     1      45.685   3.562   8.173  0.00  0.00    +0.000 A 
ATOM     20 CL   UNL     1      46.658   3.953   6.808  0.00  0.00    +0.000 Cl
ATOM     21  C   UNL     1      45.399   4.545   9.124  0.00  0.00    +0.000 A 
ENDBRANCH  14  15
ENDBRANCH  12  14
ENDBRANCH   1  12
TORSDOF 4
ENDMDL
MODEL 9
REMARK VINA RESULT:    -5.693      3.494      5.271
REMARK INTER + INTRA:          -7.641
REMARK INTER:                  -7.003
REMARK INTRA:                  -0.638
REMARK UNBOUND:                -0.617
REMARK  Name = 
REMARK  5 active torsions:
REMARK  status: ('A' for Active; 'I' for Inactive)
REMARK    1  A    between atoms: C_1  and  C_2
REMARK    2  A    between atoms: C_2  and  O_3
REMARK    3  A    between atoms: C_2  and  C_13
REMARK    4  A    between atoms: O_3  and  C_4
REMARK    5  A    between atoms: C_7  and  C_8
REMARK                            x       y       z     vdW  Elec       q    Type
REMARK                         _______ _______ _______ _____ _____    ______ ____
ROOT
ATOM      1  C   UNL     1      46.515   6.155  12.068  0.00  0.00    +0.000 A 
ATOM      2  C   UNL     1      46.027   6.110  10.767  0.00  0.00    +0.000 A 
ATOM      3  C   UNL     1      45.199   5.052  10.382  0.00  0.00    +0.000 A 
ATOM      4  C   UNL     1      44.902   4.066  11.316  0.00  0.00    +0.000 A 
ATOM      5  N   UNL     1      45.368   4.071  12.594  0.00  0.00    +0.000 NA
ATOM      6  C   UNL     1      46.166   5.113  12.926  0.00  0.00    +0.000 A 
ENDROOT
BRANCH   4   7
ATOM      7  C   UNL     1      44.048   2.899  10.921  0.00  0.00    +0.000 C 
ATOM      8  N   UNL     1      44.520   2.156   9.873  0.00  0.00    +0.000 N 
ATOM      9  O   UNL     1      42.997   2.627  11.487  0.00  0.00    +0.000 OA
ATOM     10  H   UNL     1      45.385   2.425   9.419  0.00  0.00    +0.000 HD
ATOM     11  H   UNL     1      43.985   1.370   9.537  0.00  0.00    +0.000 HD
ENDBRANCH   4   7
BRANCH   1  12
ATOM     12  O   UNL     1      47.364   7.086  12.581  0.00  0.00    +0.000 OA
BRANCH  12  14
ATOM     13  C   UNL     1      47.956   8.558  14.350  0.00  0.00    +0.000 C 
ATOM     14  C   UNL     1      46.834   8.141  13.399  0.00  0.00    +0.000 C 
BRANCH  14  15
ATOM     15  C   UNL     1      46.406   9.314  12.530  0.00  0.00    +0.000 A 
ATOM     16  C   UNL     1      47.346  10.216  12.001  0.00  0.00    +0.000 A 
ATOM     17  C   UNL     1      46.938  11.303  11.223  0.00  0.00    +0.000 A 
ATOM     18  C   UNL     1      45.585  11.513  10.970  0.00  0.00    +0.000 A 
ATOM     19  C   UNL     1      44.643  10.632  11.498  0.00  0.00    +0.000 A 
ATOM     20 CL   UNL     1      42.969  10.894  11.194  0.00  0.00    +0.000 Cl
ATOM     21  C   UNL     1      45.044   9.542  12.274  0.00  0.00    +0.000 A 
ENDBRANCH  14  15
ENDBRANCH  12  14
ENDBRANCH   1  12
TORSDOF 4
ENDMDL
