MODEL 1
REMARK VINA RESULT:    -8.869      0.000      0.000
REMARK INTER + INTRA:         -12.331
REMARK INTER:                 -11.462
REMARK INTRA:                  -0.869
REMARK UNBOUND:                -0.869
REMARK  Name = 
REMARK  5 active torsions:
REMARK  status: ('A' for Active; 'I' for Inactive)
REMARK    1  A    between atoms: C_2  and  C_4
REMARK    2  A    between atoms: C_7  and  O_8
REMARK    3  A    between atoms: O_8  and  C_9
REMARK    4  A    between atoms: C_9  and  C_10
REMARK    5  A    between atoms: C_14  and  C_15
REMARK                            x       y       z     vdW  Elec       q    Type
REMARK                         _______ _______ _______ _____ _____    ______ ____
ROOT
ATOM      1  C   UNL     1      44.839   4.712  11.996  0.00  0.00    +0.000 A 
ATOM      2  C   UNL     1      45.469   3.814  12.863  0.00  0.00    +0.000 A 
ATOM      3  C   UNL     1      46.651   4.174  13.502  0.00  0.00    +0.000 A 
ATOM      4  C   UNL     1      47.211   5.436  13.287  0.00  0.00    +0.000 A 
ATOM      5  C   UNL     1      46.609   6.371  12.424  0.00  0.00    +0.000 A 
ATOM      6  C   UNL     1      45.405   5.987  11.803  0.00  0.00    +0.000 A 
ENDROOT
BRANCH   5   7
ATOM      7  C   UNL     1      47.240   7.687  12.149  0.00  0.00    +0.000 A 
ATOM      8  C   UNL     1      46.522   8.895  12.275  0.00  0.00    +0.000 A 
ATOM      9  C   UNL     1      47.116  10.133  12.001  0.00  0.00    +0.000 A 
ATOM     10  C   UNL     1      48.445  10.184  11.606  0.00  0.00    +0.000 A 
ATOM     11  F   UNL     1      49.015  11.370  11.353  0.00  0.00    +0.000 F 
ATOM     12  C   UNL     1      49.174   9.013  11.474  0.00  0.00    +0.000 A 
ATOM     13  F   UNL     1      50.458   9.057  11.091  0.00  0.00    +0.000 F 
ATOM     14  C   UNL     1      48.583   7.778  11.733  0.00  0.00    +0.000 A 
ENDBRANCH   5   7
BRANCH   1  15
ATOM     15  C   UNL     1      43.622   4.288  11.208  0.00  0.00    +0.000 C 
BRANCH  15  16
ATOM     16  O   UNL     1      43.695   4.725   9.847  0.00  0.00    +0.000 OA
BRANCH  16  20
ATOM     17  C   UNL     1      46.424   2.466   7.725  0.00  0.00    +0.000 A 
ATOM     18  C   UNL     1      45.550   1.836   8.614  0.00  0.00    +0.000 A 
ATOM     19  C   UNL     1      44.633   2.607   9.336  0.00  0.00    +0.000 A 
ATOM     20  C   UNL     1      44.622   3.979   9.138  0.00  0.00    +0.000 A 
ATOM     21  N   UNL     1      45.466   4.609   8.293  0.00  0.00    +0.000 NA
ATOM     22  C   UNL     1      46.352   3.846   7.615  0.00  0.00    +0.000 A 
BRANCH  17  24
ATOM     23  N   UNL     1      48.488   2.485   6.445  0.00  0.00    +0.000 N 
ATOM     24  C   UNL     1      47.428   1.758   6.905  0.00  0.00    +0.000 C 
ATOM     25  O   UNL     1      47.341   0.556   6.685  0.00  0.00    +0.000 OA
ATOM     26  H   UNL     1      49.226   1.957   5.996  0.00  0.00    +0.000 HD
ATOM     27  H   UNL     1      48.726   3.395   6.813  0.00  0.00    +0.000 HD
ENDBRANCH  17  24
ENDBRANCH  16  20
ENDBRANCH  15  16
ENDBRANCH   1  15
TORSDOF 5
ENDMDL
MODEL 2
REMARK VINA RESULT:    -8.840      3.286      4.532
REMARK INTER + INTRA:         -12.293
REMARK INTER:                 -11.594
REMARK INTRA:                  -0.700
REMARK UNBOUND:                -0.869
REMARK  Name = 
REMARK  5 active torsions:
REMARK  status: ('A' for Active; 'I' for Inactive)
REMARK    1  A    between atoms: C_2  and  C_4
REMARK    2  A    between atoms: C_7  and  O_8
REMARK    3  A    between atoms: O_8  and  C_9
REMARK    4  A    between atoms: C_9  and  C_10
REMARK    5  A    between atoms: C_14  and  C_15
REMARK                            x       y       z     vdW  Elec       q    Type
REMARK                         _______ _______ _______ _____ _____    ______ ____
ROOT
ATOM      1  C   UNL     1      45.428   5.197  12.063  0.00  0.00    +0.000 A 
ATOM      2  C   UNL     1      45.939   6.346  11.452  0.00  0.00    +0.000 A 
ATOM      3  C   UNL     1      46.967   7.060  12.061  0.00  0.00    +0.000 A 
ATOM      4  C   UNL     1      47.495   6.630  13.281  0.00  0.00    +0.000 A 
ATOM      5  C   UNL     1      47.011   5.478  13.928  0.00  0.00    +0.000 A 
ATOM      6  C   UNL     1      45.982   4.765  13.283  0.00  0.00    +0.000 A 
ENDROOT
BRANCH   5   7
ATOM      7  C   UNL     1      47.532   5.060  15.255  0.00  0.00    +0.000 A 
ATOM      8  C   UNL     1      48.552   5.778  15.911  0.00  0.00    +0.000 A 
ATOM      9  C   UNL     1      49.051   5.372  17.155  0.00  0.00    +0.000 A 
ATOM     10  C   UNL     1      48.529   4.243  17.769  0.00  0.00    +0.000 A 
ATOM     11  F   UNL     1      49.000   3.861  18.964  0.00  0.00    +0.000 F 
ATOM     12  C   UNL     1      47.526   3.518  17.147  0.00  0.00    +0.000 A 
ATOM     13  F   UNL     1      47.018   2.425  17.734  0.00  0.00    +0.000 F 
ATOM     14  C   UNL     1      47.035   3.911  15.902  0.00  0.00    +0.000 A 
ENDBRANCH   5   7
BRANCH   1  15
ATOM     15  C   UNL     1      44.235   4.483  11.469  0.00  0.00    +0.000 C 
BRANCH  15  16
ATOM     16  O   UNL     1      44.057   4.813  10.088  0.00  0.00    +0.000 OA
BRANCH  16  20
ATOM     17  C   UNL     1      46.465   2.468   7.690  0.00  0.00    +0.000 A 
ATOM     18  C   UNL     1      45.657   1.864   8.657  0.00  0.00    +0.000 A 
ATOM     19  C   UNL     1      44.849   2.663   9.471  0.00  0.00    +0.000 A 
ATOM     20  C   UNL     1      44.876   4.037   9.285  0.00  0.00    +0.000 A 
ATOM     21  N   UNL     1      45.659   4.642   8.364  0.00  0.00    +0.000 NA
ATOM     22  C   UNL     1      46.440   3.850   7.597  0.00  0.00    +0.000 A 
BRANCH  17  24
ATOM     23  N   UNL     1      48.424   2.400   6.256  0.00  0.00    +0.000 N 
ATOM     24  C   UNL     1      47.352   1.728   6.769  0.00  0.00    +0.000 C 
ATOM     25  O   UNL     1      47.163   0.545   6.511  0.00  0.00    +0.000 OA
ATOM     26  H   UNL     1      49.087   1.842   5.732  0.00  0.00    +0.000 HD
ATOM     27  H   UNL     1      48.753   3.274   6.639  0.00  0.00    +0.000 HD
ENDBRANCH  17  24
ENDBRANCH  16  20
ENDBRANCH  15  16
ENDBRANCH   1  15
TORSDOF 5
ENDMDL
MODEL 3
REMARK VINA RESULT:    -8.088      4.207      6.970
REMARK INTER + INTRA:         -11.321
REMARK INTER:                 -10.355
REMARK INTRA:                  -0.966
REMARK UNBOUND:                -0.869
REMARK  Name = 
REMARK  5 active torsions:
REMARK  status: ('A' for Active; 'I' for Inactive)
REMARK    1  A    between atoms: C_2  and  C_4
REMARK    2  A    between atoms: C_7  and  O_8
REMARK    3  A    between atoms: O_8  and  C_9
REMARK    4  A    between atoms: C_9  and  C_10
REMARK    5  A    between atoms: C_14  and  C_15
REMARK                            x       y       z     vdW  Elec       q    Type
REMARK                         _______ _______ _______ _____ _____    ______ ____
ROOT
ATOM      1  C   UNL     1      44.166   5.240  11.315  0.00  0.00    +0.000 A 
ATOM      2  C   UNL     1      43.340   4.337  11.989  0.00  0.00    +0.000 A 
ATOM      3  C   UNL     1      43.293   3.004  11.591  0.00  0.00    +0.000 A 
ATOM      4  C   UNL     1      44.075   2.562  10.520  0.00  0.00    +0.000 A 
ATOM      5  C   UNL     1      44.922   3.438   9.816  0.00  0.00    +0.000 A 
ATOM      6  C   UNL     1      44.963   4.777  10.251  0.00  0.00    +0.000 A 
ENDROOT
BRANCH   5   7
ATOM      7  C   UNL     1      45.705   2.979   8.640  0.00  0.00    +0.000 A 
ATOM      8  C   UNL     1      46.151   3.878   7.649  0.00  0.00    +0.000 A 
ATOM      9  C   UNL     1      46.876   3.439   6.534  0.00  0.00    +0.000 A 
ATOM     10  C   UNL     1      47.177   2.092   6.398  0.00  0.00    +0.000 A 
ATOM     11  F   UNL     1      47.879   1.675   5.336  0.00  0.00    +0.000 F 
ATOM     12  C   UNL     1      46.751   1.186   7.357  0.00  0.00    +0.000 A 
ATOM     13  F   UNL     1      47.038  -0.118   7.230  0.00  0.00    +0.000 F 
ATOM     14  C   UNL     1      46.018   1.616   8.461  0.00  0.00    +0.000 A 
ENDBRANCH   5   7
BRANCH   1  15
ATOM     15  C   UNL     1      44.135   6.710  11.664  0.00  0.00    +0.000 C 
BRANCH  15  16
ATOM     16  O   UNL     1      44.792   6.971  12.909  0.00  0.00    +0.000 OA
BRANCH  16  20
ATOM     17  C   UNL     1      48.788   7.813  12.295  0.00  0.00    +0.000 A 
ATOM     18  C   UNL     1      48.417   6.568  12.810  0.00  0.00    +0.000 A 
ATOM     19  C   UNL     1      47.063   6.291  13.023  0.00  0.00    +0.000 A 
ATOM     20  C   UNL     1      46.130   7.268  12.708  0.00  0.00    +0.000 A 
ATOM     21  N   UNL     1      46.469   8.482  12.221  0.00  0.00    +0.000 NA
ATOM     22  C   UNL     1      47.785   8.732  12.035  0.00  0.00    +0.000 A 
BRANCH  17  24
ATOM     23  N   UNL     1      50.926   7.396  11.221  0.00  0.00    +0.000 N 
ATOM     24  C   UNL     1      50.183   8.215  12.022  0.00  0.00    +0.000 C 
ATOM     25  O   UNL     1      50.643   9.264  12.456  0.00  0.00    +0.000 OA
ATOM     26  H   UNL     1      51.833   7.752  10.943  0.00  0.00    +0.000 HD
ATOM     27  H   UNL     1      50.514   6.675  10.646  0.00  0.00    +0.000 HD
ENDBRANCH  17  24
ENDBRANCH  16  20
ENDBRANCH  15  16
ENDBRANCH   1  15
TORSDOF 5
ENDMDL
MODEL 4
REMARK VINA RESULT:    -8.034      1.742      2.610
REMARK INTER + INTRA:         -11.251
REMARK INTER:                 -10.421
REMARK INTRA:                  -0.830
REMARK UNBOUND:                -0.869
REMARK  Name = 
REMARK  5 active torsions:
REMARK  status: ('A' for Active; 'I' for Inactive)
REMARK    1  A    between atoms: C_2  and  C_4
REMARK    2  A    between atoms: C_7  and  O_8
REMARK    3  A    between atoms: O_8  and  C_9
REMARK    4  A    between atoms: C_9  and  C_10
REMARK    5  A    between atoms: C_14  and  C_15
REMARK                            x       y       z     vdW  Elec       q    Type
REMARK                         _______ _______ _______ _____ _____    ______ ____
ROOT
ATOM      1  C   UNL     1      44.844   6.164  11.511  0.00  0.00    +0.000 A 
ATOM      2  C   UNL     1      44.053   7.303  11.343  0.00  0.00    +0.000 A 
ATOM      3  C   UNL     1      44.584   8.564  11.596  0.00  0.00    +0.000 A 
ATOM      4  C   UNL     1      45.911   8.698  12.015  0.00  0.00    +0.000 A 
ATOM      5  C   UNL     1      46.742   7.577  12.195  0.00  0.00    +0.000 A 
ATOM      6  C   UNL     1      46.185   6.314  11.915  0.00  0.00    +0.000 A 
ENDROOT
BRANCH   5   7
ATOM      7  C   UNL     1      48.132   7.718  12.700  0.00  0.00    +0.000 A 
ATOM      8  C   UNL     1      49.130   8.373  11.950  0.00  0.00    +0.000 A 
ATOM      9  C   UNL     1      50.443   8.492  12.423  0.00  0.00    +0.000 A 
ATOM     10  C   UNL     1      50.777   7.964  13.661  0.00  0.00    +0.000 A 
ATOM     11  F   UNL     1      52.031   8.086  14.117  0.00  0.00    +0.000 F 
ATOM     12  C   UNL     1      49.816   7.314  14.420  0.00  0.00    +0.000 A 
ATOM     13  F   UNL     1      50.133   6.801  15.617  0.00  0.00    +0.000 F 
ATOM     14  C   UNL     1      48.511   7.183  13.947  0.00  0.00    +0.000 A 
ENDBRANCH   5   7
BRANCH   1  15
ATOM     15  C   UNL     1      44.243   4.786  11.352  0.00  0.00    +0.000 C 
BRANCH  15  16
ATOM     16  O   UNL     1      43.738   4.581  10.029  0.00  0.00    +0.000 OA
BRANCH  16  20
ATOM     17  C   UNL     1      46.417   2.448   7.721  0.00  0.00    +0.000 A 
ATOM     18  C   UNL     1      45.653   1.783   8.683  0.00  0.00    +0.000 A 
ATOM     19  C   UNL     1      44.753   2.511   9.467  0.00  0.00    +0.000 A 
ATOM     20  C   UNL     1      44.647   3.878   9.256  0.00  0.00    +0.000 A 
ATOM     21  N   UNL     1      45.385   4.542   8.340  0.00  0.00    +0.000 NA
ATOM     22  C   UNL     1      46.257   3.820   7.602  0.00  0.00    +0.000 A 
BRANCH  17  24
ATOM     23  N   UNL     1      48.504   2.496   6.479  0.00  0.00    +0.000 N 
ATOM     24  C   UNL     1      47.392   1.785   6.831  0.00  0.00    +0.000 C 
ATOM     25  O   UNL     1      47.236   0.628   6.460  0.00  0.00    +0.000 OA
ATOM     26  H   UNL     1      49.217   1.982   5.977  0.00  0.00    +0.000 HD
ATOM     27  H   UNL     1      48.789   3.335   6.962  0.00  0.00    +0.000 HD
ENDBRANCH  17  24
ENDBRANCH  16  20
ENDBRANCH  15  16
ENDBRANCH   1  15
TORSDOF 5
ENDMDL
MODEL 5
REMARK VINA RESULT:    -7.901      5.021      7.963
REMARK INTER + INTRA:         -11.079
REMARK INTER:                 -10.297
REMARK INTRA:                  -0.782
REMARK UNBOUND:                -0.869
REMARK  Name = 
REMARK  5 active torsions:
REMARK  status: ('A' for Active; 'I' for Inactive)
REMARK    1  A    between atoms: C_2  and  C_4
REMARK    2  A    between atoms: C_7  and  O_8
REMARK    3  A    between atoms: O_8  and  C_9
REMARK    4  A    between atoms: C_9  and  C_10
REMARK    5  A    between atoms: C_14  and  C_15
REMARK                            x       y       z     vdW  Elec       q    Type
REMARK                         _______ _______ _______ _____ _____    ______ ____
ROOT
ATOM      1  C   UNL     1      45.084   5.520  12.445  0.00  0.00    +0.000 A 
ATOM      2  C   UNL     1      43.694   5.560  12.587  0.00  0.00    +0.000 A 
ATOM      3  C   UNL     1      42.879   4.939  11.647  0.00  0.00    +0.000 A 
ATOM      4  C   UNL     1      43.444   4.267  10.560  0.00  0.00    +0.000 A 
ATOM      5  C   UNL     1      44.838   4.201  10.380  0.00  0.00    +0.000 A 
ATOM      6  C   UNL     1      45.641   4.824  11.355  0.00  0.00    +0.000 A 
ENDROOT
BRANCH   5   7
ATOM      7  C   UNL     1      45.434   3.540   9.190  0.00  0.00    +0.000 A 
ATOM      8  C   UNL     1      45.884   4.281   8.078  0.00  0.00    +0.000 A 
ATOM      9  C   UNL     1      46.432   3.653   6.952  0.00  0.00    +0.000 A 
ATOM     10  C   UNL     1      46.548   2.271   6.926  0.00  0.00    +0.000 A 
ATOM     11  F   UNL     1      47.082   1.672   5.852  0.00  0.00    +0.000 F 
ATOM     12  C   UNL     1      46.114   1.518   8.005  0.00  0.00    +0.000 A 
ATOM     13  F   UNL     1      46.223   0.182   7.984  0.00  0.00    +0.000 F 
ATOM     14  C   UNL     1      45.556   2.137   9.122  0.00  0.00    +0.000 A 
ENDBRANCH   5   7
BRANCH   1  15
ATOM     15  C   UNL     1      45.972   6.290  13.395  0.00  0.00    +0.000 C 
BRANCH  15  16
ATOM     16  O   UNL     1      47.300   5.756  13.425  0.00  0.00    +0.000 OA
BRANCH  16  20
ATOM     17  C   UNL     1      48.353   4.603  17.249  0.00  0.00    +0.000 A 
ATOM     18  C   UNL     1      47.381   3.880  16.553  0.00  0.00    +0.000 A 
ATOM     19  C   UNL     1      47.023   4.279  15.262  0.00  0.00    +0.000 A 
ATOM     20  C   UNL     1      47.654   5.385  14.712  0.00  0.00    +0.000 A 
ATOM     21  N   UNL     1      48.587   6.106  15.372  0.00  0.00    +0.000 NA
ATOM     22  C   UNL     1      48.908   5.709  16.624  0.00  0.00    +0.000 A 
BRANCH  17  24
ATOM     23  N   UNL     1      48.319   3.138  19.185  0.00  0.00    +0.000 N 
ATOM     24  C   UNL     1      48.817   4.273  18.611  0.00  0.00    +0.000 C 
ATOM     25  O   UNL     1      49.650   4.961  19.188  0.00  0.00    +0.000 OA
ATOM     26  H   UNL     1      48.744   2.862  20.062  0.00  0.00    +0.000 HD
ATOM     27  H   UNL     1      47.842   2.423  18.654  0.00  0.00    +0.000 HD
ENDBRANCH  17  24
ENDBRANCH  16  20
ENDBRANCH  15  16
ENDBRANCH   1  15
TORSDOF 5
ENDMDL
MODEL 6
REMARK VINA RESULT:    -7.159      5.360      8.375
REMARK INTER + INTRA:         -10.120
REMARK INTER:                  -9.308
REMARK INTRA:                  -0.812
REMARK UNBOUND:                -0.869
REMARK  Name = 
REMARK  5 active torsions:
REMARK  status: ('A' for Active; 'I' for Inactive)
REMARK    1  A    between atoms: C_2  and  C_4
REMARK    2  A    between atoms: C_7  and  O_8
REMARK    3  A    between atoms: O_8  and  C_9
REMARK    4  A    between atoms: C_9  and  C_10
REMARK    5  A    between atoms: C_14  and  C_15
REMARK                            x       y       z     vdW  Elec       q    Type
REMARK                         _______ _______ _______ _____ _____    ______ ____
ROOT
ATOM      1  C   UNL     1      47.048   7.608  13.208  0.00  0.00    +0.000 A 
ATOM      2  C   UNL     1      46.305   8.776  13.017  0.00  0.00    +0.000 A 
ATOM      3  C   UNL     1      45.218   8.777  12.148  0.00  0.00    +0.000 A 
ATOM      4  C   UNL     1      44.862   7.610  11.467  0.00  0.00    +0.000 A 
ATOM      5  C   UNL     1      45.582   6.412  11.631  0.00  0.00    +0.000 A 
ATOM      6  C   UNL     1      46.666   6.435  12.529  0.00  0.00    +0.000 A 
ENDROOT
BRANCH   5   7
ATOM      7  C   UNL     1      45.238   5.191  10.859  0.00  0.00    +0.000 A 
ATOM      8  C   UNL     1      44.627   4.076  11.468  0.00  0.00    +0.000 A 
ATOM      9  C   UNL     1      44.317   2.920  10.740  0.00  0.00    +0.000 A 
ATOM     10  C   UNL     1      44.606   2.866   9.384  0.00  0.00    +0.000 A 
ATOM     11  F   UNL     1      44.300   1.764   8.686  0.00  0.00    +0.000 F 
ATOM     12  C   UNL     1      45.206   3.948   8.759  0.00  0.00    +0.000 A 
ATOM     13  F   UNL     1      45.488   3.901   7.449  0.00  0.00    +0.000 F 
ATOM     14  C   UNL     1      45.528   5.095   9.483  0.00  0.00    +0.000 A 
ENDBRANCH   5   7
BRANCH   1  15
ATOM     15  C   UNL     1      48.298   7.628  14.057  0.00  0.00    +0.000 C 
BRANCH  15  16
ATOM     16  O   UNL     1      48.789   6.307  14.304  0.00  0.00    +0.000 OA
BRANCH  16  20
ATOM     17  C   UNL     1      48.515   5.409  18.325  0.00  0.00    +0.000 A 
ATOM     18  C   UNL     1      48.930   6.683  17.930  0.00  0.00    +0.000 A 
ATOM     19  C   UNL     1      49.028   6.980  16.567  0.00  0.00    +0.000 A 
ATOM     20  C   UNL     1      48.703   5.991  15.650  0.00  0.00    +0.000 A 
ATOM     21  N   UNL     1      48.311   4.750  16.011  0.00  0.00    +0.000 NA
ATOM     22  C   UNL     1      48.235   4.482  17.334  0.00  0.00    +0.000 A 
BRANCH  17  24
ATOM     23  N   UNL     1      48.474   3.649  19.998  0.00  0.00    +0.000 N 
ATOM     24  C   UNL     1      48.366   4.984  19.732  0.00  0.00    +0.000 C 
ATOM     25  O   UNL     1      48.199   5.797  20.632  0.00  0.00    +0.000 OA
ATOM     26  H   UNL     1      48.497   3.393  20.978  0.00  0.00    +0.000 HD
ATOM     27  H   UNL     1      48.861   2.991  19.337  0.00  0.00    +0.000 HD
ENDBRANCH  17  24
ENDBRANCH  16  20
ENDBRANCH  15  16
ENDBRANCH   1  15
TORSDOF 5
ENDMDL
