MODEL 1
REMARK VINA RESULT:    -9.191      0.000      0.000
REMARK INTER + INTRA:         -12.178
REMARK INTER:                 -11.341
REMARK INTRA:                  -0.838
REMARK UNBOUND:                -0.838
REMARK  Name = 
REMARK  4 active torsions:
REMARK  status: ('A' for Active; 'I' for Inactive)
REMARK    1  A    between atoms: C_2  and  C_4
REMARK    2  A    between atoms: N_8  and  C_9
REMARK    3  A    between atoms: C_9  and  C_10
REMARK    4  A    between atoms: C_14  and  C_15
REMARK                            x       y       z     vdW  Elec       q    Type
REMARK                         _______ _______ _______ _____ _____    ______ ____
ROOT
ATOM      1  C   UNL     1      44.077   4.757  11.512  0.00  0.00    +0.000 C 
ATOM      2  C   UNL     1      42.747   4.820  12.241  0.00  0.00    +0.000 C 
ATOM      3  C   UNL     1      43.044   5.809  11.162  0.00  0.00    +0.000 C 
ENDROOT
BRANCH   1   8
ATOM      4  C   UNL     1      46.581   2.738   7.386  0.00  0.00    +0.000 A 
ATOM      5  C   UNL     1      46.456   4.070   7.775  0.00  0.00    +0.000 A 
ATOM      6  C   UNL     1      45.710   4.380   8.918  0.00  0.00    +0.000 A 
ATOM      7  C   UNL     1      45.117   3.354   9.645  0.00  0.00    +0.000 A 
ATOM      8  N   UNL     1      44.249   3.546  10.711  0.00  0.00    +0.000 N 
ATOM      9  N   UNL     1      45.271   2.059   9.298  0.00  0.00    +0.000 NA
ATOM     10  C   UNL     1      45.978   1.777   8.178  0.00  0.00    +0.000 A 
ATOM     11  H   UNL     1      44.088   2.643  11.144  0.00  0.00    +0.000 HD
BRANCH   4  13
ATOM     12  N   UNL     1      47.135   3.083   5.036  0.00  0.00    +0.000 N 
ATOM     13  C   UNL     1      47.262   2.298   6.148  0.00  0.00    +0.000 C 
ATOM     14  O   UNL     1      47.940   1.279   6.125  0.00  0.00    +0.000 OA
ATOM     15  H   UNL     1      47.696   2.816   4.237  0.00  0.00    +0.000 HD
ATOM     16  H   UNL     1      46.811   4.037   5.086  0.00  0.00    +0.000 HD
ENDBRANCH   4  13
ENDBRANCH   1   8
BRANCH   1  17
ATOM     17  C   UNL     1      45.363   5.193  12.200  0.00  0.00    +0.000 A 
ATOM     18  C   UNL     1      45.962   6.428  11.914  0.00  0.00    +0.000 A 
ATOM     19  C   UNL     1      46.970   6.946  12.727  0.00  0.00    +0.000 A 
ATOM     20  C   UNL     1      47.407   6.229  13.841  0.00  0.00    +0.000 A 
ATOM     21  C   UNL     1      46.883   4.961  14.141  0.00  0.00    +0.000 A 
ATOM     22  C   UNL     1      45.888   4.458  13.280  0.00  0.00    +0.000 A 
BRANCH  21  23
ATOM     23  C   UNL     1      47.285   4.212  15.349  0.00  0.00    +0.000 A 
ATOM     24  N   UNL     1      47.852   2.998  15.188  0.00  0.00    +0.000 NA
ATOM     25  C   UNL     1      48.299   2.389  16.296  0.00  0.00    +0.000 A 
ATOM     26  C   UNL     1      48.201   2.930  17.558  0.00  0.00    +0.000 A 
ATOM     27  C   UNL     1      47.603   4.167  17.621  0.00  0.00    +0.000 A 
ATOM     28  N   UNL     1      47.146   4.827  16.543  0.00  0.00    +0.000 NA
ENDBRANCH  21  23
ENDBRANCH   1  17
TORSDOF 4
ENDMDL
MODEL 2
REMARK VINA RESULT:    -8.584      2.143      3.674
REMARK INTER + INTRA:         -11.429
REMARK INTER:                 -10.364
REMARK INTRA:                  -1.065
REMARK UNBOUND:                -0.838
REMARK  Name = 
REMARK  4 active torsions:
REMARK  status: ('A' for Active; 'I' for Inactive)
REMARK    1  A    between atoms: C_2  and  C_4
REMARK    2  A    between atoms: N_8  and  C_9
REMARK    3  A    between atoms: C_9  and  C_10
REMARK    4  A    between atoms: C_14  and  C_15
REMARK                            x       y       z     vdW  Elec       q    Type
REMARK                         _______ _______ _______ _____ _____    ______ ____
ROOT
ATOM      1  C   UNL     1      43.871   5.089  11.517  0.00  0.00    +0.000 C 
ATOM      2  C   UNL     1      42.444   5.311  11.984  0.00  0.00    +0.000 C 
ATOM      3  C   UNL     1      43.039   6.229  10.967  0.00  0.00    +0.000 C 
ENDROOT
BRANCH   1   8
ATOM      4  C   UNL     1      46.502   2.861   7.582  0.00  0.00    +0.000 A 
ATOM      5  C   UNL     1      46.380   4.211   7.907  0.00  0.00    +0.000 A 
ATOM      6  C   UNL     1      45.595   4.579   9.006  0.00  0.00    +0.000 A 
ATOM      7  C   UNL     1      44.963   3.593   9.755  0.00  0.00    +0.000 A 
ATOM      8  N   UNL     1      44.058   3.842  10.777  0.00  0.00    +0.000 N 
ATOM      9  N   UNL     1      45.114   2.282   9.472  0.00  0.00    +0.000 NA
ATOM     10  C   UNL     1      45.858   1.943   8.392  0.00  0.00    +0.000 A 
ATOM     11  H   UNL     1      43.870   2.961  11.244  0.00  0.00    +0.000 HD
BRANCH   4  13
ATOM     12  N   UNL     1      47.108   3.068   5.228  0.00  0.00    +0.000 N 
ATOM     13  C   UNL     1      47.223   2.359   6.391  0.00  0.00    +0.000 C 
ATOM     14  O   UNL     1      47.924   1.357   6.450  0.00  0.00    +0.000 OA
ATOM     15  H   UNL     1      47.694   2.764   4.462  0.00  0.00    +0.000 HD
ATOM     16  H   UNL     1      46.761   4.015   5.209  0.00  0.00    +0.000 HD
ENDBRANCH   4  13
ENDBRANCH   1   8
BRANCH   1  17
ATOM     17  C   UNL     1      45.047   5.412  12.427  0.00  0.00    +0.000 A 
ATOM     18  C   UNL     1      45.489   4.505  13.401  0.00  0.00    +0.000 A 
ATOM     19  C   UNL     1      46.717   4.674  14.040  0.00  0.00    +0.000 A 
ATOM     20  C   UNL     1      47.526   5.766  13.723  0.00  0.00    +0.000 A 
ATOM     21  C   UNL     1      47.107   6.736  12.798  0.00  0.00    +0.000 A 
ATOM     22  C   UNL     1      45.848   6.547  12.196  0.00  0.00    +0.000 A 
BRANCH  21  23
ATOM     23  C   UNL     1      47.972   7.865  12.401  0.00  0.00    +0.000 A 
ATOM     24  N   UNL     1      49.283   7.624  12.195  0.00  0.00    +0.000 NA
ATOM     25  C   UNL     1      50.021   8.645  11.736  0.00  0.00    +0.000 A 
ATOM     26  C   UNL     1      49.514   9.899  11.479  0.00  0.00    +0.000 A 
ATOM     27  C   UNL     1      48.170  10.050  11.724  0.00  0.00    +0.000 A 
ATOM     28  N   UNL     1      47.381   9.058  12.175  0.00  0.00    +0.000 NA
ENDBRANCH  21  23
ENDBRANCH   1  17
TORSDOF 4
ENDMDL
MODEL 3
REMARK VINA RESULT:    -7.293      1.971      3.113
REMARK INTER + INTRA:          -9.836
REMARK INTER:                  -9.679
REMARK INTRA:                  -0.157
REMARK UNBOUND:                -0.838
REMARK  Name = 
REMARK  4 active torsions:
REMARK  status: ('A' for Active; 'I' for Inactive)
REMARK    1  A    between atoms: C_2  and  C_4
REMARK    2  A    between atoms: N_8  and  C_9
REMARK    3  A    between atoms: C_9  and  C_10
REMARK    4  A    between atoms: C_14  and  C_15
REMARK                            x       y       z     vdW  Elec       q    Type
REMARK                         _______ _______ _______ _____ _____    ______ ____
ROOT
ATOM      1  C   UNL     1      44.375   5.468  11.146  0.00  0.00    +0.000 C 
ATOM      2  C   UNL     1      43.023   4.786  11.032  0.00  0.00    +0.000 C 
ATOM      3  C   UNL     1      43.089   6.252  11.311  0.00  0.00    +0.000 C 
ENDROOT
BRANCH   1   8
ATOM      4  C   UNL     1      46.560   2.423   7.495  0.00  0.00    +0.000 A 
ATOM      5  C   UNL     1      46.080   2.079   8.757  0.00  0.00    +0.000 A 
ATOM      6  C   UNL     1      45.551   3.079   9.582  0.00  0.00    +0.000 A 
ATOM      7  C   UNL     1      45.507   4.390   9.123  0.00  0.00    +0.000 A 
ATOM      8  N   UNL     1      45.132   5.480   9.896  0.00  0.00    +0.000 N 
ATOM      9  N   UNL     1      45.929   4.722   7.885  0.00  0.00    +0.000 NA
ATOM     10  C   UNL     1      46.458   3.748   7.107  0.00  0.00    +0.000 A 
ATOM     11  H   UNL     1      45.047   6.281   9.278  0.00  0.00    +0.000 HD
BRANCH   4  13
ATOM     12  N   UNL     1      48.228   1.954   5.779  0.00  0.00    +0.000 N 
ATOM     13  C   UNL     1      47.226   1.475   6.575  0.00  0.00    +0.000 C 
ATOM     14  O   UNL     1      46.910   0.292   6.546  0.00  0.00    +0.000 OA
ATOM     15  H   UNL     1      48.736   1.265   5.241  0.00  0.00    +0.000 HD
ATOM     16  H   UNL     1      48.680   2.838   5.958  0.00  0.00    +0.000 HD
ENDBRANCH   4  13
ENDBRANCH   1   8
BRANCH   1  17
ATOM     17  C   UNL     1      45.259   5.244  12.365  0.00  0.00    +0.000 A 
ATOM     18  C   UNL     1      45.385   3.978  12.954  0.00  0.00    +0.000 A 
ATOM     19  C   UNL     1      46.389   3.712  13.885  0.00  0.00    +0.000 A 
ATOM     20  C   UNL     1      47.285   4.717  14.252  0.00  0.00    +0.000 A 
ATOM     21  C   UNL     1      47.170   6.018  13.737  0.00  0.00    +0.000 A 
ATOM     22  C   UNL     1      46.124   6.256  12.823  0.00  0.00    +0.000 A 
BRANCH  21  23
ATOM     23  C   UNL     1      48.144   7.079  14.063  0.00  0.00    +0.000 A 
ATOM     24  N   UNL     1      47.794   8.361  13.827  0.00  0.00    +0.000 NA
ATOM     25  C   UNL     1      48.657   9.306  14.228  0.00  0.00    +0.000 A 
ATOM     26  C   UNL     1      49.856   9.034  14.847  0.00  0.00    +0.000 A 
ATOM     27  C   UNL     1      50.127   7.699  15.038  0.00  0.00    +0.000 A 
ATOM     28  N   UNL     1      49.295   6.711  14.666  0.00  0.00    +0.000 NA
ENDBRANCH  21  23
ENDBRANCH   1  17
TORSDOF 4
ENDMDL
MODEL 4
REMARK VINA RESULT:    -6.987      3.022      7.674
REMARK INTER + INTRA:          -9.459
REMARK INTER:                  -9.580
REMARK INTRA:                   0.121
REMARK UNBOUND:                -0.838
REMARK  Name = 
REMARK  4 active torsions:
REMARK  status: ('A' for Active; 'I' for Inactive)
REMARK    1  A    between atoms: C_2  and  C_4
REMARK    2  A    between atoms: N_8  and  C_9
REMARK    3  A    between atoms: C_9  and  C_10
REMARK    4  A    between atoms: C_14  and  C_15
REMARK                            x       y       z     vdW  Elec       q    Type
REMARK                         _______ _______ _______ _____ _____    ______ ____
ROOT
ATOM      1  C   UNL     1      48.501   7.743  12.747  0.00  0.00    +0.000 C 
ATOM      2  C   UNL     1      49.624   7.416  11.780  0.00  0.00    +0.000 C 
ATOM      3  C   UNL     1      49.196   8.836  11.961  0.00  0.00    +0.000 C 
ENDROOT
BRANCH   1   8
ATOM      4  C   UNL     1      47.867   4.309  16.643  0.00  0.00    +0.000 A 
ATOM      5  C   UNL     1      47.192   4.396  15.427  0.00  0.00    +0.000 A 
ATOM      6  C   UNL     1      47.519   5.426  14.537  0.00  0.00    +0.000 A 
ATOM      7  C   UNL     1      48.515   6.333  14.879  0.00  0.00    +0.000 A 
ATOM      8  N   UNL     1      48.831   7.467  14.144  0.00  0.00    +0.000 N 
ATOM      9  N   UNL     1      49.203   6.228  16.036  0.00  0.00    +0.000 NA
ATOM     10  C   UNL     1      48.859   5.239  16.896  0.00  0.00    +0.000 A 
ATOM     11  H   UNL     1      49.681   7.860  14.534  0.00  0.00    +0.000 HD
BRANCH   4  13
ATOM     12  N   UNL     1      48.376   3.256  18.783  0.00  0.00    +0.000 N 
ATOM     13  C   UNL     1      47.543   3.326  17.700  0.00  0.00    +0.000 C 
ATOM     14  O   UNL     1      46.548   2.617  17.625  0.00  0.00    +0.000 OA
ATOM     15  H   UNL     1      48.073   2.653  19.537  0.00  0.00    +0.000 HD
ATOM     16  H   UNL     1      49.039   3.984  18.998  0.00  0.00    +0.000 HD
ENDBRANCH   4  13
ENDBRANCH   1   8
BRANCH   1  17
ATOM     17  C   UNL     1      47.057   7.401  12.407  0.00  0.00    +0.000 A 
ATOM     18  C   UNL     1      46.009   8.285  12.701  0.00  0.00    +0.000 A 
ATOM     19  C   UNL     1      44.739   8.105  12.153  0.00  0.00    +0.000 A 
ATOM     20  C   UNL     1      44.490   7.026  11.304  0.00  0.00    +0.000 A 
ATOM     21  C   UNL     1      45.487   6.079  11.021  0.00  0.00    +0.000 A 
ATOM     22  C   UNL     1      46.748   6.277  11.617  0.00  0.00    +0.000 A 
BRANCH  21  23
ATOM     23  C   UNL     1      45.266   4.965  10.077  0.00  0.00    +0.000 A 
ATOM     24  N   UNL     1      45.792   5.063   8.839  0.00  0.00    +0.000 NA
ATOM     25  C   UNL     1      45.662   3.994   8.040  0.00  0.00    +0.000 A 
ATOM     26  C   UNL     1      45.026   2.832   8.416  0.00  0.00    +0.000 A 
ATOM     27  C   UNL     1      44.517   2.829   9.693  0.00  0.00    +0.000 A 
ATOM     28  N   UNL     1      44.627   3.869  10.540  0.00  0.00    +0.000 NA
ENDBRANCH  21  23
ENDBRANCH   1  17
TORSDOF 4
ENDMDL
MODEL 5
REMARK VINA RESULT:    -6.849      3.497      7.189
REMARK INTER + INTRA:          -9.289
REMARK INTER:                  -8.327
REMARK INTRA:                  -0.962
REMARK UNBOUND:                -0.838
REMARK  Name = 
REMARK  4 active torsions:
REMARK  status: ('A' for Active; 'I' for Inactive)
REMARK    1  A    between atoms: C_2  and  C_4
REMARK    2  A    between atoms: N_8  and  C_9
REMARK    3  A    between atoms: C_9  and  C_10
REMARK    4  A    between atoms: C_14  and  C_15
REMARK                            x       y       z     vdW  Elec       q    Type
REMARK                         _______ _______ _______ _____ _____    ______ ____
ROOT
ATOM      1  C   UNL     1      46.121   5.145  13.459  0.00  0.00    +0.000 C 
ATOM      2  C   UNL     1      46.120   4.378  14.769  0.00  0.00    +0.000 C 
ATOM      3  C   UNL     1      47.252   4.200  13.811  0.00  0.00    +0.000 C 
ENDROOT
BRANCH   1   8
ATOM      4  C   UNL     1      48.595   9.412  11.714  0.00  0.00    +0.000 A 
ATOM      5  C   UNL     1      48.888   8.069  11.487  0.00  0.00    +0.000 A 
ATOM      6  C   UNL     1      48.090   7.086  12.083  0.00  0.00    +0.000 A 
ATOM      7  C   UNL     1      47.018   7.468  12.881  0.00  0.00    +0.000 A 
ATOM      8  N   UNL     1      46.243   6.592  13.628  0.00  0.00    +0.000 N 
ATOM      9  N   UNL     1      46.702   8.767  13.069  0.00  0.00    +0.000 NA
ATOM     10  C   UNL     1      47.496   9.707  12.503  0.00  0.00    +0.000 A 
ATOM     11  H   UNL     1      45.451   7.113  13.990  0.00  0.00    +0.000 HD
BRANCH   4  13
ATOM     12  N   UNL     1      50.778  10.431  11.335  0.00  0.00    +0.000 N 
ATOM     13  C   UNL     1      49.420  10.536  11.217  0.00  0.00    +0.000 C 
ATOM     14  O   UNL     1      48.907  11.516  10.692  0.00  0.00    +0.000 OA
ATOM     15  H   UNL     1      51.319  11.162  10.893  0.00  0.00    +0.000 HD
ATOM     16  H   UNL     1      51.235   9.551  11.518  0.00  0.00    +0.000 HD
ENDBRANCH   4  13
ENDBRANCH   1   8
BRANCH   1  17
ATOM     17  C   UNL     1      45.171   4.764  12.333  0.00  0.00    +0.000 A 
ATOM     18  C   UNL     1      43.862   5.264  12.280  0.00  0.00    +0.000 A 
ATOM     19  C   UNL     1      43.090   5.143  11.125  0.00  0.00    +0.000 A 
ATOM     20  C   UNL     1      43.612   4.506   9.999  0.00  0.00    +0.000 A 
ATOM     21  C   UNL     1      44.895   3.936  10.015  0.00  0.00    +0.000 A 
ATOM     22  C   UNL     1      45.634   4.052  11.209  0.00  0.00    +0.000 A 
BRANCH  21  23
ATOM     23  C   UNL     1      45.492   3.313   8.817  0.00  0.00    +0.000 A 
ATOM     24  N   UNL     1      45.826   4.111   7.781  0.00  0.00    +0.000 NA
ATOM     25  C   UNL     1      46.459   3.532   6.751  0.00  0.00    +0.000 A 
ATOM     26  C   UNL     1      46.769   2.191   6.701  0.00  0.00    +0.000 A 
ATOM     27  C   UNL     1      46.384   1.459   7.799  0.00  0.00    +0.000 A 
ATOM     28  N   UNL     1      45.756   1.990   8.863  0.00  0.00    +0.000 NA
ENDBRANCH  21  23
ENDBRANCH   1  17
TORSDOF 4
ENDMDL
MODEL 6
REMARK VINA RESULT:    -6.804      3.439      7.347
REMARK INTER + INTRA:          -9.233
REMARK INTER:                  -8.441
REMARK INTRA:                  -0.792
REMARK UNBOUND:                -0.838
REMARK  Name = 
REMARK  4 active torsions:
REMARK  status: ('A' for Active; 'I' for Inactive)
REMARK    1  A    between atoms: C_2  and  C_4
REMARK    2  A    between atoms: N_8  and  C_9
REMARK    3  A    between atoms: C_9  and  C_10
REMARK    4  A    between atoms: C_14  and  C_15
REMARK                            x       y       z     vdW  Elec       q    Type
REMARK                         _______ _______ _______ _____ _____    ______ ____
ROOT
ATOM      1  C   UNL     1      44.264   5.669  11.496  0.00  0.00    +0.000 C 
ATOM      2  C   UNL     1      42.948   6.404  11.314  0.00  0.00    +0.000 C 
ATOM      3  C   UNL     1      43.321   5.882  12.663  0.00  0.00    +0.000 C 
ENDROOT
BRANCH   1   8
ATOM      4  C   UNL     1      48.900   7.025  13.506  0.00  0.00    +0.000 A 
ATOM      5  C   UNL     1      47.854   6.322  14.100  0.00  0.00    +0.000 A 
ATOM      6  C   UNL     1      46.683   6.092  13.368  0.00  0.00    +0.000 A 
ATOM      7  C   UNL     1      46.592   6.561  12.063  0.00  0.00    +0.000 A 
ATOM      8  N   UNL     1      45.440   6.512  11.290  0.00  0.00    +0.000 N 
ATOM      9  N   UNL     1      47.618   7.204  11.466  0.00  0.00    +0.000 NA
ATOM     10  C   UNL     1      48.735   7.438  12.195  0.00  0.00    +0.000 A 
ATOM     11  H   UNL     1      45.692   6.780  10.344  0.00  0.00    +0.000 HD
BRANCH   4  13
ATOM     12  N   UNL     1      51.125   8.022  13.481  0.00  0.00    +0.000 N 
ATOM     13  C   UNL     1      50.143   7.411  14.209  0.00  0.00    +0.000 C 
ATOM     14  O   UNL     1      50.280   7.215  15.410  0.00  0.00    +0.000 OA
ATOM     15  H   UNL     1      51.917   8.370  14.006  0.00  0.00    +0.000 HD
ATOM     16  H   UNL     1      50.949   8.425  12.573  0.00  0.00    +0.000 HD
ENDBRANCH   4  13
ENDBRANCH   1   8
BRANCH   1  17
ATOM     17  C   UNL     1      44.450   4.259  10.953  0.00  0.00    +0.000 A 
ATOM     18  C   UNL     1      43.664   3.191  11.409  0.00  0.00    +0.000 A 
ATOM     19  C   UNL     1      43.639   1.973  10.730  0.00  0.00    +0.000 A 
ATOM     20  C   UNL     1      44.412   1.797   9.581  0.00  0.00    +0.000 A 
ATOM     21  C   UNL     1      45.260   2.813   9.113  0.00  0.00    +0.000 A 
ATOM     22  C   UNL     1      45.281   4.018   9.843  0.00  0.00    +0.000 A 
BRANCH  21  23
ATOM     23  C   UNL     1      46.038   2.673   7.866  0.00  0.00    +0.000 A 
ATOM     24  N   UNL     1      46.029   3.697   6.989  0.00  0.00    +0.000 NA
ATOM     25  C   UNL     1      46.826   3.582   5.916  0.00  0.00    +0.000 A 
ATOM     26  C   UNL     1      47.626   2.488   5.673  0.00  0.00    +0.000 A 
ATOM     27  C   UNL     1      47.562   1.493   6.619  0.00  0.00    +0.000 A 
ATOM     28  N   UNL     1      46.789   1.560   7.718  0.00  0.00    +0.000 NA
ENDBRANCH  21  23
ENDBRANCH   1  17
TORSDOF 4
ENDMDL
MODEL 7
REMARK VINA RESULT:    -6.545      3.968      8.559
REMARK INTER + INTRA:          -8.913
REMARK INTER:                  -8.085
REMARK INTRA:                  -0.828
REMARK UNBOUND:                -0.838
REMARK  Name = 
REMARK  4 active torsions:
REMARK  status: ('A' for Active; 'I' for Inactive)
REMARK    1  A    between atoms: C_2  and  C_4
REMARK    2  A    between atoms: N_8  and  C_9
REMARK    3  A    between atoms: C_9  and  C_10
REMARK    4  A    between atoms: C_14  and  C_15
REMARK                            x       y       z     vdW  Elec       q    Type
REMARK                         _______ _______ _______ _____ _____    ______ ____
ROOT
ATOM      1  C   UNL     1      48.973   7.794  12.550  0.00  0.00    +0.000 C 
ATOM      2  C   UNL     1      49.942   7.897  11.386  0.00  0.00    +0.000 C 
ATOM      3  C   UNL     1      49.602   9.120  12.173  0.00  0.00    +0.000 C 
ENDROOT
BRANCH   1   8
ATOM      4  C   UNL     1      49.005   7.336  17.762  0.00  0.00    +0.000 A 
ATOM      5  C   UNL     1      48.594   8.410  16.975  0.00  0.00    +0.000 A 
ATOM      6  C   UNL     1      48.700   8.314  15.582  0.00  0.00    +0.000 A 
ATOM      7  C   UNL     1      49.202   7.150  15.014  0.00  0.00    +0.000 A 
ATOM      8  N   UNL     1      49.477   6.990  13.663  0.00  0.00    +0.000 N 
ATOM      9  N   UNL     1      49.559   6.089  15.769  0.00  0.00    +0.000 NA
ATOM     10  C   UNL     1      49.473   6.205  17.115  0.00  0.00    +0.000 A 
ATOM     11  H   UNL     1      49.687   6.010  13.504  0.00  0.00    +0.000 HD
BRANCH   4  13
ATOM     12  N   UNL     1      47.855   7.591  19.898  0.00  0.00    +0.000 N 
ATOM     13  C   UNL     1      49.031   7.356  19.242  0.00  0.00    +0.000 C 
ATOM     14  O   UNL     1      50.066   7.142  19.861  0.00  0.00    +0.000 OA
ATOM     15  H   UNL     1      47.881   7.494  20.904  0.00  0.00    +0.000 HD
ATOM     16  H   UNL     1      46.960   7.515  19.440  0.00  0.00    +0.000 HD
ENDBRANCH   4  13
ENDBRANCH   1   8
BRANCH   1  17
ATOM     17  C   UNL     1      47.484   7.594  12.309  0.00  0.00    +0.000 A 
ATOM     18  C   UNL     1      46.558   8.615  12.569  0.00  0.00    +0.000 A 
ATOM     19  C   UNL     1      45.248   8.537  12.098  0.00  0.00    +0.000 A 
ATOM     20  C   UNL     1      44.835   7.425  11.361  0.00  0.00    +0.000 A 
ATOM     21  C   UNL     1      45.703   6.349  11.120  0.00  0.00    +0.000 A 
ATOM     22  C   UNL     1      47.009   6.451  11.638  0.00  0.00    +0.000 A 
BRANCH  21  23
ATOM     23  C   UNL     1      45.308   5.193  10.291  0.00  0.00    +0.000 A 
ATOM     24  N   UNL     1      45.727   5.153   9.009  0.00  0.00    +0.000 NA
ATOM     25  C   UNL     1      45.439   4.044   8.314  0.00  0.00    +0.000 A 
ATOM     26  C   UNL     1      44.746   2.973   8.834  0.00  0.00    +0.000 A 
ATOM     27  C   UNL     1      44.356   3.109  10.145  0.00  0.00    +0.000 A 
ATOM     28  N   UNL     1      44.626   4.194  10.893  0.00  0.00    +0.000 NA
ENDBRANCH  21  23
ENDBRANCH   1  17
TORSDOF 4
ENDMDL
MODEL 8
REMARK VINA RESULT:    -6.536      3.618      5.281
REMARK INTER + INTRA:          -8.903
REMARK INTER:                  -7.891
REMARK INTRA:                  -1.012
REMARK UNBOUND:                -0.838
REMARK  Name = 
REMARK  4 active torsions:
REMARK  status: ('A' for Active; 'I' for Inactive)
REMARK    1  A    between atoms: C_2  and  C_4
REMARK    2  A    between atoms: N_8  and  C_9
REMARK    3  A    between atoms: C_9  and  C_10
REMARK    4  A    between atoms: C_14  and  C_15
REMARK                            x       y       z     vdW  Elec       q    Type
REMARK                         _______ _______ _______ _____ _____    ______ ____
ROOT
ATOM      1  C   UNL     1      48.858   8.356  12.590  0.00  0.00    +0.000 C 
ATOM      2  C   UNL     1      49.855   9.198  11.813  0.00  0.00    +0.000 C 
ATOM      3  C   UNL     1      49.911   7.709  11.714  0.00  0.00    +0.000 C 
ENDROOT
BRANCH   1   8
ATOM      4  C   UNL     1      44.389   5.810  11.632  0.00  0.00    +0.000 A 
ATOM      5  C   UNL     1      45.667   5.297  11.844  0.00  0.00    +0.000 A 
ATOM      6  C   UNL     1      46.730   6.182  12.062  0.00  0.00    +0.000 A 
ATOM      7  C   UNL     1      46.488   7.550  12.071  0.00  0.00    +0.000 A 
ATOM      8  N   UNL     1      47.477   8.522  12.142  0.00  0.00    +0.000 N 
ATOM      9  N   UNL     1      45.245   8.052  11.910  0.00  0.00    +0.000 NA
ATOM     10  C   UNL     1      44.231   7.184  11.678  0.00  0.00    +0.000 A 
ATOM     11  H   UNL     1      47.019   9.418  12.281  0.00  0.00    +0.000 HD
BRANCH   4  13
ATOM     12  N   UNL     1      41.976   5.455  11.651  0.00  0.00    +0.000 N 
ATOM     13  C   UNL     1      43.209   4.982  11.298  0.00  0.00    +0.000 C 
ATOM     14  O   UNL     1      43.328   3.920  10.700  0.00  0.00    +0.000 OA
ATOM     15  H   UNL     1      41.184   4.922  11.316  0.00  0.00    +0.000 HD
ATOM     16  H   UNL     1      41.823   6.419  11.903  0.00  0.00    +0.000 HD
ENDBRANCH   4  13
ENDBRANCH   1   8
BRANCH   1  17
ATOM     17  C   UNL     1      48.971   8.212  14.101  0.00  0.00    +0.000 A 
ATOM     18  C   UNL     1      48.602   9.253  14.964  0.00  0.00    +0.000 A 
ATOM     19  C   UNL     1      48.443   9.034  16.332  0.00  0.00    +0.000 A 
ATOM     20  C   UNL     1      48.663   7.763  16.866  0.00  0.00    +0.000 A 
ATOM     21  C   UNL     1      49.090   6.698  16.057  0.00  0.00    +0.000 A 
ATOM     22  C   UNL     1      49.268   6.966  14.686  0.00  0.00    +0.000 A 
BRANCH  21  23
ATOM     23  C   UNL     1      49.267   5.332  16.589  0.00  0.00    +0.000 A 
ATOM     24  N   UNL     1      48.234   4.470  16.493  0.00  0.00    +0.000 NA
ATOM     25  C   UNL     1      48.459   3.209  16.890  0.00  0.00    +0.000 A 
ATOM     26  C   UNL     1      49.666   2.768  17.385  0.00  0.00    +0.000 A 
ATOM     27  C   UNL     1      50.656   3.720  17.450  0.00  0.00    +0.000 A 
ATOM     28  N   UNL     1      50.488   4.995  17.057  0.00  0.00    +0.000 NA
ENDBRANCH  21  23
ENDBRANCH   1  17
TORSDOF 4
ENDMDL
MODEL 9
REMARK VINA RESULT:    -6.485      3.946      8.480
REMARK INTER + INTRA:          -8.840
REMARK INTER:                  -8.283
REMARK INTRA:                  -0.557
REMARK UNBOUND:                -0.838
REMARK  Name = 
REMARK  4 active torsions:
REMARK  status: ('A' for Active; 'I' for Inactive)
REMARK    1  A    between atoms: C_2  and  C_4
REMARK    2  A    between atoms: N_8  and  C_9
REMARK    3  A    between atoms: C_9  and  C_10
REMARK    4  A    between atoms: C_14  and  C_15
REMARK                            x       y       z     vdW  Elec       q    Type
REMARK                         _______ _______ _______ _____ _____    ______ ____
ROOT
ATOM      1  C   UNL     1      48.206   4.699  17.136  0.00  0.00    +0.000 C 
ATOM      2  C   UNL     1      47.168   4.827  18.236  0.00  0.00    +0.000 C 
ATOM      3  C   UNL     1      47.230   3.576  17.422  0.00  0.00    +0.000 C 
ENDROOT
BRANCH   1   8
ATOM      4  C   UNL     1      52.441   1.675  17.678  0.00  0.00    +0.000 A 
ATOM      5  C   UNL     1      51.135   1.312  17.354  0.00  0.00    +0.000 A 
ATOM      6  C   UNL     1      50.148   2.303  17.287  0.00  0.00    +0.000 A 
ATOM      7  C   UNL     1      50.492   3.626  17.535  0.00  0.00    +0.000 A 
ATOM      8  N   UNL     1      49.582   4.670  17.629  0.00  0.00    +0.000 N 
ATOM      9  N   UNL     1      51.763   3.990  17.806  0.00  0.00    +0.000 NA
ATOM     10  C   UNL     1      52.702   3.017  17.889  0.00  0.00    +0.000 A 
ATOM     11  H   UNL     1      50.109   5.536  17.666  0.00  0.00    +0.000 HD
BRANCH   4  13
ATOM     12  N   UNL     1      53.237  -0.515  18.400  0.00  0.00    +0.000 N 
ATOM     13  C   UNL     1      53.545   0.708  17.872  0.00  0.00    +0.000 C 
ATOM     14  O   UNL     1      54.692   0.982  17.546  0.00  0.00    +0.000 OA
ATOM     15  H   UNL     1      53.989  -1.191  18.422  0.00  0.00    +0.000 HD
ATOM     16  H   UNL     1      52.291  -0.861  18.437  0.00  0.00    +0.000 HD
ENDBRANCH   4  13
ENDBRANCH   1   8
BRANCH   1  17
ATOM     17  C   UNL     1      48.065   5.479  15.837  0.00  0.00    +0.000 A 
ATOM     18  C   UNL     1      48.994   6.463  15.471  0.00  0.00    +0.000 A 
ATOM     19  C   UNL     1      49.026   6.980  14.176  0.00  0.00    +0.000 A 
ATOM     20  C   UNL     1      48.116   6.526  13.220  0.00  0.00    +0.000 A 
ATOM     21  C   UNL     1      47.127   5.584  13.547  0.00  0.00    +0.000 A 
ATOM     22  C   UNL     1      47.108   5.108  14.873  0.00  0.00    +0.000 A 
BRANCH  21  23
ATOM     23  C   UNL     1      46.196   5.043  12.537  0.00  0.00    +0.000 A 
ATOM     24  N   UNL     1      46.027   5.731  11.390  0.00  0.00    +0.000 NA
ATOM     25  C   UNL     1      45.255   5.163  10.452  0.00  0.00    +0.000 A 
ATOM     26  C   UNL     1      44.637   3.943  10.607  0.00  0.00    +0.000 A 
ATOM     27  C   UNL     1      44.863   3.320  11.812  0.00  0.00    +0.000 A 
ATOM     28  N   UNL     1      45.635   3.839  12.783  0.00  0.00    +0.000 NA
ENDBRANCH  21  23
ENDBRANCH   1  17
TORSDOF 4
ENDMDL
