MODEL 1
REMARK VINA RESULT:    -8.521      0.000      0.000
REMARK INTER + INTRA:         -13.778
REMARK INTER:                 -12.506
REMARK INTRA:                  -1.272
REMARK UNBOUND:                -1.272
REMARK  Name = 
REMARK  9 active torsions:
REMARK  status: ('A' for Active; 'I' for Inactive)
REMARK    1  A    between atoms: C_1  and  O_2
REMARK    2  A    between atoms: O_2  and  C_3
REMARK    3  A    between atoms: C_10  and  C_11
REMARK    4  A    between atoms: N_13  and  C_14
REMARK    5  A    between atoms: C_14  and  C_15
REMARK    6  A    between atoms: C_18  and  C_19
REMARK    7  A    between atoms: C_19  and  N_20
REMARK    8  A    between atoms: N_20  and  C_21
REMARK    9  A    between atoms: C_21  and  C_22
REMARK                            x       y       z     vdW  Elec       q    Type
REMARK                         _______ _______ _______ _____ _____    ______ ____
ROOT
ATOM      1  C   UNL     1      47.059   6.221  13.016  0.00  0.00    +0.000 A 
ATOM      2  C   UNL     1      46.106   5.404  13.637  0.00  0.00    +0.000 A 
ATOM      3  C   UNL     1      44.928   5.052  12.970  0.00  0.00    +0.000 A 
ATOM      4  C   UNL     1      44.678   5.503  11.665  0.00  0.00    +0.000 A 
ATOM      5  C   UNL     1      45.644   6.299  11.037  0.00  0.00    +0.000 A 
ATOM      6  C   UNL     1      46.824   6.650  11.703  0.00  0.00    +0.000 A 
ENDROOT
BRANCH   1   7
ATOM      7  C   UNL     1      48.340   6.585  13.725  0.00  0.00    +0.000 C 
BRANCH   7  10
ATOM      8  C   UNL     1      49.057   6.662  16.082  0.00  0.00    +0.000 C 
ATOM      9  O   UNL     1      50.187   6.280  15.793  0.00  0.00    +0.000 OA
ATOM     10  N   UNL     1      48.096   6.834  15.124  0.00  0.00    +0.000 N 
ATOM     11  H   UNL     1      47.164   7.122  15.385  0.00  0.00    +0.000 HD
BRANCH   8  19
ATOM     12  C   UNL     1      48.835   4.733  18.929  0.00  0.00    +0.000 A 
ATOM     13  N   UNL     1      48.683   4.228  20.169  0.00  0.00    +0.000 NA
ATOM     14  C   UNL     1      48.285   5.057  21.139  0.00  0.00    +0.000 A 
ATOM     15  N   UNL     1      48.011   6.353  21.022  0.00  0.00    +0.000 NA
ATOM     16  C   UNL     1      48.184   6.817  19.774  0.00  0.00    +0.000 A 
ATOM     17  S   UNL     1      47.878   8.453  19.438  0.00  0.00    +0.000 S 
ATOM     18  C   UNL     1      48.297   8.248  17.804  0.00  0.00    +0.000 A 
ATOM     19  C   UNL     1      48.675   6.951  17.477  0.00  0.00    +0.000 A 
ATOM     20  C   UNL     1      48.600   6.093  18.662  0.00  0.00    +0.000 A 
BRANCH  12  22
ATOM     21  C   UNL     1      48.214   3.211  17.261  0.00  0.00    +0.000 C 
ATOM     22  O   UNL     1      49.275   3.885  17.935  0.00  0.00    +0.000 OA
ENDBRANCH  12  22
ENDBRANCH   8  19
ENDBRANCH   7  10
ENDBRANCH   1   7
BRANCH   4  23
ATOM     23  C   UNL     1      43.394   5.131  10.953  0.00  0.00    +0.000 C 
BRANCH  23  24
ATOM     24  N   UNL     1      43.674   4.526   9.653  0.00  0.00    +0.000 NA
ATOM     25  H   UNL     1      44.382   5.080   9.173  0.00  0.00    +0.000 HD
BRANCH  24  26
ATOM     26  C   UNL     1      44.149   3.151   9.783  0.00  0.00    +0.000 C 
BRANCH  26  27
ATOM     27  C   UNL     1      45.222   2.854   8.761  0.00  0.00    +0.000 A 
ATOM     28  C   UNL     1      45.768   3.872   7.963  0.00  0.00    +0.000 A 
ATOM     29  C   UNL     1      46.772   3.588   7.032  0.00  0.00    +0.000 A 
ATOM     30  C   UNL     1      47.241   2.284   6.888  0.00  0.00    +0.000 A 
ATOM     31  C   UNL     1      46.701   1.273   7.674  0.00  0.00    +0.000 A 
ATOM     32  F   UNL     1      47.150   0.020   7.536  0.00  0.00    +0.000 F 
ATOM     33  C   UNL     1      45.705   1.545   8.605  0.00  0.00    +0.000 A 
ENDBRANCH  26  27
ENDBRANCH  24  26
ENDBRANCH  23  24
ENDBRANCH   4  23
TORSDOF 8
ENDMDL
MODEL 2
REMARK VINA RESULT:    -7.969      2.224      2.453
REMARK INTER + INTRA:         -12.968
REMARK INTER:                 -11.675
REMARK INTRA:                  -1.293
REMARK UNBOUND:                -1.272
REMARK  Name = 
REMARK  9 active torsions:
REMARK  status: ('A' for Active; 'I' for Inactive)
REMARK    1  A    between atoms: C_1  and  O_2
REMARK    2  A    between atoms: O_2  and  C_3
REMARK    3  A    between atoms: C_10  and  C_11
REMARK    4  A    between atoms: N_13  and  C_14
REMARK    5  A    between atoms: C_14  and  C_15
REMARK    6  A    between atoms: C_18  and  C_19
REMARK    7  A    between atoms: C_19  and  N_20
REMARK    8  A    between atoms: N_20  and  C_21
REMARK    9  A    between atoms: C_21  and  C_22
REMARK                            x       y       z     vdW  Elec       q    Type
REMARK                         _______ _______ _______ _____ _____    ______ ____
ROOT
ATOM      1  C   UNL     1      46.498   6.503  12.946  0.00  0.00    +0.000 A 
ATOM      2  C   UNL     1      45.225   6.773  12.426  0.00  0.00    +0.000 A 
ATOM      3  C   UNL     1      44.346   5.730  12.118  0.00  0.00    +0.000 A 
ATOM      4  C   UNL     1      44.715   4.393  12.328  0.00  0.00    +0.000 A 
ATOM      5  C   UNL     1      45.979   4.126  12.871  0.00  0.00    +0.000 A 
ATOM      6  C   UNL     1      46.858   5.169  13.181  0.00  0.00    +0.000 A 
ENDROOT
BRANCH   1   7
ATOM      7  C   UNL     1      47.440   7.627  13.299  0.00  0.00    +0.000 C 
BRANCH   7  10
ATOM      8  C   UNL     1      48.934   7.772  15.254  0.00  0.00    +0.000 C 
ATOM      9  O   UNL     1      48.382   8.793  15.651  0.00  0.00    +0.000 OA
ATOM     10  N   UNL     1      48.530   7.142  14.109  0.00  0.00    +0.000 N 
ATOM     11  H   UNL     1      49.016   6.318  13.784  0.00  0.00    +0.000 HD
BRANCH   8  19
ATOM     12  C   UNL     1      49.446   4.699  16.730  0.00  0.00    +0.000 A 
ATOM     13  N   UNL     1      49.910   3.601  17.358  0.00  0.00    +0.000 NA
ATOM     14  C   UNL     1      51.144   3.644  17.868  0.00  0.00    +0.000 A 
ATOM     15  N   UNL     1      51.990   4.670  17.831  0.00  0.00    +0.000 NA
ATOM     16  C   UNL     1      51.492   5.739  17.188  0.00  0.00    +0.000 A 
ATOM     17  S   UNL     1      52.435   7.144  17.046  0.00  0.00    +0.000 S 
ATOM     18  C   UNL     1      51.205   7.942  16.187  0.00  0.00    +0.000 A 
ATOM     19  C   UNL     1      50.065   7.173  15.989  0.00  0.00    +0.000 A 
ATOM     20  C   UNL     1      50.239   5.852  16.597  0.00  0.00    +0.000 A 
BRANCH  12  22
ATOM     21  C   UNL     1      47.236   3.974  17.006  0.00  0.00    +0.000 C 
ATOM     22  O   UNL     1      48.183   4.644  16.177  0.00  0.00    +0.000 OA
ENDBRANCH  12  22
ENDBRANCH   8  19
ENDBRANCH   7  10
ENDBRANCH   1   7
BRANCH   4  23
ATOM     23  C   UNL     1      43.765   3.266  11.979  0.00  0.00    +0.000 C 
BRANCH  23  24
ATOM     24  N   UNL     1      44.257   2.503  10.835  0.00  0.00    +0.000 NA
ATOM     25  H   UNL     1      43.700   1.655  10.735  0.00  0.00    +0.000 HD
BRANCH  24  26
ATOM     26  C   UNL     1      44.185   3.272   9.595  0.00  0.00    +0.000 C 
BRANCH  26  27
ATOM     27  C   UNL     1      45.274   2.850   8.636  0.00  0.00    +0.000 A 
ATOM     28  C   UNL     1      45.894   3.780   7.786  0.00  0.00    +0.000 A 
ATOM     29  C   UNL     1      46.912   3.381   6.914  0.00  0.00    +0.000 A 
ATOM     30  C   UNL     1      47.321   2.050   6.882  0.00  0.00    +0.000 A 
ATOM     31  C   UNL     1      46.708   1.126   7.719  0.00  0.00    +0.000 A 
ATOM     32  F   UNL     1      47.099  -0.154   7.688  0.00  0.00    +0.000 F 
ATOM     33  C   UNL     1      45.697   1.513   8.592  0.00  0.00    +0.000 A 
ENDBRANCH  26  27
ENDBRANCH  24  26
ENDBRANCH  23  24
ENDBRANCH   4  23
TORSDOF 8
ENDMDL
MODEL 3
REMARK VINA RESULT:    -7.328      2.331      3.062
REMARK INTER + INTRA:         -12.028
REMARK INTER:                 -11.187
REMARK INTRA:                  -0.841
REMARK UNBOUND:                -1.272
REMARK  Name = 
REMARK  9 active torsions:
REMARK  status: ('A' for Active; 'I' for Inactive)
REMARK    1  A    between atoms: C_1  and  O_2
REMARK    2  A    between atoms: O_2  and  C_3
REMARK    3  A    between atoms: C_10  and  C_11
REMARK    4  A    between atoms: N_13  and  C_14
REMARK    5  A    between atoms: C_14  and  C_15
REMARK    6  A    between atoms: C_18  and  C_19
REMARK    7  A    between atoms: C_19  and  N_20
REMARK    8  A    between atoms: N_20  and  C_21
REMARK    9  A    between atoms: C_21  and  C_22
REMARK                            x       y       z     vdW  Elec       q    Type
REMARK                         _______ _______ _______ _____ _____    ______ ____
ROOT
ATOM      1  C   UNL     1      46.775   6.492  12.959  0.00  0.00    +0.000 A 
ATOM      2  C   UNL     1      46.204   5.302  13.430  0.00  0.00    +0.000 A 
ATOM      3  C   UNL     1      45.200   4.658  12.700  0.00  0.00    +0.000 A 
ATOM      4  C   UNL     1      44.746   5.184  11.481  0.00  0.00    +0.000 A 
ATOM      5  C   UNL     1      45.336   6.360  11.000  0.00  0.00    +0.000 A 
ATOM      6  C   UNL     1      46.342   7.004  11.729  0.00  0.00    +0.000 A 
ENDROOT
BRANCH   1   7
ATOM      7  C   UNL     1      47.873   7.178  13.733  0.00  0.00    +0.000 C 
BRANCH   7  10
ATOM      8  C   UNL     1      49.003   6.729  15.877  0.00  0.00    +0.000 C 
ATOM      9  O   UNL     1      49.053   7.925  16.147  0.00  0.00    +0.000 OA
ATOM     10  N   UNL     1      48.441   6.285  14.712  0.00  0.00    +0.000 N 
ATOM     11  H   UNL     1      48.435   5.298  14.496  0.00  0.00    +0.000 HD
BRANCH   8  19
ATOM     12  C   UNL     1      52.173   6.045  17.045  0.00  0.00    +0.000 A 
ATOM     13  N   UNL     1      53.277   5.576  17.657  0.00  0.00    +0.000 NA
ATOM     14  C   UNL     1      53.145   4.525  18.471  0.00  0.00    +0.000 A 
ATOM     15  N   UNL     1      52.024   3.867  18.754  0.00  0.00    +0.000 NA
ATOM     16  C   UNL     1      50.947   4.372  18.131  0.00  0.00    +0.000 A 
ATOM     17  S   UNL     1      49.427   3.655  18.374  0.00  0.00    +0.000 S 
ATOM     18  C   UNL     1      48.678   4.776  17.339  0.00  0.00    +0.000 A 
ATOM     19  C   UNL     1      49.550   5.710  16.793  0.00  0.00    +0.000 A 
ATOM     20  C   UNL     1      50.913   5.460  17.265  0.00  0.00    +0.000 A 
BRANCH  12  22
ATOM     21  C   UNL     1      53.425   7.067  15.351  0.00  0.00    +0.000 C 
ATOM     22  O   UNL     1      52.304   7.148  16.228  0.00  0.00    +0.000 OA
ENDBRANCH  12  22
ENDBRANCH   8  19
ENDBRANCH   7  10
ENDBRANCH   1   7
BRANCH   4  23
ATOM     23  C   UNL     1      43.648   4.490  10.703  0.00  0.00    +0.000 C 
BRANCH  23  24
ATOM     24  N   UNL     1      44.196   3.443   9.844  0.00  0.00    +0.000 NA
ATOM     25  H   UNL     1      43.479   2.737   9.679  0.00  0.00    +0.000 HD
BRANCH  24  26
ATOM     26  C   UNL     1      44.651   3.973   8.562  0.00  0.00    +0.000 C 
BRANCH  26  27
ATOM     27  C   UNL     1      45.613   3.016   7.895  0.00  0.00    +0.000 A 
ATOM     28  C   UNL     1      45.862   1.743   8.434  0.00  0.00    +0.000 A 
ATOM     29  C   UNL     1      46.741   0.860   7.799  0.00  0.00    +0.000 A 
ATOM     30  C   UNL     1      47.380   1.238   6.620  0.00  0.00    +0.000 A 
ATOM     31  C   UNL     1      47.138   2.498   6.086  0.00  0.00    +0.000 A 
ATOM     32  F   UNL     1      47.752   2.863   4.954  0.00  0.00    +0.000 F 
ATOM     33  C   UNL     1      46.263   3.382   6.707  0.00  0.00    +0.000 A 
ENDBRANCH  26  27
ENDBRANCH  24  26
ENDBRANCH  23  24
ENDBRANCH   4  23
TORSDOF 8
ENDMDL
MODEL 4
REMARK VINA RESULT:    -7.258      2.321      2.908
REMARK INTER + INTRA:         -11.925
REMARK INTER:                 -10.947
REMARK INTRA:                  -0.977
REMARK UNBOUND:                -1.272
REMARK  Name = 
REMARK  9 active torsions:
REMARK  status: ('A' for Active; 'I' for Inactive)
REMARK    1  A    between atoms: C_1  and  O_2
REMARK    2  A    between atoms: O_2  and  C_3
REMARK    3  A    between atoms: C_10  and  C_11
REMARK    4  A    between atoms: N_13  and  C_14
REMARK    5  A    between atoms: C_14  and  C_15
REMARK    6  A    between atoms: C_18  and  C_19
REMARK    7  A    between atoms: C_19  and  N_20
REMARK    8  A    between atoms: N_20  and  C_21
REMARK    9  A    between atoms: C_21  and  C_22
REMARK                            x       y       z     vdW  Elec       q    Type
REMARK                         _______ _______ _______ _____ _____    ______ ____
ROOT
ATOM      1  C   UNL     1      47.077   8.122  13.307  0.00  0.00    +0.000 A 
ATOM      2  C   UNL     1      47.566   6.873  12.902  0.00  0.00    +0.000 A 
ATOM      3  C   UNL     1      46.796   6.037  12.087  0.00  0.00    +0.000 A 
ATOM      4  C   UNL     1      45.521   6.432  11.652  0.00  0.00    +0.000 A 
ATOM      5  C   UNL     1      45.045   7.692  12.037  0.00  0.00    +0.000 A 
ATOM      6  C   UNL     1      45.817   8.529  12.851  0.00  0.00    +0.000 A 
ENDROOT
BRANCH   1   7
ATOM      7  C   UNL     1      47.915   9.034  14.168  0.00  0.00    +0.000 C 
BRANCH   7  10
ATOM      8  C   UNL     1      50.140   8.070  14.608  0.00  0.00    +0.000 C 
ATOM      9  O   UNL     1      50.591   8.532  13.564  0.00  0.00    +0.000 OA
ATOM     10  N   UNL     1      48.838   8.272  14.972  0.00  0.00    +0.000 N 
ATOM     11  H   UNL     1      48.478   7.859  15.821  0.00  0.00    +0.000 HD
BRANCH   8  19
ATOM     12  C   UNL     1      49.464   5.522  16.828  0.00  0.00    +0.000 A 
ATOM     13  N   UNL     1      49.485   4.523  17.732  0.00  0.00    +0.000 NA
ATOM     14  C   UNL     1      50.661   4.190  18.271  0.00  0.00    +0.000 A 
ATOM     15  N   UNL     1      51.843   4.743  18.018  0.00  0.00    +0.000 NA
ATOM     16  C   UNL     1      51.779   5.727  17.105  0.00  0.00    +0.000 A 
ATOM     17  S   UNL     1      53.196   6.549  16.660  0.00  0.00    +0.000 S 
ATOM     18  C   UNL     1      52.340   7.535  15.572  0.00  0.00    +0.000 A 
ATOM     19  C   UNL     1      50.978   7.268  15.520  0.00  0.00    +0.000 A 
ATOM     20  C   UNL     1      50.643   6.185  16.447  0.00  0.00    +0.000 A 
BRANCH  12  22
ATOM     21  C   UNL     1      47.503   4.704  15.843  0.00  0.00    +0.000 C 
ATOM     22  O   UNL     1      48.255   5.846  16.249  0.00  0.00    +0.000 OA
ENDBRANCH  12  22
ENDBRANCH   8  19
ENDBRANCH   7  10
ENDBRANCH   1   7
BRANCH   4  23
ATOM     23  C   UNL     1      44.685   5.517  10.782  0.00  0.00    +0.000 C 
BRANCH  23  24
ATOM     24  N   UNL     1      45.437   5.080   9.609  0.00  0.00    +0.000 NA
ATOM     25  H   UNL     1      46.278   4.591   9.915  0.00  0.00    +0.000 HD
BRANCH  24  26
ATOM     26  C   UNL     1      44.651   4.191   8.758  0.00  0.00    +0.000 C 
BRANCH  26  27
ATOM     27  C   UNL     1      45.537   3.167   8.086  0.00  0.00    +0.000 A 
ATOM     28  C   UNL     1      45.682   1.873   8.614  0.00  0.00    +0.000 A 
ATOM     29  C   UNL     1      46.491   0.929   7.975  0.00  0.00    +0.000 A 
ATOM     30  C   UNL     1      47.164   1.266   6.802  0.00  0.00    +0.000 A 
ATOM     31  C   UNL     1      47.025   2.545   6.279  0.00  0.00    +0.000 A 
ATOM     32  F   UNL     1      47.672   2.871   5.153  0.00  0.00    +0.000 F 
ATOM     33  C   UNL     1      46.220   3.491   6.904  0.00  0.00    +0.000 A 
ENDBRANCH  26  27
ENDBRANCH  24  26
ENDBRANCH  23  24
ENDBRANCH   4  23
TORSDOF 8
ENDMDL
MODEL 5
REMARK VINA RESULT:    -6.765      1.799      2.272
REMARK INTER + INTRA:         -11.202
REMARK INTER:                 -10.070
REMARK INTRA:                  -1.132
REMARK UNBOUND:                -1.272
REMARK  Name = 
REMARK  9 active torsions:
REMARK  status: ('A' for Active; 'I' for Inactive)
REMARK    1  A    between atoms: C_1  and  O_2
REMARK    2  A    between atoms: O_2  and  C_3
REMARK    3  A    between atoms: C_10  and  C_11
REMARK    4  A    between atoms: N_13  and  C_14
REMARK    5  A    between atoms: C_14  and  C_15
REMARK    6  A    between atoms: C_18  and  C_19
REMARK    7  A    between atoms: C_19  and  N_20
REMARK    8  A    between atoms: N_20  and  C_21
REMARK    9  A    between atoms: C_21  and  C_22
REMARK                            x       y       z     vdW  Elec       q    Type
REMARK                         _______ _______ _______ _____ _____    ______ ____
ROOT
ATOM      1  C   UNL     1      47.522   7.629  13.633  0.00  0.00    +0.000 A 
ATOM      2  C   UNL     1      46.376   8.308  13.198  0.00  0.00    +0.000 A 
ATOM      3  C   UNL     1      45.449   7.676  12.364  0.00  0.00    +0.000 A 
ATOM      4  C   UNL     1      45.640   6.349  11.950  0.00  0.00    +0.000 A 
ATOM      5  C   UNL     1      46.774   5.664  12.406  0.00  0.00    +0.000 A 
ATOM      6  C   UNL     1      47.702   6.296  13.242  0.00  0.00    +0.000 A 
ENDROOT
BRANCH   1   7
ATOM      7  C   UNL     1      48.514   8.301  14.550  0.00  0.00    +0.000 C 
BRANCH   7  10
ATOM      8  C   UNL     1      48.365   8.073  17.000  0.00  0.00    +0.000 C 
ATOM      9  O   UNL     1      47.947   9.221  17.121  0.00  0.00    +0.000 OA
ATOM     10  N   UNL     1      48.667   7.552  15.773  0.00  0.00    +0.000 N 
ATOM     11  H   UNL     1      49.036   6.615  15.696  0.00  0.00    +0.000 HD
BRANCH   8  19
ATOM     12  C   UNL     1      51.138   6.556  18.373  0.00  0.00    +0.000 A 
ATOM     13  N   UNL     1      52.037   5.877  19.113  0.00  0.00    +0.000 NA
ATOM     14  C   UNL     1      51.593   5.210  20.183  0.00  0.00    +0.000 A 
ATOM     15  N   UNL     1      50.337   5.133  20.614  0.00  0.00    +0.000 NA
ATOM     16  C   UNL     1      49.476   5.831  19.855  0.00  0.00    +0.000 A 
ATOM     17  S   UNL     1      47.827   5.843  20.255  0.00  0.00    +0.000 S 
ATOM     18  C   UNL     1      47.464   6.853  18.937  0.00  0.00    +0.000 A 
ATOM     19  C   UNL     1      48.570   7.200  18.172  0.00  0.00    +0.000 A 
ATOM     20  C   UNL     1      49.776   6.580  18.722  0.00  0.00    +0.000 A 
BRANCH  12  22
ATOM     21  C   UNL     1      52.106   6.437  16.245  0.00  0.00    +0.000 C 
ATOM     22  O   UNL     1      51.600   7.268  17.287  0.00  0.00    +0.000 OA
ENDBRANCH  12  22
ENDBRANCH   8  19
ENDBRANCH   7  10
ENDBRANCH   1   7
BRANCH   4  23
ATOM     23  C   UNL     1      44.640   5.674  11.034  0.00  0.00    +0.000 C 
BRANCH  23  24
ATOM     24  N   UNL     1      44.837   4.227  11.021  0.00  0.00    +0.000 NA
ATOM     25  H   UNL     1      44.469   3.832  11.886  0.00  0.00    +0.000 HD
BRANCH  24  26
ATOM     26  C   UNL     1      44.170   3.597   9.885  0.00  0.00    +0.000 C 
BRANCH  26  27
ATOM     27  C   UNL     1      45.178   3.119   8.866  0.00  0.00    +0.000 A 
ATOM     28  C   UNL     1      45.809   4.018   7.990  0.00  0.00    +0.000 A 
ATOM     29  C   UNL     1      46.753   3.566   7.063  0.00  0.00    +0.000 A 
ATOM     30  C   UNL     1      47.077   2.212   7.000  0.00  0.00    +0.000 A 
ATOM     31  C   UNL     1      46.453   1.320   7.862  0.00  0.00    +0.000 A 
ATOM     32  F   UNL     1      46.762   0.018   7.801  0.00  0.00    +0.000 F 
ATOM     33  C   UNL     1      45.515   1.758   8.791  0.00  0.00    +0.000 A 
ENDBRANCH  26  27
ENDBRANCH  24  26
ENDBRANCH  23  24
ENDBRANCH   4  23
TORSDOF 8
ENDMDL
MODEL 6
REMARK VINA RESULT:    -6.666      2.703      3.568
REMARK INTER + INTRA:         -11.056
REMARK INTER:                 -10.064
REMARK INTRA:                  -0.993
REMARK UNBOUND:                -1.272
REMARK  Name = 
REMARK  9 active torsions:
REMARK  status: ('A' for Active; 'I' for Inactive)
REMARK    1  A    between atoms: C_1  and  O_2
REMARK    2  A    between atoms: O_2  and  C_3
REMARK    3  A    between atoms: C_10  and  C_11
REMARK    4  A    between atoms: N_13  and  C_14
REMARK    5  A    between atoms: C_14  and  C_15
REMARK    6  A    between atoms: C_18  and  C_19
REMARK    7  A    between atoms: C_19  and  N_20
REMARK    8  A    between atoms: N_20  and  C_21
REMARK    9  A    between atoms: C_21  and  C_22
REMARK                            x       y       z     vdW  Elec       q    Type
REMARK                         _______ _______ _______ _____ _____    ______ ____
ROOT
ATOM      1  C   UNL     1      48.715   7.965  14.979  0.00  0.00    +0.000 A 
ATOM      2  C   UNL     1      47.929   8.966  14.394  0.00  0.00    +0.000 A 
ATOM      3  C   UNL     1      46.944   8.641  13.456  0.00  0.00    +0.000 A 
ATOM      4  C   UNL     1      46.718   7.307  13.084  0.00  0.00    +0.000 A 
ATOM      5  C   UNL     1      47.488   6.305  13.689  0.00  0.00    +0.000 A 
ATOM      6  C   UNL     1      48.472   6.630  14.629  0.00  0.00    +0.000 A 
ENDROOT
BRANCH   1   7
ATOM      7  C   UNL     1      49.763   8.311  16.007  0.00  0.00    +0.000 C 
BRANCH   7  10
ATOM      8  C   UNL     1      50.609   6.655  17.626  0.00  0.00    +0.000 C 
ATOM      9  O   UNL     1      50.001   7.188  18.549  0.00  0.00    +0.000 OA
ATOM     10  N   UNL     1      50.543   7.148  16.352  0.00  0.00    +0.000 N 
ATOM     11  H   UNL     1      51.073   6.712  15.611  0.00  0.00    +0.000 HD
BRANCH   8  19
ATOM     12  C   UNL     1      50.121   3.286  17.086  0.00  0.00    +0.000 A 
ATOM     13  N   UNL     1      50.204   1.947  16.963  0.00  0.00    +0.000 NA
ATOM     14  C   UNL     1      51.334   1.349  17.354  0.00  0.00    +0.000 A 
ATOM     15  N   UNL     1      52.413   1.934  17.864  0.00  0.00    +0.000 NA
ATOM     16  C   UNL     1      52.293   3.269  17.960  0.00  0.00    +0.000 A 
ATOM     17  S   UNL     1      53.577   4.182  18.593  0.00  0.00    +0.000 S 
ATOM     18  C   UNL     1      52.712   5.631  18.390  0.00  0.00    +0.000 A 
ATOM     19  C   UNL     1      51.446   5.460  17.843  0.00  0.00    +0.000 A 
ATOM     20  C   UNL     1      51.195   4.039  17.592  0.00  0.00    +0.000 A 
BRANCH  12  22
ATOM     21  C   UNL     1      47.894   2.996  16.423  0.00  0.00    +0.000 C 
ATOM     22  O   UNL     1      48.967   3.906  16.656  0.00  0.00    +0.000 OA
ENDBRANCH  12  22
ENDBRANCH   8  19
ENDBRANCH   7  10
ENDBRANCH   1   7
BRANCH   4  23
ATOM     23  C   UNL     1      45.660   6.961  12.057  0.00  0.00    +0.000 C 
BRANCH  23  24
ATOM     24  N   UNL     1      45.864   5.614  11.530  0.00  0.00    +0.000 NA
ATOM     25  H   UNL     1      45.944   4.961  12.308  0.00  0.00    +0.000 HD
BRANCH  24  26
ATOM     26  C   UNL     1      44.763   5.196  10.665  0.00  0.00    +0.000 C 
BRANCH  26  27
ATOM     27  C   UNL     1      45.261   4.293   9.560  0.00  0.00    +0.000 A 
ATOM     28  C   UNL     1      45.991   4.806   8.475  0.00  0.00    +0.000 A 
ATOM     29  C   UNL     1      46.460   3.959   7.467  0.00  0.00    +0.000 A 
ATOM     30  C   UNL     1      46.207   2.590   7.531  0.00  0.00    +0.000 A 
ATOM     31  C   UNL     1      45.484   2.080   8.602  0.00  0.00    +0.000 A 
ATOM     32  F   UNL     1      45.238   0.765   8.664  0.00  0.00    +0.000 F 
ATOM     33  C   UNL     1      45.015   2.912   9.611  0.00  0.00    +0.000 A 
ENDBRANCH  26  27
ENDBRANCH  24  26
ENDBRANCH  23  24
ENDBRANCH   4  23
TORSDOF 8
ENDMDL
MODEL 7
REMARK VINA RESULT:    -6.233      5.173      6.621
REMARK INTER + INTRA:         -10.420
REMARK INTER:                  -9.110
REMARK INTRA:                  -1.310
REMARK UNBOUND:                -1.272
REMARK  Name = 
REMARK  9 active torsions:
REMARK  status: ('A' for Active; 'I' for Inactive)
REMARK    1  A    between atoms: C_1  and  O_2
REMARK    2  A    between atoms: O_2  and  C_3
REMARK    3  A    between atoms: C_10  and  C_11
REMARK    4  A    between atoms: N_13  and  C_14
REMARK    5  A    between atoms: C_14  and  C_15
REMARK    6  A    between atoms: C_18  and  C_19
REMARK    7  A    between atoms: C_19  and  N_20
REMARK    8  A    between atoms: N_20  and  C_21
REMARK    9  A    between atoms: C_21  and  C_22
REMARK                            x       y       z     vdW  Elec       q    Type
REMARK                         _______ _______ _______ _____ _____    ______ ____
ROOT
ATOM      1  C   UNL     1      48.064   8.903  11.999  0.00  0.00    +0.000 A 
ATOM      2  C   UNL     1      48.216   7.541  11.707  0.00  0.00    +0.000 A 
ATOM      3  C   UNL     1      47.108   6.687  11.704  0.00  0.00    +0.000 A 
ATOM      4  C   UNL     1      45.823   7.174  11.987  0.00  0.00    +0.000 A 
ATOM      5  C   UNL     1      45.670   8.541  12.253  0.00  0.00    +0.000 A 
ATOM      6  C   UNL     1      46.778   9.397  12.254  0.00  0.00    +0.000 A 
ENDROOT
BRANCH   1   7
ATOM      7  C   UNL     1      49.253   9.831  11.981  0.00  0.00    +0.000 C 
BRANCH   7  10
ATOM      8  C   UNL     1      51.602   9.580  12.686  0.00  0.00    +0.000 C 
ATOM      9  O   UNL     1      51.612  10.698  13.192  0.00  0.00    +0.000 OA
ATOM     10  N   UNL     1      50.484   9.085  12.073  0.00  0.00    +0.000 N 
ATOM     11  H   UNL     1      50.504   8.174  11.638  0.00  0.00    +0.000 HD
BRANCH   8  19
ATOM     12  C   UNL     1      53.419   7.979  10.233  0.00  0.00    +0.000 A 
ATOM     13  N   UNL     1      54.299   7.277   9.494  0.00  0.00    +0.000 NA
ATOM     14  C   UNL     1      55.286   6.640  10.131  0.00  0.00    +0.000 A 
ATOM     15  N   UNL     1      55.507   6.613  11.442  0.00  0.00    +0.000 NA
ATOM     16  C   UNL     1      54.613   7.333  12.141  0.00  0.00    +0.000 A 
ATOM     17  S   UNL     1      54.739   7.410  13.832  0.00  0.00    +0.000 S 
ATOM     18  C   UNL     1      53.373   8.416  13.937  0.00  0.00    +0.000 A 
ATOM     19  C   UNL     1      52.796   8.714  12.708  0.00  0.00    +0.000 A 
ATOM     20  C   UNL     1      53.540   8.056  11.632  0.00  0.00    +0.000 A 
BRANCH  12  22
ATOM     21  C   UNL     1      52.821   9.952   9.124  0.00  0.00    +0.000 C 
ATOM     22  O   UNL     1      52.418   8.661   9.574  0.00  0.00    +0.000 OA
ENDBRANCH  12  22
ENDBRANCH   8  19
ENDBRANCH   7  10
ENDBRANCH   1   7
BRANCH   4  23
ATOM     23  C   UNL     1      44.629   6.242  11.997  0.00  0.00    +0.000 C 
BRANCH  23  24
ATOM     24  N   UNL     1      44.222   5.900  10.637  0.00  0.00    +0.000 NA
ATOM     25  H   UNL     1      45.014   6.028  10.009  0.00  0.00    +0.000 HD
BRANCH  24  26
ATOM     26  C   UNL     1      43.753   4.520  10.540  0.00  0.00    +0.000 C 
BRANCH  26  27
ATOM     27  C   UNL     1      44.614   3.725   9.585  0.00  0.00    +0.000 A 
ATOM     28  C   UNL     1      44.626   2.321   9.613  0.00  0.00    +0.000 A 
ATOM     29  C   UNL     1      45.414   1.596   8.714  0.00  0.00    +0.000 A 
ATOM     30  C   UNL     1      46.198   2.265   7.777  0.00  0.00    +0.000 A 
ATOM     31  C   UNL     1      46.191   3.654   7.748  0.00  0.00    +0.000 A 
ATOM     32  F   UNL     1      46.946   4.299   6.849  0.00  0.00    +0.000 F 
ATOM     33  C   UNL     1      45.409   4.385   8.635  0.00  0.00    +0.000 A 
ENDBRANCH  26  27
ENDBRANCH  24  26
ENDBRANCH  23  24
ENDBRANCH   4  23
TORSDOF 8
ENDMDL
MODEL 8
REMARK VINA RESULT:    -6.072      3.824      8.507
REMARK INTER + INTRA:         -10.185
REMARK INTER:                  -8.590
REMARK INTRA:                  -1.595
REMARK UNBOUND:                -1.272
REMARK  Name = 
REMARK  9 active torsions:
REMARK  status: ('A' for Active; 'I' for Inactive)
REMARK    1  A    between atoms: C_1  and  O_2
REMARK    2  A    between atoms: O_2  and  C_3
REMARK    3  A    between atoms: C_10  and  C_11
REMARK    4  A    between atoms: N_13  and  C_14
REMARK    5  A    between atoms: C_14  and  C_15
REMARK    6  A    between atoms: C_18  and  C_19
REMARK    7  A    between atoms: C_19  and  N_20
REMARK    8  A    between atoms: N_20  and  C_21
REMARK    9  A    between atoms: C_21  and  C_22
REMARK                            x       y       z     vdW  Elec       q    Type
REMARK                         _______ _______ _______ _____ _____    ______ ____
ROOT
ATOM      1  C   UNL     1      49.727   8.434  15.593  0.00  0.00    +0.000 A 
ATOM      2  C   UNL     1      50.684   9.129  16.344  0.00  0.00    +0.000 A 
ATOM      3  C   UNL     1      50.759   8.963  17.730  0.00  0.00    +0.000 A 
ATOM      4  C   UNL     1      49.885   8.094  18.399  0.00  0.00    +0.000 A 
ATOM      5  C   UNL     1      48.945   7.380  17.644  0.00  0.00    +0.000 A 
ATOM      6  C   UNL     1      48.871   7.545  16.257  0.00  0.00    +0.000 A 
ENDROOT
BRANCH   1   7
ATOM      7  C   UNL     1      49.657   8.594  14.095  0.00  0.00    +0.000 C 
BRANCH   7  10
ATOM      8  C   UNL     1      48.114   7.039  12.965  0.00  0.00    +0.000 C 
ATOM      9  O   UNL     1      49.011   6.223  12.777  0.00  0.00    +0.000 OA
ATOM     10  N   UNL     1      48.353   8.225  13.603  0.00  0.00    +0.000 N 
ATOM     11  H   UNL     1      47.608   8.896  13.723  0.00  0.00    +0.000 HD
BRANCH   8  19
ATOM     12  C   UNL     1      46.033   4.295  13.105  0.00  0.00    +0.000 A 
ATOM     13  N   UNL     1      45.027   3.402  13.042  0.00  0.00    +0.000 NA
ATOM     14  C   UNL     1      43.884   3.783  12.463  0.00  0.00    +0.000 A 
ATOM     15  N   UNL     1      43.616   4.969  11.926  0.00  0.00    +0.000 NA
ATOM     16  C   UNL     1      44.641   5.833  12.019  0.00  0.00    +0.000 A 
ATOM     17  S   UNL     1      44.477   7.398  11.383  0.00  0.00    +0.000 S 
ATOM     18  C   UNL     1      46.055   7.811  11.862  0.00  0.00    +0.000 A 
ATOM     19  C   UNL     1      46.735   6.786  12.508  0.00  0.00    +0.000 A 
ATOM     20  C   UNL     1      45.885   5.597  12.595  0.00  0.00    +0.000 A 
BRANCH  12  22
ATOM     21  C   UNL     1      47.226   4.228  15.119  0.00  0.00    +0.000 C 
ATOM     22  O   UNL     1      47.202   3.912  13.729  0.00  0.00    +0.000 OA
ENDBRANCH  12  22
ENDBRANCH   8  19
ENDBRANCH   7  10
ENDBRANCH   1   7
BRANCH   4  23
ATOM     23  C   UNL     1      49.961   7.929  19.903  0.00  0.00    +0.000 C 
BRANCH  23  24
ATOM     24  N   UNL     1      49.247   6.730  20.334  0.00  0.00    +0.000 NA
ATOM     25  H   UNL     1      48.541   6.494  19.638  0.00  0.00    +0.000 HD
BRANCH  24  26
ATOM     26  C   UNL     1      50.147   5.594  20.509  0.00  0.00    +0.000 C 
BRANCH  26  27
ATOM     27  C   UNL     1      49.963   4.587  19.397  0.00  0.00    +0.000 A 
ATOM     28  C   UNL     1      51.041   4.197  18.584  0.00  0.00    +0.000 A 
ATOM     29  C   UNL     1      50.863   3.252  17.569  0.00  0.00    +0.000 A 
ATOM     30  C   UNL     1      49.607   2.686  17.355  0.00  0.00    +0.000 A 
ATOM     31  C   UNL     1      48.539   3.071  18.156  0.00  0.00    +0.000 A 
ATOM     32  F   UNL     1      47.332   2.529  17.949  0.00  0.00    +0.000 F 
ATOM     33  C   UNL     1      48.706   4.007  19.170  0.00  0.00    +0.000 A 
ENDBRANCH  26  27
ENDBRANCH  24  26
ENDBRANCH  23  24
ENDBRANCH   4  23
TORSDOF 8
ENDMDL
MODEL 9
REMARK VINA RESULT:    -5.924      5.991      8.470
REMARK INTER + INTRA:          -9.967
REMARK INTER:                  -8.711
REMARK INTRA:                  -1.256
REMARK UNBOUND:                -1.272
REMARK  Name = 
REMARK  9 active torsions:
REMARK  status: ('A' for Active; 'I' for Inactive)
REMARK    1  A    between atoms: C_1  and  O_2
REMARK    2  A    between atoms: O_2  and  C_3
REMARK    3  A    between atoms: C_10  and  C_11
REMARK    4  A    between atoms: N_13  and  C_14
REMARK    5  A    between atoms: C_14  and  C_15
REMARK    6  A    between atoms: C_18  and  C_19
REMARK    7  A    between atoms: C_19  and  N_20
REMARK    8  A    between atoms: N_20  and  C_21
REMARK    9  A    between atoms: C_21  and  C_22
REMARK                            x       y       z     vdW  Elec       q    Type
REMARK                         _______ _______ _______ _____ _____    ______ ____
ROOT
ATOM      1  C   UNL     1      50.036   8.599  11.982  0.00  0.00    +0.000 A 
ATOM      2  C   UNL     1      49.506   7.307  11.875  0.00  0.00    +0.000 A 
ATOM      3  C   UNL     1      48.148   7.073  12.114  0.00  0.00    +0.000 A 
ATOM      4  C   UNL     1      47.287   8.125  12.460  0.00  0.00    +0.000 A 
ATOM      5  C   UNL     1      47.814   9.420  12.543  0.00  0.00    +0.000 A 
ATOM      6  C   UNL     1      49.172   9.655  12.301  0.00  0.00    +0.000 A 
ENDROOT
BRANCH   1   7
ATOM      7  C   UNL     1      51.496   8.859  11.703  0.00  0.00    +0.000 C 
BRANCH   7  10
ATOM      8  C   UNL     1      52.816   9.023   9.627  0.00  0.00    +0.000 C 
ATOM      9  O   UNL     1      53.435   9.994  10.051  0.00  0.00    +0.000 OA
ATOM     10  N   UNL     1      51.849   8.413  10.378  0.00  0.00    +0.000 N 
ATOM     11  H   UNL     1      51.330   7.633  10.000  0.00  0.00    +0.000 HD
BRANCH   8  19
ATOM     12  C   UNL     1      53.555   5.863   8.469  0.00  0.00    +0.000 A 
ATOM     13  N   UNL     1      53.831   4.753   7.757  0.00  0.00    +0.000 NA
ATOM     14  C   UNL     1      53.955   4.872   6.432  0.00  0.00    +0.000 A 
ATOM     15  N   UNL     1      53.839   5.985   5.714  0.00  0.00    +0.000 NA
ATOM     16  C   UNL     1      53.554   7.065   6.460  0.00  0.00    +0.000 A 
ATOM     17  S   UNL     1      53.372   8.577   5.709  0.00  0.00    +0.000 S 
ATOM     18  C   UNL     1      53.054   9.333   7.198  0.00  0.00    +0.000 A 
ATOM     19  C   UNL     1      53.077   8.469   8.286  0.00  0.00    +0.000 A 
ATOM     20  C   UNL     1      53.384   7.108   7.840  0.00  0.00    +0.000 A 
BRANCH  12  22
ATOM     21  C   UNL     1      54.622   5.495  10.520  0.00  0.00    +0.000 C 
ATOM     22  O   UNL     1      53.396   5.735   9.833  0.00  0.00    +0.000 OA
ENDBRANCH  12  22
ENDBRANCH   8  19
ENDBRANCH   7  10
ENDBRANCH   1   7
BRANCH   4  23
ATOM     23  C   UNL     1      45.820   7.863  12.734  0.00  0.00    +0.000 C 
BRANCH  23  24
ATOM     24  N   UNL     1      45.482   6.466  12.475  0.00  0.00    +0.000 NA
ATOM     25  H   UNL     1      45.182   6.029  13.347  0.00  0.00    +0.000 HD
BRANCH  24  26
ATOM     26  C   UNL     1      44.416   6.338  11.485  0.00  0.00    +0.000 C 
BRANCH  26  27
ATOM     27  C   UNL     1      44.592   5.080  10.665  0.00  0.00    +0.000 A 
ATOM     28  C   UNL     1      43.994   3.870  11.053  0.00  0.00    +0.000 A 
ATOM     29  C   UNL     1      44.150   2.717  10.278  0.00  0.00    +0.000 A 
ATOM     30  C   UNL     1      44.905   2.760   9.107  0.00  0.00    +0.000 A 
ATOM     31  C   UNL     1      45.501   3.954   8.722  0.00  0.00    +0.000 A 
ATOM     32  F   UNL     1      46.229   3.996   7.599  0.00  0.00    +0.000 F 
ATOM     33  C   UNL     1      45.350   5.108   9.484  0.00  0.00    +0.000 A 
ENDBRANCH  26  27
ENDBRANCH  24  26
ENDBRANCH  23  24
ENDBRANCH   4  23
TORSDOF 8
ENDMDL
