MODEL 1
REMARK VINA RESULT:    -8.577      0.000      0.000
REMARK INTER + INTRA:         -11.796
REMARK INTER:                 -11.335
REMARK INTRA:                  -0.461
REMARK UNBOUND:                -0.461
REMARK  Name = 
REMARK  9 active torsions:
REMARK  status: ('A' for Active; 'I' for Inactive)
REMARK    1  A    between atoms: C_1  and  C_2
REMARK    2  A    between atoms: C_2  and  C_3
REMARK    3  A    between atoms: C_2  and  C_4
REMARK    4  A    between atoms: C_2  and  C_5
REMARK    5  A    between atoms: C_7  and  C_8
REMARK    6  A    between atoms: C_8  and  N_9
REMARK    7  A    between atoms: N_9  and  C_10
REMARK    8  A    between atoms: C_13  and  C_14
REMARK    9  A    between atoms: C_18  and  O_19
REMARK                            x       y       z     vdW  Elec       q    Type
REMARK                         _______ _______ _______ _____ _____    ______ ____
ROOT
ATOM      1  N   UNL     1      43.977   4.920   9.964  0.00  0.00    +0.000 N 
ATOM      2  H   UNL     1      44.279   5.861   9.720  0.00  0.00    +0.000 HD
ENDROOT
BRANCH   1   3
ATOM      3  C   UNL     1      44.823   4.070   9.262  0.00  0.00    +0.000 A 
ATOM      4  N   UNL     1      45.671   4.719   8.434  0.00  0.00    +0.000 NA
ATOM      5  C   UNL     1      46.505   3.976   7.657  0.00  0.00    +0.000 A 
ATOM      6  C   UNL     1      46.552   2.588   7.676  0.00  0.00    +0.000 A 
ATOM      7  C   UNL     1      45.677   1.932   8.540  0.00  0.00    +0.000 A 
ATOM      8  C   UNL     1      44.799   2.674   9.324  0.00  0.00    +0.000 A 
BRANCH   6   9
ATOM      9  C   UNL     1      47.463   1.782   6.836  0.00  0.00    +0.000 C 
ATOM     10  N   UNL     1      48.593   2.350   6.326  0.00  0.00    +0.000 N 
ATOM     11  O   UNL     1      47.211   0.607   6.593  0.00  0.00    +0.000 OA
ATOM     12  H   UNL     1      48.893   3.309   6.459  0.00  0.00    +0.000 HD
ATOM     13  H   UNL     1      49.178   1.761   5.753  0.00  0.00    +0.000 HD
ENDBRANCH   6   9
BRANCH   8  14
ATOM     14  O   UNL     1      43.943   2.013  10.154  0.00  0.00    +0.000 OA
ATOM     15  H   UNL     1      43.122   2.517  10.261  0.00  0.00    +0.000 HD
ENDBRANCH   8  14
ENDBRANCH   1   3
BRANCH   1  16
ATOM     16  C   UNL     1      43.787   4.704  11.388  0.00  0.00    +0.000 C 
BRANCH  16  19
ATOM     17  C   UNL     1      47.048   6.070  12.830  0.00  0.00    +0.000 A 
ATOM     18  C   UNL     1      45.841   5.993  12.120  0.00  0.00    +0.000 A 
ATOM     19  C   UNL     1      45.098   4.802  12.131  0.00  0.00    +0.000 A 
ATOM     20  C   UNL     1      45.610   3.717  12.826  0.00  0.00    +0.000 A 
ATOM     21  C   UNL     1      46.809   3.862  13.504  0.00  0.00    +0.000 A 
ATOM     22  N   UNL     1      47.521   5.011  13.527  0.00  0.00    +0.000 NA
BRANCH  17  24
ATOM     23  C   UNL     1      46.823   8.526  13.211  0.00  0.00    +0.000 C 
ATOM     24  C   UNL     1      47.827   7.388  12.933  0.00  0.00    +0.000 C 
ATOM     25  C   UNL     1      48.611   7.751  11.654  0.00  0.00    +0.000 C 
ATOM     26  C   UNL     1      48.841   7.301  14.091  0.00  0.00    +0.000 C 
ENDBRANCH  17  24
ENDBRANCH  16  19
ENDBRANCH   1  16
TORSDOF 6
ENDMDL
MODEL 2
REMARK VINA RESULT:    -8.361      1.434      1.889
REMARK INTER + INTRA:         -11.510
REMARK INTER:                 -10.658
REMARK INTRA:                  -0.852
REMARK UNBOUND:                -0.461
REMARK  Name = 
REMARK  9 active torsions:
REMARK  status: ('A' for Active; 'I' for Inactive)
REMARK    1  A    between atoms: C_1  and  C_2
REMARK    2  A    between atoms: C_2  and  C_3
REMARK    3  A    between atoms: C_2  and  C_4
REMARK    4  A    between atoms: C_2  and  C_5
REMARK    5  A    between atoms: C_7  and  C_8
REMARK    6  A    between atoms: C_8  and  N_9
REMARK    7  A    between atoms: N_9  and  C_10
REMARK    8  A    between atoms: C_13  and  C_14
REMARK    9  A    between atoms: C_18  and  O_19
REMARK                            x       y       z     vdW  Elec       q    Type
REMARK                         _______ _______ _______ _____ _____    ______ ____
ROOT
ATOM      1  N   UNL     1      43.707   4.710  10.076  0.00  0.00    +0.000 N 
ATOM      2  H   UNL     1      43.987   5.649   9.806  0.00  0.00    +0.000 HD
ENDROOT
BRANCH   1   3
ATOM      3  C   UNL     1      44.542   3.858   9.363  0.00  0.00    +0.000 A 
ATOM      4  N   UNL     1      44.205   2.556   9.476  0.00  0.00    +0.000 NA
ATOM      5  C   UNL     1      44.993   1.632   8.863  0.00  0.00    +0.000 A 
ATOM      6  C   UNL     1      46.116   1.948   8.108  0.00  0.00    +0.000 A 
ATOM      7  C   UNL     1      46.448   3.297   7.994  0.00  0.00    +0.000 A 
ATOM      8  C   UNL     1      45.669   4.254   8.636  0.00  0.00    +0.000 A 
BRANCH   6   9
ATOM      9  C   UNL     1      46.968   0.944   7.436  0.00  0.00    +0.000 C 
ATOM     10  N   UNL     1      46.749  -0.384   7.655  0.00  0.00    +0.000 N 
ATOM     11  O   UNL     1      47.872   1.295   6.685  0.00  0.00    +0.000 OA
ATOM     12  H   UNL     1      46.037  -0.782   8.257  0.00  0.00    +0.000 HD
ATOM     13  H   UNL     1      47.361  -1.029   7.179  0.00  0.00    +0.000 HD
ENDBRANCH   6   9
BRANCH   8  14
ATOM     14  O   UNL     1      46.017   5.567   8.521  0.00  0.00    +0.000 OA
ATOM     15  H   UNL     1      46.979   5.666   8.588  0.00  0.00    +0.000 HD
ENDBRANCH   8  14
ENDBRANCH   1   3
BRANCH   1  16
ATOM     16  C   UNL     1      43.563   4.518  11.509  0.00  0.00    +0.000 C 
BRANCH  16  19
ATOM     17  C   UNL     1      46.789   5.992  12.920  0.00  0.00    +0.000 A 
ATOM     18  C   UNL     1      45.563   5.884  12.250  0.00  0.00    +0.000 A 
ATOM     19  C   UNL     1      44.894   4.651  12.209  0.00  0.00    +0.000 A 
ATOM     20  C   UNL     1      45.498   3.558  12.814  0.00  0.00    +0.000 A 
ATOM     21  C   UNL     1      46.711   3.735  13.457  0.00  0.00    +0.000 A 
ATOM     22  N   UNL     1      47.353   4.923  13.529  0.00  0.00    +0.000 NA
BRANCH  17  24
ATOM     23  C   UNL     1      48.437   7.264  14.296  0.00  0.00    +0.000 C 
ATOM     24  C   UNL     1      47.491   7.348  13.081  0.00  0.00    +0.000 C 
ATOM     25  C   UNL     1      46.522   8.527  13.316  0.00  0.00    +0.000 C 
ATOM     26  C   UNL     1      48.306   7.663  11.812  0.00  0.00    +0.000 C 
ENDBRANCH  17  24
ENDBRANCH  16  19
ENDBRANCH   1  16
TORSDOF 6
ENDMDL
MODEL 3
REMARK VINA RESULT:    -7.860      1.342      2.015
REMARK INTER + INTRA:         -10.848
REMARK INTER:                 -10.188
REMARK INTRA:                  -0.660
REMARK UNBOUND:                -0.461
REMARK  Name = 
REMARK  9 active torsions:
REMARK  status: ('A' for Active; 'I' for Inactive)
REMARK    1  A    between atoms: C_1  and  C_2
REMARK    2  A    between atoms: C_2  and  C_3
REMARK    3  A    between atoms: C_2  and  C_4
REMARK    4  A    between atoms: C_2  and  C_5
REMARK    5  A    between atoms: C_7  and  C_8
REMARK    6  A    between atoms: C_8  and  N_9
REMARK    7  A    between atoms: N_9  and  C_10
REMARK    8  A    between atoms: C_13  and  C_14
REMARK    9  A    between atoms: C_18  and  O_19
REMARK                            x       y       z     vdW  Elec       q    Type
REMARK                         _______ _______ _______ _____ _____    ______ ____
ROOT
ATOM      1  N   UNL     1      43.955   4.632   9.919  0.00  0.00    +0.000 N 
ATOM      2  H   UNL     1      43.810   5.530   9.462  0.00  0.00    +0.000 HD
ENDROOT
BRANCH   1   3
ATOM      3  C   UNL     1      44.886   3.966   9.131  0.00  0.00    +0.000 A 
ATOM      4  N   UNL     1      45.624   4.791   8.357  0.00  0.00    +0.000 NA
ATOM      5  C   UNL     1      46.528   4.236   7.505  0.00  0.00    +0.000 A 
ATOM      6  C   UNL     1      46.751   2.870   7.393  0.00  0.00    +0.000 A 
ATOM      7  C   UNL     1      45.987   2.031   8.203  0.00  0.00    +0.000 A 
ATOM      8  C   UNL     1      45.041   2.578   9.062  0.00  0.00    +0.000 A 
BRANCH   6   9
ATOM      9  C   UNL     1      47.738   2.268   6.471  0.00  0.00    +0.000 C 
ATOM     10  N   UNL     1      47.955   2.835   5.250  0.00  0.00    +0.000 N 
ATOM     11  O   UNL     1      48.361   1.262   6.794  0.00  0.00    +0.000 OA
ATOM     12  H   UNL     1      47.493   3.658   4.881  0.00  0.00    +0.000 HD
ATOM     13  H   UNL     1      48.632   2.382   4.654  0.00  0.00    +0.000 HD
ENDBRANCH   6   9
BRANCH   8  14
ATOM     14  O   UNL     1      44.295   1.739   9.836  0.00  0.00    +0.000 OA
ATOM     15  H   UNL     1      43.603   1.318   9.305  0.00  0.00    +0.000 HD
ENDBRANCH   8  14
ENDBRANCH   1   3
BRANCH   1  16
ATOM     16  C   UNL     1      44.181   4.720  11.351  0.00  0.00    +0.000 C 
BRANCH  16  19
ATOM     17  C   UNL     1      46.630   7.276  12.783  0.00  0.00    +0.000 A 
ATOM     18  C   UNL     1      46.024   6.051  12.469  0.00  0.00    +0.000 A 
ATOM     19  C   UNL     1      44.840   6.030  11.716  0.00  0.00    +0.000 A 
ATOM     20  C   UNL     1      44.285   7.242  11.332  0.00  0.00    +0.000 A 
ATOM     21  C   UNL     1      44.936   8.414  11.678  0.00  0.00    +0.000 A 
ATOM     22  N   UNL     1      46.092   8.450  12.378  0.00  0.00    +0.000 NA
BRANCH  17  24
ATOM     23  C   UNL     1      49.102   7.181  12.455  0.00  0.00    +0.000 C 
ATOM     24  C   UNL     1      47.983   7.331  13.506  0.00  0.00    +0.000 C 
ATOM     25  C   UNL     1      48.172   6.220  14.561  0.00  0.00    +0.000 C 
ATOM     26  C   UNL     1      48.129   8.686  14.227  0.00  0.00    +0.000 C 
ENDBRANCH  17  24
ENDBRANCH  16  19
ENDBRANCH   1  16
TORSDOF 6
ENDMDL
MODEL 4
REMARK VINA RESULT:    -6.548      4.901      8.609
REMARK INTER + INTRA:          -9.115
REMARK INTER:                  -8.552
REMARK INTRA:                  -0.562
REMARK UNBOUND:                -0.461
REMARK  Name = 
REMARK  9 active torsions:
REMARK  status: ('A' for Active; 'I' for Inactive)
REMARK    1  A    between atoms: C_1  and  C_2
REMARK    2  A    between atoms: C_2  and  C_3
REMARK    3  A    between atoms: C_2  and  C_4
REMARK    4  A    between atoms: C_2  and  C_5
REMARK    5  A    between atoms: C_7  and  C_8
REMARK    6  A    between atoms: C_8  and  N_9
REMARK    7  A    between atoms: N_9  and  C_10
REMARK    8  A    between atoms: C_13  and  C_14
REMARK    9  A    between atoms: C_18  and  O_19
REMARK                            x       y       z     vdW  Elec       q    Type
REMARK                         _______ _______ _______ _____ _____    ______ ____
ROOT
ATOM      1  N   UNL     1      46.866   4.391  16.079  0.00  0.00    +0.000 N 
ATOM      2  H   UNL     1      46.100   3.922  16.556  0.00  0.00    +0.000 HD
ENDROOT
BRANCH   1   3
ATOM      3  C   UNL     1      47.822   4.625  17.059  0.00  0.00    +0.000 A 
ATOM      4  N   UNL     1      49.077   4.310  16.673  0.00  0.00    +0.000 NA
ATOM      5  C   UNL     1      50.083   4.447  17.578  0.00  0.00    +0.000 A 
ATOM      6  C   UNL     1      49.901   4.912  18.875  0.00  0.00    +0.000 A 
ATOM      7  C   UNL     1      48.602   5.240  19.258  0.00  0.00    +0.000 A 
ATOM      8  C   UNL     1      47.556   5.081  18.354  0.00  0.00    +0.000 A 
BRANCH   6   9
ATOM      9  C   UNL     1      50.995   5.067  19.857  0.00  0.00    +0.000 C 
ATOM     10  N   UNL     1      51.953   4.101  19.961  0.00  0.00    +0.000 N 
ATOM     11  O   UNL     1      51.049   6.056  20.580  0.00  0.00    +0.000 OA
ATOM     12  H   UNL     1      52.001   3.245  19.419  0.00  0.00    +0.000 HD
ATOM     13  H   UNL     1      52.674   4.250  20.650  0.00  0.00    +0.000 HD
ENDBRANCH   6   9
BRANCH   8  14
ATOM     14  O   UNL     1      46.291   5.396  18.753  0.00  0.00    +0.000 OA
ATOM     15  H   UNL     1      46.299   6.206  19.285  0.00  0.00    +0.000 HD
ENDBRANCH   8  14
ENDBRANCH   1   3
BRANCH   1  16
ATOM     16  C   UNL     1      47.273   3.758  14.836  0.00  0.00    +0.000 C 
BRANCH  16  19
ATOM     17  C   UNL     1      45.122   4.718  11.831  0.00  0.00    +0.000 A 
ATOM     18  C   UNL     1      45.628   4.002  12.925  0.00  0.00    +0.000 A 
ATOM     19  C   UNL     1      46.724   4.505  13.643  0.00  0.00    +0.000 A 
ATOM     20  C   UNL     1      47.297   5.693  13.216  0.00  0.00    +0.000 A 
ATOM     21  C   UNL     1      46.747   6.348  12.127  0.00  0.00    +0.000 A 
ATOM     22  N   UNL     1      45.674   5.891  11.443  0.00  0.00    +0.000 NA
BRANCH  17  24
ATOM     23  C   UNL     1      42.726   5.263  11.390  0.00  0.00    +0.000 C 
ATOM     24  C   UNL     1      43.857   4.256  11.095  0.00  0.00    +0.000 C 
ATOM     25  C   UNL     1      43.365   2.855  11.519  0.00  0.00    +0.000 C 
ATOM     26  C   UNL     1      44.127   4.213   9.578  0.00  0.00    +0.000 C 
ENDBRANCH  17  24
ENDBRANCH  16  19
ENDBRANCH   1  16
TORSDOF 6
ENDMDL
MODEL 5
REMARK VINA RESULT:    -6.387      3.790      5.815
REMARK INTER + INTRA:          -8.902
REMARK INTER:                  -8.306
REMARK INTRA:                  -0.595
REMARK UNBOUND:                -0.461
REMARK  Name = 
REMARK  9 active torsions:
REMARK  status: ('A' for Active; 'I' for Inactive)
REMARK    1  A    between atoms: C_1  and  C_2
REMARK    2  A    between atoms: C_2  and  C_3
REMARK    3  A    between atoms: C_2  and  C_4
REMARK    4  A    between atoms: C_2  and  C_5
REMARK    5  A    between atoms: C_7  and  C_8
REMARK    6  A    between atoms: C_8  and  N_9
REMARK    7  A    between atoms: N_9  and  C_10
REMARK    8  A    between atoms: C_13  and  C_14
REMARK    9  A    between atoms: C_18  and  O_19
REMARK                            x       y       z     vdW  Elec       q    Type
REMARK                         _______ _______ _______ _____ _____    ______ ____
ROOT
ATOM      1  N   UNL     1      47.152   5.156  15.064  0.00  0.00    +0.000 N 
ATOM      2  H   UNL     1      48.101   5.286  14.722  0.00  0.00    +0.000 HD
ENDROOT
BRANCH   1   3
ATOM      3  C   UNL     1      46.384   4.915  13.931  0.00  0.00    +0.000 A 
ATOM      4  N   UNL     1      46.239   3.602  13.649  0.00  0.00    +0.000 NA
ATOM      5  C   UNL     1      45.551   3.257  12.527  0.00  0.00    +0.000 A 
ATOM      6  C   UNL     1      44.971   4.175  11.660  0.00  0.00    +0.000 A 
ATOM      7  C   UNL     1      45.123   5.526  11.967  0.00  0.00    +0.000 A 
ATOM      8  C   UNL     1      45.845   5.899  13.097  0.00  0.00    +0.000 A 
BRANCH   6   9
ATOM      9  C   UNL     1      44.218   3.800  10.444  0.00  0.00    +0.000 C 
ATOM     10  N   UNL     1      44.052   4.712   9.444  0.00  0.00    +0.000 N 
ATOM     11  O   UNL     1      43.742   2.676  10.327  0.00  0.00    +0.000 OA
ATOM     12  H   UNL     1      44.397   5.665   9.438  0.00  0.00    +0.000 HD
ATOM     13  H   UNL     1      43.525   4.410   8.638  0.00  0.00    +0.000 HD
ENDBRANCH   6   9
BRANCH   8  14
ATOM     14  O   UNL     1      45.991   7.226  13.373  0.00  0.00    +0.000 OA
ATOM     15  H   UNL     1      46.928   7.442  13.493  0.00  0.00    +0.000 HD
ENDBRANCH   8  14
ENDBRANCH   1   3
BRANCH   1  16
ATOM     16  C   UNL     1      47.043   4.248  16.193  0.00  0.00    +0.000 C 
BRANCH  16  19
ATOM     17  C   UNL     1      50.610   4.303  17.553  0.00  0.00    +0.000 A 
ATOM     18  C   UNL     1      49.355   4.738  17.104  0.00  0.00    +0.000 A 
ATOM     19  C   UNL     1      48.407   3.802  16.663  0.00  0.00    +0.000 A 
ATOM     20  C   UNL     1      48.764   2.462  16.655  0.00  0.00    +0.000 A 
ATOM     21  C   UNL     1      50.021   2.102  17.111  0.00  0.00    +0.000 A 
ATOM     22  N   UNL     1      50.935   2.989  17.565  0.00  0.00    +0.000 NA
BRANCH  17  24
ATOM     23  C   UNL     1      50.853   6.405  18.877  0.00  0.00    +0.000 C 
ATOM     24  C   UNL     1      51.627   5.287  18.147  0.00  0.00    +0.000 C 
ATOM     25  C   UNL     1      52.539   5.953  17.094  0.00  0.00    +0.000 C 
ATOM     26  C   UNL     1      52.537   4.550  19.150  0.00  0.00    +0.000 C 
ENDBRANCH  17  24
ENDBRANCH  16  19
ENDBRANCH   1  16
TORSDOF 6
ENDMDL
MODEL 6
REMARK VINA RESULT:    -6.325      2.849      4.939
REMARK INTER + INTRA:          -8.820
REMARK INTER:                  -8.127
REMARK INTRA:                  -0.694
REMARK UNBOUND:                -0.461
REMARK  Name = 
REMARK  9 active torsions:
REMARK  status: ('A' for Active; 'I' for Inactive)
REMARK    1  A    between atoms: C_1  and  C_2
REMARK    2  A    between atoms: C_2  and  C_3
REMARK    3  A    between atoms: C_2  and  C_4
REMARK    4  A    between atoms: C_2  and  C_5
REMARK    5  A    between atoms: C_7  and  C_8
REMARK    6  A    between atoms: C_8  and  N_9
REMARK    7  A    between atoms: N_9  and  C_10
REMARK    8  A    between atoms: C_13  and  C_14
REMARK    9  A    between atoms: C_18  and  O_19
REMARK                            x       y       z     vdW  Elec       q    Type
REMARK                         _______ _______ _______ _____ _____    ______ ____
ROOT
ATOM      1  N   UNL     1      46.498   6.791  13.636  0.00  0.00    +0.000 N 
ATOM      2  H   UNL     1      45.777   7.504  13.714  0.00  0.00    +0.000 HD
ENDROOT
BRANCH   1   3
ATOM      3  C   UNL     1      46.041   5.911  12.662  0.00  0.00    +0.000 A 
ATOM      4  N   UNL     1      45.984   6.458  11.428  0.00  0.00    +0.000 NA
ATOM      5  C   UNL     1      45.496   5.699  10.410  0.00  0.00    +0.000 A 
ATOM      6  C   UNL     1      45.068   4.385  10.558  0.00  0.00    +0.000 A 
ATOM      7  C   UNL     1      45.139   3.832  11.835  0.00  0.00    +0.000 A 
ATOM      8  C   UNL     1      45.611   4.601  12.894  0.00  0.00    +0.000 A 
BRANCH   6   9
ATOM      9  C   UNL     1      44.543   3.558   9.450  0.00  0.00    +0.000 C 
ATOM     10  N   UNL     1      44.120   4.159   8.301  0.00  0.00    +0.000 N 
ATOM     11  O   UNL     1      44.485   2.338   9.556  0.00  0.00    +0.000 OA
ATOM     12  H   UNL     1      44.119   5.154   8.110  0.00  0.00    +0.000 HD
ATOM     13  H   UNL     1      43.764   3.552   7.578  0.00  0.00    +0.000 HD
ENDBRANCH   6   9
BRANCH   8  14
ATOM     14  O   UNL     1      45.660   4.045  14.138  0.00  0.00    +0.000 OA
ATOM     15  H   UNL     1      45.993   3.136  14.086  0.00  0.00    +0.000 HD
ENDBRANCH   8  14
ENDBRANCH   1   3
BRANCH   1  16
ATOM     16  C   UNL     1      47.849   7.315  13.531  0.00  0.00    +0.000 C 
BRANCH  16  19
ATOM     17  C   UNL     1      49.042   5.424  16.626  0.00  0.00    +0.000 A 
ATOM     18  C   UNL     1      48.223   5.875  15.582  0.00  0.00    +0.000 A 
ATOM     19  C   UNL     1      48.708   6.830  14.674  0.00  0.00    +0.000 A 
ATOM     20  C   UNL     1      49.990   7.324  14.867  0.00  0.00    +0.000 A 
ATOM     21  C   UNL     1      50.744   6.835  15.920  0.00  0.00    +0.000 A 
ATOM     22  N   UNL     1      50.300   5.896  16.785  0.00  0.00    +0.000 NA
BRANCH  17  24
ATOM     23  C   UNL     1      49.507   3.083  17.356  0.00  0.00    +0.000 C 
ATOM     24  C   UNL     1      48.584   4.301  17.567  0.00  0.00    +0.000 C 
ATOM     25  C   UNL     1      47.130   3.841  17.327  0.00  0.00    +0.000 C 
ATOM     26  C   UNL     1      48.685   4.778  19.030  0.00  0.00    +0.000 C 
ENDBRANCH  17  24
ENDBRANCH  16  19
ENDBRANCH   1  16
TORSDOF 6
ENDMDL
MODEL 7
REMARK VINA RESULT:    -6.318      4.115      6.007
REMARK INTER + INTRA:          -8.811
REMARK INTER:                  -8.283
REMARK INTRA:                  -0.528
REMARK UNBOUND:                -0.461
REMARK  Name = 
REMARK  9 active torsions:
REMARK  status: ('A' for Active; 'I' for Inactive)
REMARK    1  A    between atoms: C_1  and  C_2
REMARK    2  A    between atoms: C_2  and  C_3
REMARK    3  A    between atoms: C_2  and  C_4
REMARK    4  A    between atoms: C_2  and  C_5
REMARK    5  A    between atoms: C_7  and  C_8
REMARK    6  A    between atoms: C_8  and  N_9
REMARK    7  A    between atoms: N_9  and  C_10
REMARK    8  A    between atoms: C_13  and  C_14
REMARK    9  A    between atoms: C_18  and  O_19
REMARK                            x       y       z     vdW  Elec       q    Type
REMARK                         _______ _______ _______ _____ _____    ______ ____
ROOT
ATOM      1  N   UNL     1      47.118   5.118  15.049  0.00  0.00    +0.000 N 
ATOM      2  H   UNL     1      47.983   5.553  14.736  0.00  0.00    +0.000 HD
ENDROOT
BRANCH   1   3
ATOM      3  C   UNL     1      46.381   4.895  13.893  0.00  0.00    +0.000 A 
ATOM      4  N   UNL     1      46.174   3.586  13.632  0.00  0.00    +0.000 NA
ATOM      5  C   UNL     1      45.510   3.255  12.492  0.00  0.00    +0.000 A 
ATOM      6  C   UNL     1      45.013   4.184  11.586  0.00  0.00    +0.000 A 
ATOM      7  C   UNL     1      45.227   5.531  11.872  0.00  0.00    +0.000 A 
ATOM      8  C   UNL     1      45.927   5.888  13.020  0.00  0.00    +0.000 A 
BRANCH   6   9
ATOM      9  C   UNL     1      44.286   3.823  10.350  0.00  0.00    +0.000 C 
ATOM     10  N   UNL     1      44.125   4.752   9.365  0.00  0.00    +0.000 N 
ATOM     11  O   UNL     1      43.825   2.696  10.203  0.00  0.00    +0.000 OA
ATOM     12  H   UNL     1      44.459   5.709   9.384  0.00  0.00    +0.000 HD
ATOM     13  H   UNL     1      43.616   4.460   8.544  0.00  0.00    +0.000 HD
ENDBRANCH   6   9
BRANCH   8  14
ATOM     14  O   UNL     1      46.136   7.211  13.275  0.00  0.00    +0.000 OA
ATOM     15  H   UNL     1      46.823   7.318  13.949  0.00  0.00    +0.000 HD
ENDBRANCH   8  14
ENDBRANCH   1   3
BRANCH   1  16
ATOM     16  C   UNL     1      47.305   4.025  15.987  0.00  0.00    +0.000 C 
BRANCH  16  19
ATOM     17  C   UNL     1      48.676   5.895  19.020  0.00  0.00    +0.000 A 
ATOM     18  C   UNL     1      47.848   5.534  17.948  0.00  0.00    +0.000 A 
ATOM     19  C   UNL     1      48.192   4.442  17.136  0.00  0.00    +0.000 A 
ATOM     20  C   UNL     1      49.375   3.770  17.408  0.00  0.00    +0.000 A 
ATOM     21  C   UNL     1      50.146   4.182  18.483  0.00  0.00    +0.000 A 
ATOM     22  N   UNL     1      49.813   5.214  19.290  0.00  0.00    +0.000 NA
BRANCH  17  24
ATOM     23  C   UNL     1      47.438   8.053  19.222  0.00  0.00    +0.000 C 
ATOM     24  C   UNL     1      48.273   7.011  19.995  0.00  0.00    +0.000 C 
ATOM     25  C   UNL     1      49.472   7.743  20.634  0.00  0.00    +0.000 C 
ATOM     26  C   UNL     1      47.427   6.417  21.139  0.00  0.00    +0.000 C 
ENDBRANCH  17  24
ENDBRANCH  16  19
ENDBRANCH   1  16
TORSDOF 6
ENDMDL
MODEL 8
REMARK VINA RESULT:    -6.066      2.706      6.366
REMARK INTER + INTRA:          -8.478
REMARK INTER:                  -8.850
REMARK INTRA:                   0.373
REMARK UNBOUND:                -0.461
REMARK  Name = 
REMARK  9 active torsions:
REMARK  status: ('A' for Active; 'I' for Inactive)
REMARK    1  A    between atoms: C_1  and  C_2
REMARK    2  A    between atoms: C_2  and  C_3
REMARK    3  A    between atoms: C_2  and  C_4
REMARK    4  A    between atoms: C_2  and  C_5
REMARK    5  A    between atoms: C_7  and  C_8
REMARK    6  A    between atoms: C_8  and  N_9
REMARK    7  A    between atoms: N_9  and  C_10
REMARK    8  A    between atoms: C_13  and  C_14
REMARK    9  A    between atoms: C_18  and  O_19
REMARK                            x       y       z     vdW  Elec       q    Type
REMARK                         _______ _______ _______ _____ _____    ______ ____
ROOT
ATOM      1  N   UNL     1      43.501   2.802  12.260  0.00  0.00    +0.000 N 
ATOM      2  H   UNL     1      43.281   2.295  13.115  0.00  0.00    +0.000 HD
ENDROOT
BRANCH   1   3
ATOM      3  C   UNL     1      44.446   3.751  12.629  0.00  0.00    +0.000 A 
ATOM      4  N   UNL     1      45.669   3.228  12.865  0.00  0.00    +0.000 NA
ATOM      5  C   UNL     1      46.655   4.064  13.287  0.00  0.00    +0.000 A 
ATOM      6  C   UNL     1      46.487   5.431  13.475  0.00  0.00    +0.000 A 
ATOM      7  C   UNL     1      45.222   5.957  13.221  0.00  0.00    +0.000 A 
ATOM      8  C   UNL     1      44.194   5.114  12.813  0.00  0.00    +0.000 A 
BRANCH   6   9
ATOM      9  C   UNL     1      47.561   6.340  13.928  0.00  0.00    +0.000 C 
ATOM     10  N   UNL     1      47.327   7.682  13.996  0.00  0.00    +0.000 N 
ATOM     11  O   UNL     1      48.661   5.898  14.243  0.00  0.00    +0.000 OA
ATOM     12  H   UNL     1      46.461   8.152  13.756  0.00  0.00    +0.000 HD
ATOM     13  H   UNL     1      48.093   8.261  14.305  0.00  0.00    +0.000 HD
ENDBRANCH   6   9
BRANCH   8  14
ATOM     14  O   UNL     1      42.961   5.647  12.581  0.00  0.00    +0.000 OA
ATOM     15  H   UNL     1      42.890   5.943  11.661  0.00  0.00    +0.000 HD
ENDBRANCH   8  14
ENDBRANCH   1   3
BRANCH   1  16
ATOM     16  C   UNL     1      43.768   1.951  11.113  0.00  0.00    +0.000 C 
BRANCH  16  19
ATOM     17  C   UNL     1      45.878   2.872   8.066  0.00  0.00    +0.000 A 
ATOM     18  C   UNL     1      45.311   2.129   9.111  0.00  0.00    +0.000 A 
ATOM     19  C   UNL     1      44.404   2.739   9.992  0.00  0.00    +0.000 A 
ATOM     20  C   UNL     1      44.123   4.085   9.813  0.00  0.00    +0.000 A 
ATOM     21  C   UNL     1      44.719   4.759   8.761  0.00  0.00    +0.000 A 
ATOM     22  N   UNL     1      45.573   4.178   7.888  0.00  0.00    +0.000 NA
BRANCH  17  24
ATOM     23  C   UNL     1      48.104   3.003   6.946  0.00  0.00    +0.000 C 
ATOM     24  C   UNL     1      46.784   2.209   7.020  0.00  0.00    +0.000 C 
ATOM     25  C   UNL     1      46.174   2.171   5.602  0.00  0.00    +0.000 C 
ATOM     26  C   UNL     1      47.079   0.754   7.437  0.00  0.00    +0.000 C 
ENDBRANCH  17  24
ENDBRANCH  16  19
ENDBRANCH   1  16
TORSDOF 6
ENDMDL
MODEL 9
REMARK VINA RESULT:    -5.956      3.965      6.301
REMARK INTER + INTRA:          -8.332
REMARK INTER:                  -7.583
REMARK INTRA:                  -0.749
REMARK UNBOUND:                -0.461
REMARK  Name = 
REMARK  9 active torsions:
REMARK  status: ('A' for Active; 'I' for Inactive)
REMARK    1  A    between atoms: C_1  and  C_2
REMARK    2  A    between atoms: C_2  and  C_3
REMARK    3  A    between atoms: C_2  and  C_4
REMARK    4  A    between atoms: C_2  and  C_5
REMARK    5  A    between atoms: C_7  and  C_8
REMARK    6  A    between atoms: C_8  and  N_9
REMARK    7  A    between atoms: N_9  and  C_10
REMARK    8  A    between atoms: C_13  and  C_14
REMARK    9  A    between atoms: C_18  and  O_19
REMARK                            x       y       z     vdW  Elec       q    Type
REMARK                         _______ _______ _______ _____ _____    ______ ____
ROOT
ATOM      1  N   UNL     1      48.145   6.031  14.109  0.00  0.00    +0.000 N 
ATOM      2  H   UNL     1      48.764   5.236  13.969  0.00  0.00    +0.000 HD
ENDROOT
BRANCH   1   3
ATOM      3  C   UNL     1      46.939   5.663  13.524  0.00  0.00    +0.000 A 
ATOM      4  N   UNL     1      46.205   6.714  13.100  0.00  0.00    +0.000 NA
ATOM      5  C   UNL     1      44.979   6.468  12.563  0.00  0.00    +0.000 A 
ATOM      6  C   UNL     1      44.443   5.196  12.406  0.00  0.00    +0.000 A 
ATOM      7  C   UNL     1      45.215   4.120  12.841  0.00  0.00    +0.000 A 
ATOM      8  C   UNL     1      46.459   4.354  13.416  0.00  0.00    +0.000 A 
BRANCH   6   9
ATOM      9  C   UNL     1      43.113   4.928  11.816  0.00  0.00    +0.000 C 
ATOM     10  N   UNL     1      42.181   5.922  11.772  0.00  0.00    +0.000 N 
ATOM     11  O   UNL     1      42.842   3.820  11.367  0.00  0.00    +0.000 OA
ATOM     12  H   UNL     1      42.297   6.868  12.118  0.00  0.00    +0.000 HD
ATOM     13  H   UNL     1      41.287   5.687  11.367  0.00  0.00    +0.000 HD
ENDBRANCH   6   9
BRANCH   8  14
ATOM     14  O   UNL     1      47.194   3.289  13.846  0.00  0.00    +0.000 OA
ATOM     15  H   UNL     1      47.887   3.077  13.203  0.00  0.00    +0.000 HD
ENDBRANCH   8  14
ENDBRANCH   1   3
BRANCH   1  16
ATOM     16  C   UNL     1      48.139   6.553  15.464  0.00  0.00    +0.000 C 
BRANCH  16  19
ATOM     17  C   UNL     1      50.285   4.345  17.722  0.00  0.00    +0.000 A 
ATOM     18  C   UNL     1      49.914   5.322  16.788  0.00  0.00    +0.000 A 
ATOM     19  C   UNL     1      48.562   5.493  16.454  0.00  0.00    +0.000 A 
ATOM     20  C   UNL     1      47.630   4.652  17.045  0.00  0.00    +0.000 A 
ATOM     21  C   UNL     1      48.066   3.707  17.958  0.00  0.00    +0.000 A 
ATOM     22  N   UNL     1      49.361   3.549  18.311  0.00  0.00    +0.000 NA
BRANCH  17  24
ATOM     23  C   UNL     1      51.797   4.554  19.697  0.00  0.00    +0.000 C 
ATOM     24  C   UNL     1      51.739   4.207  18.195  0.00  0.00    +0.000 C 
ATOM     25  C   UNL     1      52.725   5.137  17.455  0.00  0.00    +0.000 C 
ATOM     26  C   UNL     1      52.218   2.757  17.980  0.00  0.00    +0.000 C 
ENDBRANCH  17  24
ENDBRANCH  16  19
ENDBRANCH   1  16
TORSDOF 6
ENDMDL
