MODEL 1
REMARK VINA RESULT:    -7.574      0.000      0.000
REMARK INTER + INTRA:         -10.188
REMARK INTER:                  -9.567
REMARK INTRA:                  -0.621
REMARK UNBOUND:                -0.621
REMARK  Name = 
REMARK  5 active torsions:
REMARK  status: ('A' for Active; 'I' for Inactive)
REMARK    1  A    between atoms: N_1  and  C_2
REMARK    2  A    between atoms: C_2  and  C_3
REMARK    3  A    between atoms: C_3  and  C_4
REMARK    4  A    between atoms: C_7  and  C_8
REMARK    5  A    between atoms: C_8  and  N_9
REMARK                            x       y       z     vdW  Elec       q    Type
REMARK                         _______ _______ _______ _____ _____    ______ ____
ROOT
ATOM      1  C   UNL     1      45.967   2.542   8.016  0.00  0.00    +0.000 A 
ATOM      2  C   UNL     1      45.237   2.055   9.107  0.00  0.00    +0.000 A 
ATOM      3  C   UNL     1      44.744   2.929  10.080  0.00  0.00    +0.000 A 
ATOM      4  C   UNL     1      44.975   4.309   9.984  0.00  0.00    +0.000 A 
ATOM      5  C   UNL     1      45.666   4.795   8.866  0.00  0.00    +0.000 A 
ATOM      6  C   UNL     1      46.151   3.923   7.888  0.00  0.00    +0.000 A 
ENDROOT
BRANCH   1   7
ATOM      7  C   UNL     1      46.548   1.589   6.998  0.00  0.00    +0.000 C 
BRANCH   7   8
ATOM      8  C   UNL     1      47.247   2.328   5.854  0.00  0.00    +0.000 C 
BRANCH   8   9
ATOM      9  N   UNL     1      48.602   1.818   5.645  0.00  0.00    +0.000 NA
ATOM     10  H   UNL     1      49.270   2.569   5.818  0.00  0.00    +0.000 HD
ATOM     11  H   UNL     1      48.722   1.550   4.669  0.00  0.00    +0.000 HD
ENDBRANCH   8   9
ENDBRANCH   7   8
ENDBRANCH   1   7
BRANCH   4  12
ATOM     12  C   UNL     1      44.504   5.261  11.054  0.00  0.00    +0.000 C 
BRANCH  12  13
ATOM     13  N   UNL     1      45.393   5.297  12.211  0.00  0.00    +0.000 N 
ATOM     14  C   UNL     1      45.285   4.464  13.303  0.00  0.00    +0.000 A 
ATOM     15  C   UNL     1      46.386   4.659  14.109  0.00  0.00    +0.000 A 
ATOM     16  C   UNL     1      47.202   5.627  13.480  0.00  0.00    +0.000 A 
ATOM     17  N   UNL     1      48.406   6.106  13.877  0.00  0.00    +0.000 NA
ATOM     18  C   UNL     1      48.961   7.002  13.040  0.00  0.00    +0.000 A 
ATOM     19  C   UNL     1      48.396   7.468  11.863  0.00  0.00    +0.000 A 
ATOM     20  C   UNL     1      47.151   6.984  11.469  0.00  0.00    +0.000 A 
ATOM     21  C   UNL     1      46.563   6.029  12.307  0.00  0.00    +0.000 A 
ENDBRANCH  12  13
ENDBRANCH   4  12
TORSDOF 5
ENDMDL
MODEL 2
REMARK VINA RESULT:    -7.507      1.424      2.046
REMARK INTER + INTRA:         -10.102
REMARK INTER:                  -9.583
REMARK INTRA:                  -0.519
REMARK UNBOUND:                -0.621
REMARK  Name = 
REMARK  5 active torsions:
REMARK  status: ('A' for Active; 'I' for Inactive)
REMARK    1  A    between atoms: N_1  and  C_2
REMARK    2  A    between atoms: C_2  and  C_3
REMARK    3  A    between atoms: C_3  and  C_4
REMARK    4  A    between atoms: C_7  and  C_8
REMARK    5  A    between atoms: C_8  and  N_9
REMARK                            x       y       z     vdW  Elec       q    Type
REMARK                         _______ _______ _______ _____ _____    ______ ____
ROOT
ATOM      1  C   UNL     1      46.121   2.199   7.860  0.00  0.00    +0.000 A 
ATOM      2  C   UNL     1      45.265   1.615   8.802  0.00  0.00    +0.000 A 
ATOM      3  C   UNL     1      44.479   2.412   9.639  0.00  0.00    +0.000 A 
ATOM      4  C   UNL     1      44.536   3.810   9.555  0.00  0.00    +0.000 A 
ATOM      5  C   UNL     1      45.360   4.389   8.578  0.00  0.00    +0.000 A 
ATOM      6  C   UNL     1      46.139   3.592   7.735  0.00  0.00    +0.000 A 
ENDROOT
BRANCH   1   7
ATOM      7  C   UNL     1      47.012   1.336   6.999  0.00  0.00    +0.000 C 
BRANCH   7   8
ATOM      8  C   UNL     1      48.283   2.073   6.569  0.00  0.00    +0.000 C 
BRANCH   8   9
ATOM      9  N   UNL     1      48.344   2.216   5.113  0.00  0.00    +0.000 NA
ATOM     10  H   UNL     1      47.831   3.053   4.839  0.00  0.00    +0.000 HD
ATOM     11  H   UNL     1      47.866   1.432   4.671  0.00  0.00    +0.000 HD
ENDBRANCH   8   9
ENDBRANCH   7   8
ENDBRANCH   1   7
BRANCH   4  12
ATOM     12  C   UNL     1      43.743   4.688  10.489  0.00  0.00    +0.000 C 
BRANCH  12  13
ATOM     13  N   UNL     1      44.588   5.498  11.361  0.00  0.00    +0.000 N 
ATOM     14  C   UNL     1      44.496   6.868  11.482  0.00  0.00    +0.000 A 
ATOM     15  C   UNL     1      45.319   7.268  12.514  0.00  0.00    +0.000 A 
ATOM     16  C   UNL     1      45.917   6.104  13.051  0.00  0.00    +0.000 A 
ATOM     17  N   UNL     1      46.763   5.997  14.104  0.00  0.00    +0.000 NA
ATOM     18  C   UNL     1      47.135   4.738  14.403  0.00  0.00    +0.000 A 
ATOM     19  C   UNL     1      46.750   3.596  13.718  0.00  0.00    +0.000 A 
ATOM     20  C   UNL     1      45.893   3.715  12.628  0.00  0.00    +0.000 A 
ATOM     21  C   UNL     1      45.466   5.011  12.312  0.00  0.00    +0.000 A 
ENDBRANCH  12  13
ENDBRANCH   4  12
TORSDOF 5
ENDMDL
MODEL 3
REMARK VINA RESULT:    -5.966      2.028      6.638
REMARK INTER + INTRA:          -8.157
REMARK INTER:                  -7.569
REMARK INTRA:                  -0.588
REMARK UNBOUND:                -0.621
REMARK  Name = 
REMARK  5 active torsions:
REMARK  status: ('A' for Active; 'I' for Inactive)
REMARK    1  A    between atoms: N_1  and  C_2
REMARK    2  A    between atoms: C_2  and  C_3
REMARK    3  A    between atoms: C_3  and  C_4
REMARK    4  A    between atoms: C_7  and  C_8
REMARK    5  A    between atoms: C_8  and  N_9
REMARK                            x       y       z     vdW  Elec       q    Type
REMARK                         _______ _______ _______ _____ _____    ______ ____
ROOT
ATOM      1  C   UNL     1      46.464   4.669  14.016  0.00  0.00    +0.000 A 
ATOM      2  C   UNL     1      46.355   3.383  13.471  0.00  0.00    +0.000 A 
ATOM      3  C   UNL     1      45.707   3.181  12.249  0.00  0.00    +0.000 A 
ATOM      4  C   UNL     1      45.152   4.260  11.548  0.00  0.00    +0.000 A 
ATOM      5  C   UNL     1      45.305   5.550  12.074  0.00  0.00    +0.000 A 
ATOM      6  C   UNL     1      45.960   5.754  13.291  0.00  0.00    +0.000 A 
ENDROOT
BRANCH   1   7
ATOM      7  C   UNL     1      47.112   4.876  15.364  0.00  0.00    +0.000 C 
BRANCH   7   8
ATOM      8  C   UNL     1      47.460   3.548  16.043  0.00  0.00    +0.000 C 
BRANCH   8   9
ATOM      9  N   UNL     1      46.716   3.383  17.293  0.00  0.00    +0.000 NA
ATOM     10  H   UNL     1      46.016   4.121  17.363  0.00  0.00    +0.000 HD
ATOM     11  H   UNL     1      47.344   3.511  18.085  0.00  0.00    +0.000 HD
ENDBRANCH   8   9
ENDBRANCH   7   8
ENDBRANCH   1   7
BRANCH   4  12
ATOM     12  C   UNL     1      44.397   4.056  10.259  0.00  0.00    +0.000 C 
BRANCH  12  13
ATOM     13  N   UNL     1      45.274   3.993   9.093  0.00  0.00    +0.000 N 
ATOM     14  C   UNL     1      45.897   5.084   8.528  0.00  0.00    +0.000 A 
ATOM     15  C   UNL     1      46.777   4.631   7.567  0.00  0.00    +0.000 A 
ATOM     16  C   UNL     1      46.702   3.219   7.560  0.00  0.00    +0.000 A 
ATOM     17  N   UNL     1      47.413   2.338   6.815  0.00  0.00    +0.000 NA
ATOM     18  C   UNL     1      47.142   1.042   7.062  0.00  0.00    +0.000 A 
ATOM     19  C   UNL     1      46.206   0.570   7.968  0.00  0.00    +0.000 A 
ATOM     20  C   UNL     1      45.468   1.481   8.719  0.00  0.00    +0.000 A 
ATOM     21  C   UNL     1      45.749   2.835   8.503  0.00  0.00    +0.000 A 
ENDBRANCH  12  13
ENDBRANCH   4  12
TORSDOF 5
ENDMDL
MODEL 4
REMARK VINA RESULT:    -5.858      2.003      6.555
REMARK INTER + INTRA:          -8.020
REMARK INTER:                  -7.548
REMARK INTRA:                  -0.472
REMARK UNBOUND:                -0.621
REMARK  Name = 
REMARK  5 active torsions:
REMARK  status: ('A' for Active; 'I' for Inactive)
REMARK    1  A    between atoms: N_1  and  C_2
REMARK    2  A    between atoms: C_2  and  C_3
REMARK    3  A    between atoms: C_3  and  C_4
REMARK    4  A    between atoms: C_7  and  C_8
REMARK    5  A    between atoms: C_8  and  N_9
REMARK                            x       y       z     vdW  Elec       q    Type
REMARK                         _______ _______ _______ _____ _____    ______ ____
ROOT
ATOM      1  C   UNL     1      47.871   7.323  13.712  0.00  0.00    +0.000 A 
ATOM      2  C   UNL     1      46.990   8.314  13.263  0.00  0.00    +0.000 A 
ATOM      3  C   UNL     1      45.768   7.967  12.679  0.00  0.00    +0.000 A 
ATOM      4  C   UNL     1      45.403   6.621  12.530  0.00  0.00    +0.000 A 
ATOM      5  C   UNL     1      46.268   5.635  13.025  0.00  0.00    +0.000 A 
ATOM      6  C   UNL     1      47.486   5.981  13.616  0.00  0.00    +0.000 A 
ENDROOT
BRANCH   1   7
ATOM      7  C   UNL     1      49.216   7.700  14.288  0.00  0.00    +0.000 C 
BRANCH   7   8
ATOM      8  C   UNL     1      49.473   7.021  15.636  0.00  0.00    +0.000 C 
BRANCH   8   9
ATOM      9  N   UNL     1      48.566   7.529  16.665  0.00  0.00    +0.000 NA
ATOM     10  H   UNL     1      48.380   8.516  16.488  0.00  0.00    +0.000 HD
ATOM     11  H   UNL     1      49.020   7.484  17.576  0.00  0.00    +0.000 HD
ENDBRANCH   8   9
ENDBRANCH   7   8
ENDBRANCH   1   7
BRANCH   4  12
ATOM     12  C   UNL     1      44.118   6.225  11.850  0.00  0.00    +0.000 C 
BRANCH  12  13
ATOM     13  N   UNL     1      44.088   4.815  11.471  0.00  0.00    +0.000 N 
ATOM     14  C   UNL     1      43.373   3.844  12.137  0.00  0.00    +0.000 A 
ATOM     15  C   UNL     1      43.437   2.678  11.403  0.00  0.00    +0.000 A 
ATOM     16  C   UNL     1      44.197   2.952  10.243  0.00  0.00    +0.000 A 
ATOM     17  N   UNL     1      44.490   2.127   9.209  0.00  0.00    +0.000 NA
ATOM     18  C   UNL     1      45.209   2.693   8.221  0.00  0.00    +0.000 A 
ATOM     19  C   UNL     1      45.674   3.998   8.205  0.00  0.00    +0.000 A 
ATOM     20  C   UNL     1      45.383   4.836   9.278  0.00  0.00    +0.000 A 
ATOM     21  C   UNL     1      44.612   4.282  10.307  0.00  0.00    +0.000 A 
ENDBRANCH  12  13
ENDBRANCH   4  12
TORSDOF 5
ENDMDL
MODEL 5
REMARK VINA RESULT:    -5.806      2.055      5.999
REMARK INTER + INTRA:          -7.954
REMARK INTER:                  -7.431
REMARK INTRA:                  -0.523
REMARK UNBOUND:                -0.621
REMARK  Name = 
REMARK  5 active torsions:
REMARK  status: ('A' for Active; 'I' for Inactive)
REMARK    1  A    between atoms: N_1  and  C_2
REMARK    2  A    between atoms: C_2  and  C_3
REMARK    3  A    between atoms: C_3  and  C_4
REMARK    4  A    between atoms: C_7  and  C_8
REMARK    5  A    between atoms: C_8  and  N_9
REMARK                            x       y       z     vdW  Elec       q    Type
REMARK                         _______ _______ _______ _____ _____    ______ ____
ROOT
ATOM      1  C   UNL     1      48.147   7.607  13.107  0.00  0.00    +0.000 A 
ATOM      2  C   UNL     1      47.274   8.547  12.544  0.00  0.00    +0.000 A 
ATOM      3  C   UNL     1      45.995   8.168  12.127  0.00  0.00    +0.000 A 
ATOM      4  C   UNL     1      45.563   6.841  12.261  0.00  0.00    +0.000 A 
ATOM      5  C   UNL     1      46.423   5.915  12.868  0.00  0.00    +0.000 A 
ATOM      6  C   UNL     1      47.699   6.295  13.293  0.00  0.00    +0.000 A 
ENDROOT
BRANCH   1   7
ATOM      7  C   UNL     1      49.549   8.006  13.501  0.00  0.00    +0.000 C 
BRANCH   7   8
ATOM      8  C   UNL     1      50.364   8.499  12.302  0.00  0.00    +0.000 C 
BRANCH   8   9
ATOM      9  N   UNL     1      50.866   7.377  11.508  0.00  0.00    +0.000 NA
ATOM     10  H   UNL     1      50.674   6.507  12.003  0.00  0.00    +0.000 HD
ATOM     11  H   UNL     1      51.879   7.440  11.426  0.00  0.00    +0.000 HD
ENDBRANCH   8   9
ENDBRANCH   7   8
ENDBRANCH   1   7
BRANCH   4  12
ATOM     12  C   UNL     1      44.210   6.400  11.764  0.00  0.00    +0.000 C 
BRANCH  12  13
ATOM     13  N   UNL     1      44.151   4.970  11.474  0.00  0.00    +0.000 N 
ATOM     14  C   UNL     1      43.448   4.052  12.223  0.00  0.00    +0.000 A 
ATOM     15  C   UNL     1      43.472   2.843  11.561  0.00  0.00    +0.000 A 
ATOM     16  C   UNL     1      44.196   3.033  10.362  0.00  0.00    +0.000 A 
ATOM     17  N   UNL     1      44.444   2.142   9.372  0.00  0.00    +0.000 NA
ATOM     18  C   UNL     1      45.135   2.636   8.327  0.00  0.00    +0.000 A 
ATOM     19  C   UNL     1      45.615   3.931   8.214  0.00  0.00    +0.000 A 
ATOM     20  C   UNL     1      45.371   4.838   9.242  0.00  0.00    +0.000 A 
ATOM     21  C   UNL     1      44.628   4.359  10.328  0.00  0.00    +0.000 A 
ENDBRANCH  12  13
ENDBRANCH   4  12
TORSDOF 5
ENDMDL
MODEL 6
REMARK VINA RESULT:    -5.781      1.991      2.692
REMARK INTER + INTRA:          -7.922
REMARK INTER:                  -7.448
REMARK INTRA:                  -0.475
REMARK UNBOUND:                -0.621
REMARK  Name = 
REMARK  5 active torsions:
REMARK  status: ('A' for Active; 'I' for Inactive)
REMARK    1  A    between atoms: N_1  and  C_2
REMARK    2  A    between atoms: C_2  and  C_3
REMARK    3  A    between atoms: C_3  and  C_4
REMARK    4  A    between atoms: C_7  and  C_8
REMARK    5  A    between atoms: C_8  and  N_9
REMARK                            x       y       z     vdW  Elec       q    Type
REMARK                         _______ _______ _______ _____ _____    ______ ____
ROOT
ATOM      1  C   UNL     1      44.618   3.084   9.826  0.00  0.00    +0.000 A 
ATOM      2  C   UNL     1      44.051   2.794  11.073  0.00  0.00    +0.000 A 
ATOM      3  C   UNL     1      44.015   3.762  12.081  0.00  0.00    +0.000 A 
ATOM      4  C   UNL     1      44.549   5.039  11.864  0.00  0.00    +0.000 A 
ATOM      5  C   UNL     1      45.073   5.340  10.599  0.00  0.00    +0.000 A 
ATOM      6  C   UNL     1      45.101   4.375   9.588  0.00  0.00    +0.000 A 
ENDROOT
BRANCH   1   7
ATOM      7  C   UNL     1      44.709   2.018   8.761  0.00  0.00    +0.000 C 
BRANCH   7   8
ATOM      8  C   UNL     1      46.105   1.948   8.136  0.00  0.00    +0.000 C 
BRANCH   8   9
ATOM      9  N   UNL     1      46.547   0.561   7.985  0.00  0.00    +0.000 NA
ATOM     10  H   UNL     1      47.562   0.525   8.069  0.00  0.00    +0.000 HD
ATOM     11  H   UNL     1      46.327   0.231   7.046  0.00  0.00    +0.000 HD
ENDBRANCH   8   9
ENDBRANCH   7   8
ENDBRANCH   1   7
BRANCH   4  12
ATOM     12  C   UNL     1      44.574   6.078  12.957  0.00  0.00    +0.000 C 
BRANCH  12  13
ATOM     13  N   UNL     1      45.865   6.749  13.070  0.00  0.00    +0.000 N 
ATOM     14  C   UNL     1      47.045   6.118  13.398  0.00  0.00    +0.000 A 
ATOM     15  C   UNL     1      48.077   7.019  13.239  0.00  0.00    +0.000 A 
ATOM     16  C   UNL     1      47.512   8.231  12.780  0.00  0.00    +0.000 A 
ATOM     17  N   UNL     1      48.140   9.383  12.444  0.00  0.00    +0.000 NA
ATOM     18  C   UNL     1      47.327  10.361  12.001  0.00  0.00    +0.000 A 
ATOM     19  C   UNL     1      45.947  10.280  11.898  0.00  0.00    +0.000 A 
ATOM     20  C   UNL     1      45.306   9.098  12.260  0.00  0.00    +0.000 A 
ATOM     21  C   UNL     1      46.131   8.054  12.697  0.00  0.00    +0.000 A 
ENDBRANCH  12  13
ENDBRANCH   4  12
TORSDOF 5
ENDMDL
MODEL 7
REMARK VINA RESULT:    -5.357      1.856      2.950
REMARK INTER + INTRA:          -7.387
REMARK INTER:                  -6.746
REMARK INTRA:                  -0.641
REMARK UNBOUND:                -0.621
REMARK  Name = 
REMARK  5 active torsions:
REMARK  status: ('A' for Active; 'I' for Inactive)
REMARK    1  A    between atoms: N_1  and  C_2
REMARK    2  A    between atoms: C_2  and  C_3
REMARK    3  A    between atoms: C_3  and  C_4
REMARK    4  A    between atoms: C_7  and  C_8
REMARK    5  A    between atoms: C_8  and  N_9
REMARK                            x       y       z     vdW  Elec       q    Type
REMARK                         _______ _______ _______ _____ _____    ______ ____
ROOT
ATOM      1  C   UNL     1      44.614   3.227  10.156  0.00  0.00    +0.000 A 
ATOM      2  C   UNL     1      45.135   2.966  11.429  0.00  0.00    +0.000 A 
ATOM      3  C   UNL     1      45.221   3.982  12.385  0.00  0.00    +0.000 A 
ATOM      4  C   UNL     1      44.792   5.283  12.085  0.00  0.00    +0.000 A 
ATOM      5  C   UNL     1      44.227   5.528  10.825  0.00  0.00    +0.000 A 
ATOM      6  C   UNL     1      44.133   4.509   9.873  0.00  0.00    +0.000 A 
ENDROOT
BRANCH   1   7
ATOM      7  C   UNL     1      44.577   2.140   9.108  0.00  0.00    +0.000 C 
BRANCH   7   8
ATOM      8  C   UNL     1      45.945   1.925   8.456  0.00  0.00    +0.000 C 
BRANCH   8   9
ATOM      9  N   UNL     1      46.184   2.902   7.393  0.00  0.00    +0.000 NA
ATOM     10  H   UNL     1      46.931   3.534   7.683  0.00  0.00    +0.000 HD
ATOM     11  H   UNL     1      45.356   3.481   7.266  0.00  0.00    +0.000 HD
ENDBRANCH   8   9
ENDBRANCH   7   8
ENDBRANCH   1   7
BRANCH   4  12
ATOM     12  C   UNL     1      44.932   6.407  13.080  0.00  0.00    +0.000 C 
BRANCH  12  13
ATOM     13  N   UNL     1      45.664   7.550  12.544  0.00  0.00    +0.000 N 
ATOM     14  C   UNL     1      45.106   8.786  12.298  0.00  0.00    +0.000 A 
ATOM     15  C   UNL     1      46.120   9.661  11.969  0.00  0.00    +0.000 A 
ATOM     16  C   UNL     1      47.335   8.942  12.035  0.00  0.00    +0.000 A 
ATOM     17  N   UNL     1      48.597   9.393  11.836  0.00  0.00    +0.000 NA
ATOM     18  C   UNL     1      49.561   8.469  12.008  0.00  0.00    +0.000 A 
ATOM     19  C   UNL     1      49.356   7.138  12.335  0.00  0.00    +0.000 A 
ATOM     20  C   UNL     1      48.056   6.677  12.522  0.00  0.00    +0.000 A 
ATOM     21  C   UNL     1      47.035   7.624  12.377  0.00  0.00    +0.000 A 
ENDBRANCH  12  13
ENDBRANCH   4  12
TORSDOF 5
ENDMDL
MODEL 8
REMARK VINA RESULT:    -5.222      3.730      7.850
REMARK INTER + INTRA:          -7.216
REMARK INTER:                  -6.672
REMARK INTRA:                  -0.544
REMARK UNBOUND:                -0.621
REMARK  Name = 
REMARK  5 active torsions:
REMARK  status: ('A' for Active; 'I' for Inactive)
REMARK    1  A    between atoms: N_1  and  C_2
REMARK    2  A    between atoms: C_2  and  C_3
REMARK    3  A    between atoms: C_3  and  C_4
REMARK    4  A    between atoms: C_7  and  C_8
REMARK    5  A    between atoms: C_8  and  N_9
REMARK                            x       y       z     vdW  Elec       q    Type
REMARK                         _______ _______ _______ _____ _____    ______ ____
ROOT
ATOM      1  C   UNL     1      48.068   5.506  17.561  0.00  0.00    +0.000 A 
ATOM      2  C   UNL     1      47.379   4.463  16.930  0.00  0.00    +0.000 A 
ATOM      3  C   UNL     1      47.259   4.429  15.538  0.00  0.00    +0.000 A 
ATOM      4  C   UNL     1      47.823   5.441  14.747  0.00  0.00    +0.000 A 
ATOM      5  C   UNL     1      48.552   6.457  15.381  0.00  0.00    +0.000 A 
ATOM      6  C   UNL     1      48.680   6.486  16.772  0.00  0.00    +0.000 A 
ENDROOT
BRANCH   1   7
ATOM      7  C   UNL     1      48.144   5.570  19.068  0.00  0.00    +0.000 C 
BRANCH   7   8
ATOM      8  C   UNL     1      49.052   4.480  19.643  0.00  0.00    +0.000 C 
BRANCH   8   9
ATOM      9  N   UNL     1      48.359   3.704  20.672  0.00  0.00    +0.000 NA
ATOM     10  H   UNL     1      47.388   3.571  20.391  0.00  0.00    +0.000 HD
ATOM     11  H   UNL     1      48.333   4.233  21.542  0.00  0.00    +0.000 HD
ENDBRANCH   8   9
ENDBRANCH   7   8
ENDBRANCH   1   7
BRANCH   4  12
ATOM     12  C   UNL     1      47.654   5.455  13.249  0.00  0.00    +0.000 C 
BRANCH  12  13
ATOM     13  N   UNL     1      46.334   5.919  12.832  0.00  0.00    +0.000 N 
ATOM     14  C   UNL     1      46.020   7.233  12.563  0.00  0.00    +0.000 A 
ATOM     15  C   UNL     1      44.748   7.275  12.031  0.00  0.00    +0.000 A 
ATOM     16  C   UNL     1      44.279   5.943  11.956  0.00  0.00    +0.000 A 
ATOM     17  N   UNL     1      43.103   5.487  11.462  0.00  0.00    +0.000 NA
ATOM     18  C   UNL     1      42.959   4.149  11.493  0.00  0.00    +0.000 A 
ATOM     19  C   UNL     1      43.882   3.247  12.000  0.00  0.00    +0.000 A 
ATOM     20  C   UNL     1      45.082   3.724  12.520  0.00  0.00    +0.000 A 
ATOM     21  C   UNL     1      45.271   5.110  12.475  0.00  0.00    +0.000 A 
ENDBRANCH  12  13
ENDBRANCH   4  12
TORSDOF 5
ENDMDL
MODEL 9
REMARK VINA RESULT:    -5.041      3.243      5.020
REMARK INTER + INTRA:          -6.987
REMARK INTER:                  -6.420
REMARK INTRA:                  -0.567
REMARK UNBOUND:                -0.621
REMARK  Name = 
REMARK  5 active torsions:
REMARK  status: ('A' for Active; 'I' for Inactive)
REMARK    1  A    between atoms: N_1  and  C_2
REMARK    2  A    between atoms: C_2  and  C_3
REMARK    3  A    between atoms: C_3  and  C_4
REMARK    4  A    between atoms: C_7  and  C_8
REMARK    5  A    between atoms: C_8  and  N_9
REMARK                            x       y       z     vdW  Elec       q    Type
REMARK                         _______ _______ _______ _____ _____    ______ ____
ROOT
ATOM      1  C   UNL     1      45.267   4.640  11.450  0.00  0.00    +0.000 A 
ATOM      2  C   UNL     1      44.967   5.841  10.796  0.00  0.00    +0.000 A 
ATOM      3  C   UNL     1      45.332   7.067  11.359  0.00  0.00    +0.000 A 
ATOM      4  C   UNL     1      46.003   7.118  12.590  0.00  0.00    +0.000 A 
ATOM      5  C   UNL     1      46.343   5.911  13.216  0.00  0.00    +0.000 A 
ATOM      6  C   UNL     1      45.986   4.684  12.649  0.00  0.00    +0.000 A 
ENDROOT
BRANCH   1   7
ATOM      7  C   UNL     1      44.819   3.320  10.868  0.00  0.00    +0.000 C 
BRANCH   7   8
ATOM      8  C   UNL     1      43.407   2.943  11.322  0.00  0.00    +0.000 C 
BRANCH   8   9
ATOM      9  N   UNL     1      43.444   2.066  12.493  0.00  0.00    +0.000 NA
ATOM     10  H   UNL     1      44.179   1.371  12.364  0.00  0.00    +0.000 HD
ATOM     11  H   UNL     1      42.571   1.546  12.561  0.00  0.00    +0.000 HD
ENDBRANCH   8   9
ENDBRANCH   7   8
ENDBRANCH   1   7
BRANCH   4  12
ATOM     12  C   UNL     1      46.352   8.431  13.242  0.00  0.00    +0.000 C 
BRANCH  12  13
ATOM     13  N   UNL     1      47.161   9.292  12.385  0.00  0.00    +0.000 N 
ATOM     14  C   UNL     1      46.785  10.550  11.965  0.00  0.00    +0.000 A 
ATOM     15  C   UNL     1      47.859  11.133  11.326  0.00  0.00    +0.000 A 
ATOM     16  C   UNL     1      48.929  10.210  11.373  0.00  0.00    +0.000 A 
ATOM     17  N   UNL     1      50.195  10.359  10.914  0.00  0.00    +0.000 NA
ATOM     18  C   UNL     1      51.005   9.308  11.142  0.00  0.00    +0.000 A 
ATOM     19  C   UNL     1      50.640   8.125  11.763  0.00  0.00    +0.000 A 
ATOM     20  C   UNL     1      49.333   7.972  12.218  0.00  0.00    +0.000 A 
ATOM     21  C   UNL     1      48.476   9.061  12.020  0.00  0.00    +0.000 A 
ENDBRANCH  12  13
ENDBRANCH   4  12
TORSDOF 5
ENDMDL
