MODEL 1
REMARK VINA RESULT:    -8.461      0.000      0.000
REMARK INTER + INTRA:         -11.876
REMARK INTER:                 -10.935
REMARK INTRA:                  -0.942
REMARK UNBOUND:                -0.942
REMARK  Name = 
REMARK  7 active torsions:
REMARK  status: ('A' for Active; 'I' for Inactive)
REMARK    1  A    between atoms: C_1  and  O_2
REMARK    2  A    between atoms: O_2  and  C_3
REMARK    3  A    between atoms: C_6  and  C_7
REMARK    4  A    between atoms: C_7  and  C_8
REMARK    5  A    between atoms: C_7  and  N_9
REMARK    6  A    between atoms: N_9  and  C_10
REMARK    7  A    between atoms: C_13  and  C_14
REMARK                            x       y       z     vdW  Elec       q    Type
REMARK                         _______ _______ _______ _____ _____    ______ ____
ROOT
ATOM      1  N   UNL     1      43.733   4.776   9.940  0.00  0.00    +0.000 N 
ATOM      2  H   UNL     1      42.961   5.184   9.423  0.00  0.00    +0.000 HD
ENDROOT
BRANCH   1   3
ATOM      3  C   UNL     1      44.529   3.919   9.196  0.00  0.00    +0.000 A 
ATOM      4  C   UNL     1      44.571   2.534   9.371  0.00  0.00    +0.000 A 
ATOM      5  C   UNL     1      45.481   1.736   8.662  0.00  0.00    +0.000 A 
ATOM      6  C   UNL     1      46.387   2.313   7.765  0.00  0.00    +0.000 A 
ATOM      7  C   UNL     1      46.379   3.698   7.594  0.00  0.00    +0.000 A 
ATOM      8  C   UNL     1      45.463   4.482   8.309  0.00  0.00    +0.000 A 
BRANCH   6   9
ATOM      9  C   UNL     1      47.358   1.423   7.071  0.00  0.00    +0.000 C 
ATOM     10  N   UNL     1      48.463   2.002   6.513  0.00  0.00    +0.000 N 
ATOM     11  O   UNL     1      47.167   0.218   6.969  0.00  0.00    +0.000 OA
ATOM     12  H   UNL     1      48.550   2.997   6.369  0.00  0.00    +0.000 HD
ATOM     13  H   UNL     1      49.057   1.392   5.964  0.00  0.00    +0.000 HD
ENDBRANCH   6   9
ENDBRANCH   1   3
BRANCH   1  14
ATOM     14  C   UNL     1      43.502   4.689  11.382  0.00  0.00    +0.000 C 
ATOM     15  C   UNL     1      42.375   5.631  11.810  0.00  0.00    +0.000 C 
BRANCH  14  19
ATOM     16  C   UNL     1      47.229   5.592  13.450  0.00  0.00    +0.000 A 
ATOM     17  C   UNL     1      46.653   4.327  13.544  0.00  0.00    +0.000 A 
ATOM     18  C   UNL     1      45.452   4.048  12.876  0.00  0.00    +0.000 A 
ATOM     19  C   UNL     1      44.803   5.026  12.107  0.00  0.00    +0.000 A 
ATOM     20  C   UNL     1      45.386   6.300  12.033  0.00  0.00    +0.000 A 
ATOM     21  C   UNL     1      46.587   6.575  12.696  0.00  0.00    +0.000 A 
BRANCH  16  23
ATOM     22  C   UNL     1      49.071   7.096  13.443  0.00  0.00    +0.000 C 
ATOM     23  O   UNL     1      48.397   5.994  14.037  0.00  0.00    +0.000 OA
ENDBRANCH  16  23
ENDBRANCH  14  19
ENDBRANCH   1  14
TORSDOF 5
ENDMDL
MODEL 2
REMARK VINA RESULT:    -6.933      1.955      6.213
REMARK INTER + INTRA:          -9.902
REMARK INTER:                  -9.595
REMARK INTRA:                  -0.307
REMARK UNBOUND:                -0.942
REMARK  Name = 
REMARK  7 active torsions:
REMARK  status: ('A' for Active; 'I' for Inactive)
REMARK    1  A    between atoms: C_1  and  O_2
REMARK    2  A    between atoms: O_2  and  C_3
REMARK    3  A    between atoms: C_6  and  C_7
REMARK    4  A    between atoms: C_7  and  C_8
REMARK    5  A    between atoms: C_7  and  N_9
REMARK    6  A    between atoms: N_9  and  C_10
REMARK    7  A    between atoms: C_13  and  C_14
REMARK                            x       y       z     vdW  Elec       q    Type
REMARK                         _______ _______ _______ _____ _____    ______ ____
ROOT
ATOM      1  N   UNL     1      44.235   5.445  10.642  0.00  0.00    +0.000 N 
ATOM      2  H   UNL     1      44.129   6.215   9.990  0.00  0.00    +0.000 HD
ENDROOT
BRANCH   1   3
ATOM      3  C   UNL     1      45.285   5.595  11.536  0.00  0.00    +0.000 A 
ATOM      4  C   UNL     1      45.348   4.976  12.786  0.00  0.00    +0.000 A 
ATOM      5  C   UNL     1      46.384   5.257  13.688  0.00  0.00    +0.000 A 
ATOM      6  C   UNL     1      47.382   6.182  13.363  0.00  0.00    +0.000 A 
ATOM      7  C   UNL     1      47.325   6.830  12.128  0.00  0.00    +0.000 A 
ATOM      8  C   UNL     1      46.283   6.538  11.236  0.00  0.00    +0.000 A 
BRANCH   6   9
ATOM      9  C   UNL     1      48.434   6.473  14.374  0.00  0.00    +0.000 C 
ATOM     10  N   UNL     1      48.079   6.421  15.693  0.00  0.00    +0.000 N 
ATOM     11  O   UNL     1      49.574   6.780  14.047  0.00  0.00    +0.000 OA
ATOM     12  H   UNL     1      47.120   6.402  16.004  0.00  0.00    +0.000 HD
ATOM     13  H   UNL     1      48.785   6.717  16.357  0.00  0.00    +0.000 HD
ENDBRANCH   6   9
ENDBRANCH   1   3
BRANCH   1  14
ATOM     14  C   UNL     1      43.709   4.173  10.151  0.00  0.00    +0.000 C 
ATOM     15  C   UNL     1      43.363   3.241  11.314  0.00  0.00    +0.000 C 
BRANCH  14  19
ATOM     16  C   UNL     1      46.642   2.304   7.526  0.00  0.00    +0.000 A 
ATOM     17  C   UNL     1      45.904   1.538   8.427  0.00  0.00    +0.000 A 
ATOM     18  C   UNL     1      44.964   2.150   9.268  0.00  0.00    +0.000 A 
ATOM     19  C   UNL     1      44.747   3.537   9.230  0.00  0.00    +0.000 A 
ATOM     20  C   UNL     1      45.508   4.298   8.329  0.00  0.00    +0.000 A 
ATOM     21  C   UNL     1      46.441   3.685   7.487  0.00  0.00    +0.000 A 
BRANCH  16  23
ATOM     22  C   UNL     1      47.679   2.510   5.396  0.00  0.00    +0.000 C 
ATOM     23  O   UNL     1      47.578   1.837   6.645  0.00  0.00    +0.000 OA
ENDBRANCH  16  23
ENDBRANCH  14  19
ENDBRANCH   1  14
TORSDOF 5
ENDMDL
MODEL 3
REMARK VINA RESULT:    -6.648      2.018      6.633
REMARK INTER + INTRA:          -9.532
REMARK INTER:                  -9.140
REMARK INTRA:                  -0.393
REMARK UNBOUND:                -0.942
REMARK  Name = 
REMARK  7 active torsions:
REMARK  status: ('A' for Active; 'I' for Inactive)
REMARK    1  A    between atoms: C_1  and  O_2
REMARK    2  A    between atoms: O_2  and  C_3
REMARK    3  A    between atoms: C_6  and  C_7
REMARK    4  A    between atoms: C_7  and  C_8
REMARK    5  A    between atoms: C_7  and  N_9
REMARK    6  A    between atoms: N_9  and  C_10
REMARK    7  A    between atoms: C_13  and  C_14
REMARK                            x       y       z     vdW  Elec       q    Type
REMARK                         _______ _______ _______ _____ _____    ______ ____
ROOT
ATOM      1  N   UNL     1      44.190   5.792  10.382  0.00  0.00    +0.000 N 
ATOM      2  H   UNL     1      44.266   6.234   9.472  0.00  0.00    +0.000 HD
ENDROOT
BRANCH   1   3
ATOM      3  C   UNL     1      44.997   6.355  11.360  0.00  0.00    +0.000 A 
ATOM      4  C   UNL     1      44.720   7.559  12.010  0.00  0.00    +0.000 A 
ATOM      5  C   UNL     1      45.634   8.130  12.908  0.00  0.00    +0.000 A 
ATOM      6  C   UNL     1      46.861   7.511  13.167  0.00  0.00    +0.000 A 
ATOM      7  C   UNL     1      47.169   6.319  12.508  0.00  0.00    +0.000 A 
ATOM      8  C   UNL     1      46.245   5.760  11.614  0.00  0.00    +0.000 A 
BRANCH   6   9
ATOM      9  C   UNL     1      47.810   8.182  14.097  0.00  0.00    +0.000 C 
ATOM     10  N   UNL     1      47.299   9.098  14.973  0.00  0.00    +0.000 N 
ATOM     11  O   UNL     1      49.013   7.952  14.066  0.00  0.00    +0.000 OA
ATOM     12  H   UNL     1      46.372   9.487  14.885  0.00  0.00    +0.000 HD
ATOM     13  H   UNL     1      47.975   9.610  15.527  0.00  0.00    +0.000 HD
ENDBRANCH   6   9
ENDBRANCH   1   3
BRANCH   1  14
ATOM     14  C   UNL     1      43.762   4.395  10.331  0.00  0.00    +0.000 C 
ATOM     15  C   UNL     1      43.781   3.768  11.726  0.00  0.00    +0.000 C 
BRANCH  14  19
ATOM     16  C   UNL     1      46.421   2.282   7.602  0.00  0.00    +0.000 A 
ATOM     17  C   UNL     1      46.245   3.660   7.497  0.00  0.00    +0.000 A 
ATOM     18  C   UNL     1      45.385   4.330   8.379  0.00  0.00    +0.000 A 
ATOM     19  C   UNL     1      44.683   3.636   9.378  0.00  0.00    +0.000 A 
ATOM     20  C   UNL     1      44.858   2.247   9.462  0.00  0.00    +0.000 A 
ATOM     21  C   UNL     1      45.721   1.582   8.585  0.00  0.00    +0.000 A 
BRANCH  16  23
ATOM     22  C   UNL     1      47.941   2.169   5.776  0.00  0.00    +0.000 C 
ATOM     23  O   UNL     1      47.234   1.509   6.819  0.00  0.00    +0.000 OA
ENDBRANCH  16  23
ENDBRANCH  14  19
ENDBRANCH   1  14
TORSDOF 5
ENDMDL
MODEL 4
REMARK VINA RESULT:    -6.293      2.449      6.762
REMARK INTER + INTRA:          -9.075
REMARK INTER:                  -8.330
REMARK INTRA:                  -0.745
REMARK UNBOUND:                -0.942
REMARK  Name = 
REMARK  7 active torsions:
REMARK  status: ('A' for Active; 'I' for Inactive)
REMARK    1  A    between atoms: C_1  and  O_2
REMARK    2  A    between atoms: O_2  and  C_3
REMARK    3  A    between atoms: C_6  and  C_7
REMARK    4  A    between atoms: C_7  and  C_8
REMARK    5  A    between atoms: C_7  and  N_9
REMARK    6  A    between atoms: N_9  and  C_10
REMARK    7  A    between atoms: C_13  and  C_14
REMARK                            x       y       z     vdW  Elec       q    Type
REMARK                         _______ _______ _______ _____ _____    ______ ____
ROOT
ATOM      1  N   UNL     1      45.200   5.024  11.988  0.00  0.00    +0.000 N 
ATOM      2  H   UNL     1      45.111   4.442  12.815  0.00  0.00    +0.000 HD
ENDROOT
BRANCH   1   3
ATOM      3  C   UNL     1      45.807   6.250  12.215  0.00  0.00    +0.000 A 
ATOM      4  C   UNL     1      45.155   7.362  12.752  0.00  0.00    +0.000 A 
ATOM      5  C   UNL     1      45.796   8.606  12.851  0.00  0.00    +0.000 A 
ATOM      6  C   UNL     1      47.109   8.769  12.398  0.00  0.00    +0.000 A 
ATOM      7  C   UNL     1      47.770   7.677  11.835  0.00  0.00    +0.000 A 
ATOM      8  C   UNL     1      47.117   6.439  11.743  0.00  0.00    +0.000 A 
BRANCH   6   9
ATOM      9  C   UNL     1      47.726  10.121  12.490  0.00  0.00    +0.000 C 
ATOM     10  N   UNL     1      46.891  11.203  12.471  0.00  0.00    +0.000 N 
ATOM     11  O   UNL     1      48.940  10.272  12.547  0.00  0.00    +0.000 OA
ATOM     12  H   UNL     1      45.922  11.145  12.197  0.00  0.00    +0.000 HD
ATOM     13  H   UNL     1      47.338  12.111  12.437  0.00  0.00    +0.000 HD
ENDBRANCH   6   9
ENDBRANCH   1   3
BRANCH   1  14
ATOM     14  C   UNL     1      44.204   4.743  10.955  0.00  0.00    +0.000 C 
ATOM     15  C   UNL     1      43.024   3.961  11.535  0.00  0.00    +0.000 C 
BRANCH  14  19
ATOM     16  C   UNL     1      46.158   2.569   7.725  0.00  0.00    +0.000 A 
ATOM     17  C   UNL     1      46.175   3.962   7.755  0.00  0.00    +0.000 A 
ATOM     18  C   UNL     1      45.541   4.652   8.799  0.00  0.00    +0.000 A 
ATOM     19  C   UNL     1      44.876   3.965   9.827  0.00  0.00    +0.000 A 
ATOM     20  C   UNL     1      44.854   2.563   9.776  0.00  0.00    +0.000 A 
ATOM     21  C   UNL     1      45.492   1.876   8.737  0.00  0.00    +0.000 A 
BRANCH  16  23
ATOM     22  C   UNL     1      48.103   2.043   6.462  0.00  0.00    +0.000 C 
ATOM     23  O   UNL     1      46.743   1.774   6.778  0.00  0.00    +0.000 OA
ENDBRANCH  16  23
ENDBRANCH  14  19
ENDBRANCH   1  14
TORSDOF 5
ENDMDL
MODEL 5
REMARK VINA RESULT:    -5.743      3.126      7.156
REMARK INTER + INTRA:          -8.363
REMARK INTER:                  -7.761
REMARK INTRA:                  -0.602
REMARK UNBOUND:                -0.942
REMARK  Name = 
REMARK  7 active torsions:
REMARK  status: ('A' for Active; 'I' for Inactive)
REMARK    1  A    between atoms: C_1  and  O_2
REMARK    2  A    between atoms: O_2  and  C_3
REMARK    3  A    between atoms: C_6  and  C_7
REMARK    4  A    between atoms: C_7  and  C_8
REMARK    5  A    between atoms: C_7  and  N_9
REMARK    6  A    between atoms: N_9  and  C_10
REMARK    7  A    between atoms: C_13  and  C_14
REMARK                            x       y       z     vdW  Elec       q    Type
REMARK                         _______ _______ _______ _____ _____    ______ ____
ROOT
ATOM      1  N   UNL     1      45.926   4.008  13.306  0.00  0.00    +0.000 N 
ATOM      2  H   UNL     1      45.816   3.030  13.558  0.00  0.00    +0.000 HD
ENDROOT
BRANCH   1   3
ATOM      3  C   UNL     1      46.746   4.729  14.161  0.00  0.00    +0.000 A 
ATOM      4  C   UNL     1      47.437   5.886  13.796  0.00  0.00    +0.000 A 
ATOM      5  C   UNL     1      48.338   6.505  14.675  0.00  0.00    +0.000 A 
ATOM      6  C   UNL     1      48.581   5.967  15.943  0.00  0.00    +0.000 A 
ATOM      7  C   UNL     1      47.919   4.797  16.319  0.00  0.00    +0.000 A 
ATOM      8  C   UNL     1      47.020   4.190  15.430  0.00  0.00    +0.000 A 
BRANCH   6   9
ATOM      9  C   UNL     1      49.577   6.642  16.819  0.00  0.00    +0.000 C 
ATOM     10  N   UNL     1      50.902   6.417  16.565  0.00  0.00    +0.000 N 
ATOM     11  O   UNL     1      49.235   7.350  17.757  0.00  0.00    +0.000 OA
ATOM     12  H   UNL     1      51.228   5.674  15.965  0.00  0.00    +0.000 HD
ATOM     13  H   UNL     1      51.556   6.807  17.232  0.00  0.00    +0.000 HD
ENDBRANCH   6   9
ENDBRANCH   1   3
BRANCH   1  14
ATOM     14  C   UNL     1      44.808   4.552  12.536  0.00  0.00    +0.000 C 
ATOM     15  C   UNL     1      43.487   3.916  12.972  0.00  0.00    +0.000 C 
BRANCH  14  19
ATOM     16  C   UNL     1      45.515   3.809   8.302  0.00  0.00    +0.000 A 
ATOM     17  C   UNL     1      44.979   2.814   9.118  0.00  0.00    +0.000 A 
ATOM     18  C   UNL     1      44.757   3.063  10.480  0.00  0.00    +0.000 A 
ATOM     19  C   UNL     1      45.071   4.306  11.052  0.00  0.00    +0.000 A 
ATOM     20  C   UNL     1      45.624   5.293  10.223  0.00  0.00    +0.000 A 
ATOM     21  C   UNL     1      45.839   5.044   8.863  0.00  0.00    +0.000 A 
BRANCH  16  23
ATOM     22  C   UNL     1      46.911   2.947   6.580  0.00  0.00    +0.000 C 
ATOM     23  O   UNL     1      45.769   3.704   6.962  0.00  0.00    +0.000 OA
ENDBRANCH  16  23
ENDBRANCH  14  19
ENDBRANCH   1  14
TORSDOF 5
ENDMDL
