MODEL 1
REMARK VINA RESULT:    -8.340      0.000      0.000
REMARK INTER + INTRA:         -13.554
REMARK INTER:                 -12.485
REMARK INTRA:                  -1.069
REMARK UNBOUND:                -1.069
REMARK  Name = 
REMARK  9 active torsions:
REMARK  status: ('A' for Active; 'I' for Inactive)
REMARK    1  A    between atoms: N_1  and  C_2
REMARK    2  A    between atoms: C_2  and  C_3
REMARK    3  A    between atoms: C_3  and  N_4
REMARK    4  A    between atoms: C_3  and  C_20
REMARK    5  A    between atoms: N_4  and  C_5
REMARK    6  A    between atoms: C_5  and  C_6
REMARK    7  A    between atoms: C_9  and  C_10
REMARK    8  A    between atoms: C_10  and  C_11
REMARK    9  A    between atoms: C_11  and  N_12
REMARK                            x       y       z     vdW  Elec       q    Type
REMARK                         _______ _______ _______ _____ _____    ______ ____
ROOT
ATOM      1  N   UNL     1      48.108   6.013  16.076  0.00  0.00    +0.000 NA
ATOM      2  H   UNL     1      48.744   6.618  16.595  0.00  0.00    +0.000 HD
ENDROOT
BRANCH   1   3
ATOM      3  C   UNL     1      48.226   4.663  16.657  0.00  0.00    +0.000 C 
BRANCH   3   4
ATOM      4  C   UNL     1      49.590   4.587  17.336  0.00  0.00    +0.000 A 
ATOM      5  C   UNL     1      50.189   5.615  18.051  0.00  0.00    +0.000 A 
ATOM      6  S   UNL     1      51.708   5.192  18.706  0.00  0.00    +0.000 S 
ATOM      7  C   UNL     1      51.601   3.613  18.080  0.00  0.00    +0.000 A 
ATOM      8  N   UNL     1      52.584   2.700  18.296  0.00  0.00    +0.000 NA
ATOM      9  C   UNL     1      52.348   1.539  17.777  0.00  0.00    +0.000 A 
ATOM     10  N   UNL     1      51.229   1.210  17.059  0.00  0.00    +0.000 N 
ATOM     11  C   UNL     1      50.207   2.102  16.812  0.00  0.00    +0.000 A 
ATOM     12  O   UNL     1      49.210   1.780  16.171  0.00  0.00    +0.000 OA
ATOM     13  C   UNL     1      50.428   3.417  17.374  0.00  0.00    +0.000 A 
ATOM     14  H   UNL     1      51.107   0.283  16.681  0.00  0.00    +0.000 HD
ENDBRANCH   3   4
BRANCH   3  15
ATOM     15  C   UNL     1      47.084   4.304  17.659  0.00  0.00    +0.000 C 
BRANCH  15  16
ATOM     16  N   UNL     1      46.702   2.886  17.646  0.00  0.00    +0.000 NA
ATOM     17  H   UNL     1      47.458   2.315  18.009  0.00  0.00    +0.000 HD
ATOM     18  H   UNL     1      46.529   2.610  16.678  0.00  0.00    +0.000 HD
ENDBRANCH  15  16
ENDBRANCH   3  15
ENDBRANCH   1   3
BRANCH   1  19
ATOM     19  C   UNL     1      48.471   6.071  14.663  0.00  0.00    +0.000 C 
BRANCH  19  20
ATOM     20  C   UNL     1      47.247   5.882  13.798  0.00  0.00    +0.000 A 
ATOM     21  C   UNL     1      46.646   6.989  13.193  0.00  0.00    +0.000 A 
ATOM     22  C   UNL     1      45.503   6.836  12.409  0.00  0.00    +0.000 A 
ATOM     23  C   UNL     1      44.966   5.566  12.164  0.00  0.00    +0.000 A 
ATOM     24  C   UNL     1      45.560   4.458  12.782  0.00  0.00    +0.000 A 
ATOM     25  C   UNL     1      46.690   4.614  13.591  0.00  0.00    +0.000 A 
BRANCH  23  26
ATOM     26  C   UNL     1      43.750   5.376  11.277  0.00  0.00    +0.000 C 
BRANCH  26  27
ATOM     27  C   UNL     1      43.869   4.153  10.365  0.00  0.00    +0.000 C 
BRANCH  27  28
ATOM     28  N   UNL     1      44.296   4.502   9.021  0.00  0.00    +0.000 N 
ATOM     29  C   UNL     1      45.258   3.784   8.396  0.00  0.00    +0.000 C 
ATOM     30  N   UNL     1      46.108   4.282   7.552  0.00  0.00    +0.000 NA
ATOM     31  C   UNL     1      46.912   3.107   7.117  0.00  0.00    +0.000 C 
ATOM     32  C   UNL     1      46.414   1.896   7.913  0.00  0.00    +0.000 C 
ATOM     33  N   UNL     1      45.349   2.466   8.703  0.00  0.00    +0.000 N 
ATOM     34  H   UNL     1      44.462   5.495   8.882  0.00  0.00    +0.000 HD
ATOM     35  H   UNL     1      44.460   1.983   8.659  0.00  0.00    +0.000 HD
ENDBRANCH  27  28
ENDBRANCH  26  27
ENDBRANCH  23  26
ENDBRANCH  19  20
ENDBRANCH   1  19
TORSDOF 9
ENDMDL
MODEL 2
REMARK VINA RESULT:    -7.515      1.892      2.347
REMARK INTER + INTRA:         -12.318
REMARK INTER:                 -11.380
REMARK INTRA:                  -0.938
REMARK UNBOUND:                -1.069
REMARK  Name = 
REMARK  9 active torsions:
REMARK  status: ('A' for Active; 'I' for Inactive)
REMARK    1  A    between atoms: N_1  and  C_2
REMARK    2  A    between atoms: C_2  and  C_3
REMARK    3  A    between atoms: C_3  and  N_4
REMARK    4  A    between atoms: C_3  and  C_20
REMARK    5  A    between atoms: N_4  and  C_5
REMARK    6  A    between atoms: C_5  and  C_6
REMARK    7  A    between atoms: C_9  and  C_10
REMARK    8  A    between atoms: C_10  and  C_11
REMARK    9  A    between atoms: C_11  and  N_12
REMARK                            x       y       z     vdW  Elec       q    Type
REMARK                         _______ _______ _______ _____ _____    ______ ____
ROOT
ATOM      1  N   UNL     1      47.215   4.905  15.826  0.00  0.00    +0.000 NA
ATOM      2  H   UNL     1      46.834   5.602  16.464  0.00  0.00    +0.000 HD
ENDROOT
BRANCH   1   3
ATOM      3  C   UNL     1      48.309   4.220  16.539  0.00  0.00    +0.000 C 
BRANCH   3   4
ATOM      4  C   UNL     1      48.374   4.820  17.940  0.00  0.00    +0.000 A 
ATOM      5  C   UNL     1      47.319   5.439  18.598  0.00  0.00    +0.000 A 
ATOM      6  S   UNL     1      47.720   5.979  20.166  0.00  0.00    +0.000 S 
ATOM      7  C   UNL     1      49.307   5.378  20.029  0.00  0.00    +0.000 A 
ATOM      8  N   UNL     1      50.197   5.495  21.050  0.00  0.00    +0.000 NA
ATOM      9  C   UNL     1      51.353   4.970  20.803  0.00  0.00    +0.000 A 
ATOM     10  N   UNL     1      51.702   4.350  19.632  0.00  0.00    +0.000 N 
ATOM     11  C   UNL     1      50.836   4.211  18.569  0.00  0.00    +0.000 A 
ATOM     12  O   UNL     1      51.172   3.645  17.532  0.00  0.00    +0.000 OA
ATOM     13  C   UNL     1      49.528   4.784  18.800  0.00  0.00    +0.000 A 
ATOM     14  H   UNL     1      52.624   3.961  19.506  0.00  0.00    +0.000 HD
ENDBRANCH   3   4
BRANCH   3  15
ATOM     15  C   UNL     1      48.147   2.669  16.604  0.00  0.00    +0.000 C 
BRANCH  15  16
ATOM     16  N   UNL     1      49.290   1.925  16.059  0.00  0.00    +0.000 NA
ATOM     17  H   UNL     1      49.932   2.559  15.594  0.00  0.00    +0.000 HD
ATOM     18  H   UNL     1      48.940   1.261  15.367  0.00  0.00    +0.000 HD
ENDBRANCH  15  16
ENDBRANCH   3  15
ENDBRANCH   1   3
BRANCH   1  19
ATOM     19  C   UNL     1      47.652   5.586  14.610  0.00  0.00    +0.000 C 
BRANCH  19  20
ATOM     20  C   UNL     1      46.685   5.318  13.481  0.00  0.00    +0.000 A 
ATOM     21  C   UNL     1      46.364   6.339  12.582  0.00  0.00    +0.000 A 
ATOM     22  C   UNL     1      45.457   6.115  11.548  0.00  0.00    +0.000 A 
ATOM     23  C   UNL     1      44.892   4.848  11.351  0.00  0.00    +0.000 A 
ATOM     24  C   UNL     1      45.202   3.828  12.260  0.00  0.00    +0.000 A 
ATOM     25  C   UNL     1      46.091   4.060  13.315  0.00  0.00    +0.000 A 
BRANCH  23  26
ATOM     26  C   UNL     1      43.938   4.574  10.204  0.00  0.00    +0.000 C 
BRANCH  26  27
ATOM     27  C   UNL     1      44.293   3.302   9.431  0.00  0.00    +0.000 C 
BRANCH  27  28
ATOM     28  N   UNL     1      44.649   3.572   8.048  0.00  0.00    +0.000 N 
ATOM     29  C   UNL     1      45.780   3.056   7.515  0.00  0.00    +0.000 C 
ATOM     30  N   UNL     1      46.493   3.645   6.604  0.00  0.00    +0.000 NA
ATOM     31  C   UNL     1      47.585   2.673   6.320  0.00  0.00    +0.000 C 
ATOM     32  C   UNL     1      47.398   1.489   7.274  0.00  0.00    +0.000 C 
ATOM     33  N   UNL     1      46.202   1.859   7.992  0.00  0.00    +0.000 N 
ATOM     34  H   UNL     1      44.554   4.547   7.778  0.00  0.00    +0.000 HD
ATOM     35  H   UNL     1      45.471   1.159   8.021  0.00  0.00    +0.000 HD
ENDBRANCH  27  28
ENDBRANCH  26  27
ENDBRANCH  23  26
ENDBRANCH  19  20
ENDBRANCH   1  19
TORSDOF 9
ENDMDL
MODEL 3
REMARK VINA RESULT:    -7.306      1.863      2.695
REMARK INTER + INTRA:         -12.005
REMARK INTER:                 -10.999
REMARK INTRA:                  -1.007
REMARK UNBOUND:                -1.069
REMARK  Name = 
REMARK  9 active torsions:
REMARK  status: ('A' for Active; 'I' for Inactive)
REMARK    1  A    between atoms: N_1  and  C_2
REMARK    2  A    between atoms: C_2  and  C_3
REMARK    3  A    between atoms: C_3  and  N_4
REMARK    4  A    between atoms: C_3  and  C_20
REMARK    5  A    between atoms: N_4  and  C_5
REMARK    6  A    between atoms: C_5  and  C_6
REMARK    7  A    between atoms: C_9  and  C_10
REMARK    8  A    between atoms: C_10  and  C_11
REMARK    9  A    between atoms: C_11  and  N_12
REMARK                            x       y       z     vdW  Elec       q    Type
REMARK                         _______ _______ _______ _____ _____    ______ ____
ROOT
ATOM      1  N   UNL     1      48.474   6.061  14.803  0.00  0.00    +0.000 NA
ATOM      2  H   UNL     1      47.640   5.608  15.176  0.00  0.00    +0.000 HD
ENDROOT
BRANCH   1   3
ATOM      3  C   UNL     1      48.933   7.025  15.820  0.00  0.00    +0.000 C 
BRANCH   3   4
ATOM      4  C   UNL     1      50.376   6.664  16.159  0.00  0.00    +0.000 A 
ATOM      5  C   UNL     1      51.496   7.388  15.772  0.00  0.00    +0.000 A 
ATOM      6  S   UNL     1      52.963   6.724  16.339  0.00  0.00    +0.000 S 
ATOM      7  C   UNL     1      52.147   5.466  17.145  0.00  0.00    +0.000 A 
ATOM      8  N   UNL     1      52.824   4.531  17.863  0.00  0.00    +0.000 NA
ATOM      9  C   UNL     1      52.064   3.654  18.435  0.00  0.00    +0.000 A 
ATOM     10  N   UNL     1      50.697   3.622  18.350  0.00  0.00    +0.000 N 
ATOM     11  C   UNL     1      49.968   4.545  17.633  0.00  0.00    +0.000 A 
ATOM     12  O   UNL     1      48.741   4.497  17.578  0.00  0.00    +0.000 OA
ATOM     13  C   UNL     1      50.777   5.547  16.974  0.00  0.00    +0.000 A 
ATOM     14  H   UNL     1      50.164   2.908  18.823  0.00  0.00    +0.000 HD
ENDBRANCH   3   4
BRANCH   3  15
ATOM     15  C   UNL     1      48.821   8.516  15.372  0.00  0.00    +0.000 C 
BRANCH  15  16
ATOM     16  N   UNL     1      47.580   9.177  15.796  0.00  0.00    +0.000 NA
ATOM     17  H   UNL     1      47.587   9.326  16.801  0.00  0.00    +0.000 HD
ATOM     18  H   UNL     1      46.797   8.561  15.571  0.00  0.00    +0.000 HD
ENDBRANCH  15  16
ENDBRANCH   3  15
ENDBRANCH   1   3
BRANCH   1  19
ATOM     19  C   UNL     1      48.127   6.682  13.528  0.00  0.00    +0.000 C 
BRANCH  19  20
ATOM     20  C   UNL     1      47.017   5.912  12.852  0.00  0.00    +0.000 A 
ATOM     21  C   UNL     1      46.452   4.804  13.489  0.00  0.00    +0.000 A 
ATOM     22  C   UNL     1      45.442   4.068  12.871  0.00  0.00    +0.000 A 
ATOM     23  C   UNL     1      44.932   4.456  11.625  0.00  0.00    +0.000 A 
ATOM     24  C   UNL     1      45.508   5.558  10.980  0.00  0.00    +0.000 A 
ATOM     25  C   UNL     1      46.541   6.280  11.588  0.00  0.00    +0.000 A 
BRANCH  23  26
ATOM     26  C   UNL     1      43.803   3.694  10.958  0.00  0.00    +0.000 C 
BRANCH  26  27
ATOM     27  C   UNL     1      44.158   3.231   9.544  0.00  0.00    +0.000 C 
BRANCH  27  28
ATOM     28  N   UNL     1      45.101   2.125   9.540  0.00  0.00    +0.000 N 
ATOM     29  C   UNL     1      45.961   1.957   8.510  0.00  0.00    +0.000 C 
ATOM     30  N   UNL     1      46.379   0.803   8.088  0.00  0.00    +0.000 NA
ATOM     31  C   UNL     1      47.325   1.144   6.990  0.00  0.00    +0.000 C 
ATOM     32  C   UNL     1      47.302   2.667   6.828  0.00  0.00    +0.000 C 
ATOM     33  N   UNL     1      46.383   3.072   7.864  0.00  0.00    +0.000 N 
ATOM     34  H   UNL     1      44.693   1.231   9.798  0.00  0.00    +0.000 HD
ATOM     35  H   UNL     1      46.715   3.795   8.489  0.00  0.00    +0.000 HD
ENDBRANCH  27  28
ENDBRANCH  26  27
ENDBRANCH  23  26
ENDBRANCH  19  20
ENDBRANCH   1  19
TORSDOF 9
ENDMDL
MODEL 4
REMARK VINA RESULT:    -7.250      1.921      2.727
REMARK INTER + INTRA:         -11.922
REMARK INTER:                 -10.887
REMARK INTRA:                  -1.035
REMARK UNBOUND:                -1.069
REMARK  Name = 
REMARK  9 active torsions:
REMARK  status: ('A' for Active; 'I' for Inactive)
REMARK    1  A    between atoms: N_1  and  C_2
REMARK    2  A    between atoms: C_2  and  C_3
REMARK    3  A    between atoms: C_3  and  N_4
REMARK    4  A    between atoms: C_3  and  C_20
REMARK    5  A    between atoms: N_4  and  C_5
REMARK    6  A    between atoms: C_5  and  C_6
REMARK    7  A    between atoms: C_9  and  C_10
REMARK    8  A    between atoms: C_10  and  C_11
REMARK    9  A    between atoms: C_11  and  N_12
REMARK                            x       y       z     vdW  Elec       q    Type
REMARK                         _______ _______ _______ _____ _____    ______ ____
ROOT
ATOM      1  N   UNL     1      49.420   6.905  13.910  0.00  0.00    +0.000 NA
ATOM      2  H   UNL     1      49.302   5.904  13.759  0.00  0.00    +0.000 HD
ENDROOT
BRANCH   1   3
ATOM      3  C   UNL     1      48.654   7.251  15.121  0.00  0.00    +0.000 C 
BRANCH   3   4
ATOM      4  C   UNL     1      49.195   6.385  16.255  0.00  0.00    +0.000 A 
ATOM      5  C   UNL     1      50.276   6.707  17.065  0.00  0.00    +0.000 A 
ATOM      6  S   UNL     1      50.605   5.529  18.256  0.00  0.00    +0.000 S 
ATOM      7  C   UNL     1      49.297   4.567  17.747  0.00  0.00    +0.000 A 
ATOM      8  N   UNL     1      48.997   3.397  18.370  0.00  0.00    +0.000 NA
ATOM      9  C   UNL     1      47.963   2.791  17.884  0.00  0.00    +0.000 A 
ATOM     10  N   UNL     1      47.209   3.241  16.832  0.00  0.00    +0.000 N 
ATOM     11  C   UNL     1      47.476   4.419  16.167  0.00  0.00    +0.000 A 
ATOM     12  O   UNL     1      46.780   4.803  15.231  0.00  0.00    +0.000 OA
ATOM     13  C   UNL     1      48.627   5.132  16.678  0.00  0.00    +0.000 A 
ATOM     14  H   UNL     1      46.412   2.718  16.502  0.00  0.00    +0.000 HD
ENDBRANCH   3   4
BRANCH   3  15
ATOM     15  C   UNL     1      48.717   8.765  15.497  0.00  0.00    +0.000 C 
BRANCH  15  16
ATOM     16  N   UNL     1      47.620   9.212  16.365  0.00  0.00    +0.000 NA
ATOM     17  H   UNL     1      47.742   8.845  17.303  0.00  0.00    +0.000 HD
ATOM     18  H   UNL     1      46.745   8.843  15.989  0.00  0.00    +0.000 HD
ENDBRANCH  15  16
ENDBRANCH   3  15
ENDBRANCH   1   3
BRANCH   1  19
ATOM     19  C   UNL     1      48.963   7.607  12.713  0.00  0.00    +0.000 C 
BRANCH  19  20
ATOM     20  C   UNL     1      47.557   7.183  12.360  0.00  0.00    +0.000 A 
ATOM     21  C   UNL     1      46.572   8.152  12.147  0.00  0.00    +0.000 A 
ATOM     22  C   UNL     1      45.264   7.779  11.842  0.00  0.00    +0.000 A 
ATOM     23  C   UNL     1      44.921   6.429  11.687  0.00  0.00    +0.000 A 
ATOM     24  C   UNL     1      45.904   5.458  11.915  0.00  0.00    +0.000 A 
ATOM     25  C   UNL     1      47.210   5.831  12.249  0.00  0.00    +0.000 A 
BRANCH  23  26
ATOM     26  C   UNL     1      43.513   6.006  11.311  0.00  0.00    +0.000 C 
BRANCH  26  27
ATOM     27  C   UNL     1      43.469   4.637  10.631  0.00  0.00    +0.000 C 
BRANCH  27  28
ATOM     28  N   UNL     1      43.854   4.699   9.231  0.00  0.00    +0.000 N 
ATOM     29  C   UNL     1      44.737   3.810   8.720  0.00  0.00    +0.000 C 
ATOM     30  N   UNL     1      45.577   4.079   7.769  0.00  0.00    +0.000 NA
ATOM     31  C   UNL     1      46.281   2.788   7.535  0.00  0.00    +0.000 C 
ATOM     32  C   UNL     1      45.741   1.785   8.561  0.00  0.00    +0.000 C 
ATOM     33  N   UNL     1      44.755   2.568   9.266  0.00  0.00    +0.000 N 
ATOM     34  H   UNL     1      44.078   5.634   8.903  0.00  0.00    +0.000 HD
ATOM     35  H   UNL     1      43.835   2.152   9.343  0.00  0.00    +0.000 HD
ENDBRANCH  27  28
ENDBRANCH  26  27
ENDBRANCH  23  26
ENDBRANCH  19  20
ENDBRANCH   1  19
TORSDOF 9
ENDMDL
MODEL 5
REMARK VINA RESULT:    -6.992      2.731      3.952
REMARK INTER + INTRA:         -11.535
REMARK INTER:                 -10.627
REMARK INTRA:                  -0.909
REMARK UNBOUND:                -1.069
REMARK  Name = 
REMARK  9 active torsions:
REMARK  status: ('A' for Active; 'I' for Inactive)
REMARK    1  A    between atoms: N_1  and  C_2
REMARK    2  A    between atoms: C_2  and  C_3
REMARK    3  A    between atoms: C_3  and  N_4
REMARK    4  A    between atoms: C_3  and  C_20
REMARK    5  A    between atoms: N_4  and  C_5
REMARK    6  A    between atoms: C_5  and  C_6
REMARK    7  A    between atoms: C_9  and  C_10
REMARK    8  A    between atoms: C_10  and  C_11
REMARK    9  A    between atoms: C_11  and  N_12
REMARK                            x       y       z     vdW  Elec       q    Type
REMARK                         _______ _______ _______ _____ _____    ______ ____
ROOT
ATOM      1  N   UNL     1      48.529   5.931  14.708  0.00  0.00    +0.000 NA
ATOM      2  H   UNL     1      47.781   5.298  14.990  0.00  0.00    +0.000 HD
ENDROOT
BRANCH   1   3
ATOM      3  C   UNL     1      48.780   6.835  15.846  0.00  0.00    +0.000 C 
BRANCH   3   4
ATOM      4  C   UNL     1      48.636   6.003  17.117  0.00  0.00    +0.000 A 
ATOM      5  C   UNL     1      48.944   4.654  17.233  0.00  0.00    +0.000 A 
ATOM      6  S   UNL     1      48.691   4.031  18.802  0.00  0.00    +0.000 S 
ATOM      7  C   UNL     1      48.191   5.551  19.385  0.00  0.00    +0.000 A 
ATOM      8  N   UNL     1      47.840   5.727  20.686  0.00  0.00    +0.000 NA
ATOM      9  C   UNL     1      47.504   6.941  20.981  0.00  0.00    +0.000 A 
ATOM     10  N   UNL     1      47.480   7.988  20.098  0.00  0.00    +0.000 N 
ATOM     11  C   UNL     1      47.824   7.857  18.770  0.00  0.00    +0.000 A 
ATOM     12  O   UNL     1      47.800   8.814  18.000  0.00  0.00    +0.000 OA
ATOM     13  C   UNL     1      48.207   6.514  18.393  0.00  0.00    +0.000 A 
ATOM     14  H   UNL     1      47.208   8.912  20.396  0.00  0.00    +0.000 HD
ENDBRANCH   3   4
BRANCH   3  15
ATOM     15  C   UNL     1      50.172   7.541  15.797  0.00  0.00    +0.000 C 
BRANCH  15  16
ATOM     16  N   UNL     1      51.299   6.625  15.582  0.00  0.00    +0.000 NA
ATOM     17  H   UNL     1      51.790   6.867  14.726  0.00  0.00    +0.000 HD
ATOM     18  H   UNL     1      50.928   5.679  15.480  0.00  0.00    +0.000 HD
ENDBRANCH  15  16
ENDBRANCH   3  15
ENDBRANCH   1   3
BRANCH   1  19
ATOM     19  C   UNL     1      48.108   6.628  13.496  0.00  0.00    +0.000 C 
BRANCH  19  20
ATOM     20  C   UNL     1      46.998   5.866  12.810  0.00  0.00    +0.000 A 
ATOM     21  C   UNL     1      46.495   4.699  13.390  0.00  0.00    +0.000 A 
ATOM     22  C   UNL     1      45.486   3.972  12.761  0.00  0.00    +0.000 A 
ATOM     23  C   UNL     1      44.916   4.424  11.563  0.00  0.00    +0.000 A 
ATOM     24  C   UNL     1      45.430   5.586  10.975  0.00  0.00    +0.000 A 
ATOM     25  C   UNL     1      46.462   6.301  11.592  0.00  0.00    +0.000 A 
BRANCH  23  26
ATOM     26  C   UNL     1      43.786   3.669  10.887  0.00  0.00    +0.000 C 
BRANCH  26  27
ATOM     27  C   UNL     1      44.150   3.202   9.477  0.00  0.00    +0.000 C 
BRANCH  27  28
ATOM     28  N   UNL     1      45.109   2.111   9.481  0.00  0.00    +0.000 N 
ATOM     29  C   UNL     1      45.982   1.957   8.460  0.00  0.00    +0.000 C 
ATOM     30  N   UNL     1      46.422   0.810   8.041  0.00  0.00    +0.000 NA
ATOM     31  C   UNL     1      47.374   1.167   6.953  0.00  0.00    +0.000 C 
ATOM     32  C   UNL     1      47.332   2.690   6.794  0.00  0.00    +0.000 C 
ATOM     33  N   UNL     1      46.395   3.080   7.821  0.00  0.00    +0.000 N 
ATOM     34  H   UNL     1      44.710   1.210   9.733  0.00  0.00    +0.000 HD
ATOM     35  H   UNL     1      46.710   3.806   8.452  0.00  0.00    +0.000 HD
ENDBRANCH  27  28
ENDBRANCH  26  27
ENDBRANCH  23  26
ENDBRANCH  19  20
ENDBRANCH   1  19
TORSDOF 9
ENDMDL
MODEL 6
REMARK VINA RESULT:    -6.651      2.210      3.277
REMARK INTER + INTRA:         -11.024
REMARK INTER:                 -10.570
REMARK INTRA:                  -0.455
REMARK UNBOUND:                -1.069
REMARK  Name = 
REMARK  9 active torsions:
REMARK  status: ('A' for Active; 'I' for Inactive)
REMARK    1  A    between atoms: N_1  and  C_2
REMARK    2  A    between atoms: C_2  and  C_3
REMARK    3  A    between atoms: C_3  and  N_4
REMARK    4  A    between atoms: C_3  and  C_20
REMARK    5  A    between atoms: N_4  and  C_5
REMARK    6  A    between atoms: C_5  and  C_6
REMARK    7  A    between atoms: C_9  and  C_10
REMARK    8  A    between atoms: C_10  and  C_11
REMARK    9  A    between atoms: C_11  and  N_12
REMARK                            x       y       z     vdW  Elec       q    Type
REMARK                         _______ _______ _______ _____ _____    ______ ____
ROOT
ATOM      1  N   UNL     1      48.944   6.475  14.726  0.00  0.00    +0.000 NA
ATOM      2  H   UNL     1      48.015   6.383  15.136  0.00  0.00    +0.000 HD
ENDROOT
BRANCH   1   3
ATOM      3  C   UNL     1      49.673   7.473  15.531  0.00  0.00    +0.000 C 
BRANCH   3   4
ATOM      4  C   UNL     1      49.000   7.520  16.900  0.00  0.00    +0.000 A 
ATOM      5  C   UNL     1      48.340   8.620  17.432  0.00  0.00    +0.000 A 
ATOM      6  S   UNL     1      47.676   8.331  18.978  0.00  0.00    +0.000 S 
ATOM      7  C   UNL     1      48.224   6.720  18.974  0.00  0.00    +0.000 A 
ATOM      8  N   UNL     1      47.971   5.886  20.017  0.00  0.00    +0.000 NA
ATOM      9  C   UNL     1      48.432   4.688  19.857  0.00  0.00    +0.000 A 
ATOM     10  N   UNL     1      49.126   4.251  18.759  0.00  0.00    +0.000 N 
ATOM     11  C   UNL     1      49.408   5.060  17.680  0.00  0.00    +0.000 A 
ATOM     12  O   UNL     1      50.026   4.641  16.704  0.00  0.00    +0.000 OA
ATOM     13  C   UNL     1      48.911   6.412  17.814  0.00  0.00    +0.000 A 
ATOM     14  H   UNL     1      49.457   3.300  18.699  0.00  0.00    +0.000 HD
ENDBRANCH   3   4
BRANCH   3  15
ATOM     15  C   UNL     1      51.199   7.178  15.671  0.00  0.00    +0.000 C 
BRANCH  15  16
ATOM     16  N   UNL     1      52.011   7.691  14.559  0.00  0.00    +0.000 NA
ATOM     17  H   UNL     1      52.655   6.976  14.236  0.00  0.00    +0.000 HD
ATOM     18  H   UNL     1      52.557   8.483  14.901  0.00  0.00    +0.000 HD
ENDBRANCH  15  16
ENDBRANCH   3  15
ENDBRANCH   1   3
BRANCH   1  19
ATOM     19  C   UNL     1      48.792   6.858  13.325  0.00  0.00    +0.000 C 
BRANCH  19  20
ATOM     20  C   UNL     1      47.473   6.360  12.784  0.00  0.00    +0.000 A 
ATOM     21  C   UNL     1      46.689   5.495  13.551  0.00  0.00    +0.000 A 
ATOM     22  C   UNL     1      45.479   5.008  13.059  0.00  0.00    +0.000 A 
ATOM     23  C   UNL     1      44.995   5.420  11.810  0.00  0.00    +0.000 A 
ATOM     24  C   UNL     1      45.788   6.276  11.035  0.00  0.00    +0.000 A 
ATOM     25  C   UNL     1      47.015   6.742  11.517  0.00  0.00    +0.000 A 
BRANCH  23  26
ATOM     26  C   UNL     1      43.659   4.935  11.277  0.00  0.00    +0.000 C 
BRANCH  26  27
ATOM     27  C   UNL     1      43.803   3.770  10.296  0.00  0.00    +0.000 C 
BRANCH  27  28
ATOM     28  N   UNL     1      44.159   4.210   8.958  0.00  0.00    +0.000 N 
ATOM     29  C   UNL     1      45.196   3.642   8.300  0.00  0.00    +0.000 C 
ATOM     30  N   UNL     1      45.961   4.271   7.461  0.00  0.00    +0.000 NA
ATOM     31  C   UNL     1      46.904   3.223   6.981  0.00  0.00    +0.000 C 
ATOM     32  C   UNL     1      46.579   1.936   7.746  0.00  0.00    +0.000 C 
ATOM     33  N   UNL     1      45.462   2.339   8.566  0.00  0.00    +0.000 N 
ATOM     34  H   UNL     1      44.192   5.219   8.848  0.00  0.00    +0.000 HD
ATOM     35  H   UNL     1      44.644   1.746   8.518  0.00  0.00    +0.000 HD
ENDBRANCH  27  28
ENDBRANCH  26  27
ENDBRANCH  23  26
ENDBRANCH  19  20
ENDBRANCH   1  19
TORSDOF 9
ENDMDL
MODEL 7
REMARK VINA RESULT:    -6.586      2.660      3.618
REMARK INTER + INTRA:         -10.928
REMARK INTER:                 -10.123
REMARK INTRA:                  -0.805
REMARK UNBOUND:                -1.069
REMARK  Name = 
REMARK  9 active torsions:
REMARK  status: ('A' for Active; 'I' for Inactive)
REMARK    1  A    between atoms: N_1  and  C_2
REMARK    2  A    between atoms: C_2  and  C_3
REMARK    3  A    between atoms: C_3  and  N_4
REMARK    4  A    between atoms: C_3  and  C_20
REMARK    5  A    between atoms: N_4  and  C_5
REMARK    6  A    between atoms: C_5  and  C_6
REMARK    7  A    between atoms: C_9  and  C_10
REMARK    8  A    between atoms: C_10  and  C_11
REMARK    9  A    between atoms: C_11  and  N_12
REMARK                            x       y       z     vdW  Elec       q    Type
REMARK                         _______ _______ _______ _____ _____    ______ ____
ROOT
ATOM      1  N   UNL     1      47.770   7.620  14.384  0.00  0.00    +0.000 NA
ATOM      2  H   UNL     1      47.148   7.303  15.127  0.00  0.00    +0.000 HD
ENDROOT
BRANCH   1   3
ATOM      3  C   UNL     1      48.619   8.681  14.957  0.00  0.00    +0.000 C 
BRANCH   3   4
ATOM      4  C   UNL     1      48.443   8.626  16.471  0.00  0.00    +0.000 A 
ATOM      5  C   UNL     1      47.996   9.673  17.266  0.00  0.00    +0.000 A 
ATOM      6  S   UNL     1      47.889   9.271  18.921  0.00  0.00    +0.000 S 
ATOM      7  C   UNL     1      48.409   7.677  18.626  0.00  0.00    +0.000 A 
ATOM      8  N   UNL     1      48.522   6.773  19.635  0.00  0.00    +0.000 NA
ATOM      9  C   UNL     1      48.906   5.600  19.249  0.00  0.00    +0.000 A 
ATOM     10  N   UNL     1      49.194   5.250  17.956  0.00  0.00    +0.000 N 
ATOM     11  C   UNL     1      49.096   6.132  16.902  0.00  0.00    +0.000 A 
ATOM     12  O   UNL     1      49.353   5.792  15.750  0.00  0.00    +0.000 OA
ATOM     13  C   UNL     1      48.669   7.460  17.285  0.00  0.00    +0.000 A 
ATOM     14  H   UNL     1      49.489   4.314  17.725  0.00  0.00    +0.000 HD
ENDBRANCH   3   4
BRANCH   3  15
ATOM     15  C   UNL     1      50.126   8.564  14.566  0.00  0.00    +0.000 C 
BRANCH  15  16
ATOM     16  N   UNL     1      50.418   7.467  13.634  0.00  0.00    +0.000 NA
ATOM     17  H   UNL     1      49.718   6.737  13.721  0.00  0.00    +0.000 HD
ATOM     18  H   UNL     1      51.326   7.070  13.883  0.00  0.00    +0.000 HD
ENDBRANCH  15  16
ENDBRANCH   3  15
ENDBRANCH   1   3
BRANCH   1  19
ATOM     19  C   UNL     1      46.952   8.073  13.262  0.00  0.00    +0.000 C 
BRANCH  19  20
ATOM     20  C   UNL     1      46.030   6.968  12.804  0.00  0.00    +0.000 A 
ATOM     21  C   UNL     1      44.979   7.257  11.929  0.00  0.00    +0.000 A 
ATOM     22  C   UNL     1      44.106   6.253  11.513  0.00  0.00    +0.000 A 
ATOM     23  C   UNL     1      44.294   4.925  11.917  0.00  0.00    +0.000 A 
ATOM     24  C   UNL     1      45.338   4.638  12.805  0.00  0.00    +0.000 A 
ATOM     25  C   UNL     1      46.198   5.649  13.245  0.00  0.00    +0.000 A 
BRANCH  23  26
ATOM     26  C   UNL     1      43.380   3.812  11.438  0.00  0.00    +0.000 C 
BRANCH  26  27
ATOM     27  C   UNL     1      44.055   2.890  10.421  0.00  0.00    +0.000 C 
BRANCH  27  28
ATOM     28  N   UNL     1      44.258   3.535   9.134  0.00  0.00    +0.000 N 
ATOM     29  C   UNL     1      45.318   3.208   8.360  0.00  0.00    +0.000 C 
ATOM     30  N   UNL     1      45.932   4.038   7.574  0.00  0.00    +0.000 NA
ATOM     31  C   UNL     1      46.977   3.204   6.918  0.00  0.00    +0.000 C 
ATOM     32  C   UNL     1      46.885   1.801   7.526  0.00  0.00    +0.000 C 
ATOM     33  N   UNL     1      45.779   1.935   8.443  0.00  0.00    +0.000 N 
ATOM     34  H   UNL     1      44.143   4.544   9.154  0.00  0.00    +0.000 HD
ATOM     35  H   UNL     1      45.049   1.239   8.359  0.00  0.00    +0.000 HD
ENDBRANCH  27  28
ENDBRANCH  26  27
ENDBRANCH  23  26
ENDBRANCH  19  20
ENDBRANCH   1  19
TORSDOF 9
ENDMDL
MODEL 8
REMARK VINA RESULT:    -6.480      2.655      3.866
REMARK INTER + INTRA:         -10.769
REMARK INTER:                 -10.380
REMARK INTRA:                  -0.390
REMARK UNBOUND:                -1.069
REMARK  Name = 
REMARK  9 active torsions:
REMARK  status: ('A' for Active; 'I' for Inactive)
REMARK    1  A    between atoms: N_1  and  C_2
REMARK    2  A    between atoms: C_2  and  C_3
REMARK    3  A    between atoms: C_3  and  N_4
REMARK    4  A    between atoms: C_3  and  C_20
REMARK    5  A    between atoms: N_4  and  C_5
REMARK    6  A    between atoms: C_5  and  C_6
REMARK    7  A    between atoms: C_9  and  C_10
REMARK    8  A    between atoms: C_10  and  C_11
REMARK    9  A    between atoms: C_11  and  N_12
REMARK                            x       y       z     vdW  Elec       q    Type
REMARK                         _______ _______ _______ _____ _____    ______ ____
ROOT
ATOM      1  N   UNL     1      47.280   4.977  15.683  0.00  0.00    +0.000 NA
ATOM      2  H   UNL     1      47.359   5.918  15.297  0.00  0.00    +0.000 HD
ENDROOT
BRANCH   1   3
ATOM      3  C   UNL     1      48.204   4.903  16.829  0.00  0.00    +0.000 C 
BRANCH   3   4
ATOM      4  C   UNL     1      48.183   6.269  17.509  0.00  0.00    +0.000 A 
ATOM      5  C   UNL     1      47.621   6.539  18.749  0.00  0.00    +0.000 A 
ATOM      6  S   UNL     1      47.790   8.168  19.232  0.00  0.00    +0.000 S 
ATOM      7  C   UNL     1      48.647   8.557  17.813  0.00  0.00    +0.000 A 
ATOM      8  N   UNL     1      49.115   9.815  17.594  0.00  0.00    +0.000 NA
ATOM      9  C   UNL     1      49.764   9.948  16.483  0.00  0.00    +0.000 A 
ATOM     10  N   UNL     1      49.981   8.948  15.573  0.00  0.00    +0.000 N 
ATOM     11  C   UNL     1      49.524   7.660  15.750  0.00  0.00    +0.000 A 
ATOM     12  O   UNL     1      49.739   6.779  14.921  0.00  0.00    +0.000 OA
ATOM     13  C   UNL     1      48.791   7.462  16.981  0.00  0.00    +0.000 A 
ATOM     14  H   UNL     1      50.498   9.122  14.724  0.00  0.00    +0.000 HD
ENDBRANCH   3   4
BRANCH   3  15
ATOM     15  C   UNL     1      47.861   3.769  17.845  0.00  0.00    +0.000 C 
BRANCH  15  16
ATOM     16  N   UNL     1      46.542   3.159  17.636  0.00  0.00    +0.000 NA
ATOM     17  H   UNL     1      45.917   3.819  17.185  0.00  0.00    +0.000 HD
ATOM     18  H   UNL     1      46.150   2.921  18.549  0.00  0.00    +0.000 HD
ENDBRANCH  15  16
ENDBRANCH   3  15
ENDBRANCH   1   3
BRANCH   1  19
ATOM     19  C   UNL     1      47.590   4.020  14.624  0.00  0.00    +0.000 C 
BRANCH  19  20
ATOM     20  C   UNL     1      46.655   4.210  13.453  0.00  0.00    +0.000 A 
ATOM     21  C   UNL     1      45.828   3.160  13.045  0.00  0.00    +0.000 A 
ATOM     22  C   UNL     1      44.976   3.312  11.953  0.00  0.00    +0.000 A 
ATOM     23  C   UNL     1      44.887   4.535  11.276  0.00  0.00    +0.000 A 
ATOM     24  C   UNL     1      45.727   5.583  11.675  0.00  0.00    +0.000 A 
ATOM     25  C   UNL     1      46.603   5.423  12.754  0.00  0.00    +0.000 A 
BRANCH  23  26
ATOM     26  C   UNL     1      43.933   4.732  10.113  0.00  0.00    +0.000 C 
BRANCH  26  27
ATOM     27  C   UNL     1      44.385   4.001   8.847  0.00  0.00    +0.000 C 
BRANCH  27  28
ATOM     28  N   UNL     1      45.101   2.771   9.141  0.00  0.00    +0.000 N 
ATOM     29  C   UNL     1      46.038   2.299   8.287  0.00  0.00    +0.000 C 
ATOM     30  N   UNL     1      46.286   1.040   8.098  0.00  0.00    +0.000 NA
ATOM     31  C   UNL     1      47.409   1.038   7.120  0.00  0.00    +0.000 C 
ATOM     32  C   UNL     1      47.688   2.498   6.747  0.00  0.00    +0.000 C 
ATOM     33  N   UNL     1      46.736   3.211   7.565  0.00  0.00    +0.000 N 
ATOM     34  H   UNL     1      44.506   2.010   9.455  0.00  0.00    +0.000 HD
ATOM     35  H   UNL     1      47.115   3.962   8.128  0.00  0.00    +0.000 HD
ENDBRANCH  27  28
ENDBRANCH  26  27
ENDBRANCH  23  26
ENDBRANCH  19  20
ENDBRANCH   1  19
TORSDOF 9
ENDMDL
MODEL 9
REMARK VINA RESULT:    -6.409      1.983      2.603
REMARK INTER + INTRA:         -10.662
REMARK INTER:                  -9.655
REMARK INTRA:                  -1.007
REMARK UNBOUND:                -1.069
REMARK  Name = 
REMARK  9 active torsions:
REMARK  status: ('A' for Active; 'I' for Inactive)
REMARK    1  A    between atoms: N_1  and  C_2
REMARK    2  A    between atoms: C_2  and  C_3
REMARK    3  A    between atoms: C_3  and  N_4
REMARK    4  A    between atoms: C_3  and  C_20
REMARK    5  A    between atoms: N_4  and  C_5
REMARK    6  A    between atoms: C_5  and  C_6
REMARK    7  A    between atoms: C_9  and  C_10
REMARK    8  A    between atoms: C_10  and  C_11
REMARK    9  A    between atoms: C_11  and  N_12
REMARK                            x       y       z     vdW  Elec       q    Type
REMARK                         _______ _______ _______ _____ _____    ______ ____
ROOT
ATOM      1  N   UNL     1      47.660   5.586  16.558  0.00  0.00    +0.000 NA
ATOM      2  H   UNL     1      47.785   6.400  15.956  0.00  0.00    +0.000 HD
ENDROOT
BRANCH   1   3
ATOM      3  C   UNL     1      48.775   5.588  17.523  0.00  0.00    +0.000 C 
BRANCH   3   4
ATOM      4  C   UNL     1      49.971   6.224  16.822  0.00  0.00    +0.000 A 
ATOM      5  C   UNL     1      49.916   7.329  15.983  0.00  0.00    +0.000 A 
ATOM      6  S   UNL     1      51.441   7.802  15.381  0.00  0.00    +0.000 S 
ATOM      7  C   UNL     1      52.229   6.564  16.245  0.00  0.00    +0.000 A 
ATOM      8  N   UNL     1      53.578   6.412  16.188  0.00  0.00    +0.000 NA
ATOM      9  C   UNL     1      54.030   5.443  16.915  0.00  0.00    +0.000 A 
ATOM     10  N   UNL     1      53.260   4.610  17.684  0.00  0.00    +0.000 N 
ATOM     11  C   UNL     1      51.889   4.724  17.771  0.00  0.00    +0.000 A 
ATOM     12  O   UNL     1      51.222   3.968  18.473  0.00  0.00    +0.000 OA
ATOM     13  C   UNL     1      51.338   5.797  16.972  0.00  0.00    +0.000 A 
ATOM     14  H   UNL     1      53.678   3.872  18.229  0.00  0.00    +0.000 HD
ENDBRANCH   3   4
BRANCH   3  15
ATOM     15  C   UNL     1      48.453   6.329  18.859  0.00  0.00    +0.000 C 
BRANCH  15  16
ATOM     16  N   UNL     1      47.323   7.262  18.767  0.00  0.00    +0.000 NA
ATOM     17  H   UNL     1      46.724   7.170  19.581  0.00  0.00    +0.000 HD
ATOM     18  H   UNL     1      46.775   7.021  17.939  0.00  0.00    +0.000 HD
ENDBRANCH  15  16
ENDBRANCH   3  15
ENDBRANCH   1   3
BRANCH   1  19
ATOM     19  C   UNL     1      47.623   4.393  15.715  0.00  0.00    +0.000 C 
BRANCH  19  20
ATOM     20  C   UNL     1      47.012   4.717  14.372  0.00  0.00    +0.000 A 
ATOM     21  C   UNL     1      46.211   3.771  13.727  0.00  0.00    +0.000 A 
ATOM     22  C   UNL     1      45.656   4.044  12.478  0.00  0.00    +0.000 A 
ATOM     23  C   UNL     1      45.842   5.292  11.868  0.00  0.00    +0.000 A 
ATOM     24  C   UNL     1      46.657   6.235  12.508  0.00  0.00    +0.000 A 
ATOM     25  C   UNL     1      47.236   5.951  13.749  0.00  0.00    +0.000 A 
BRANCH  23  26
ATOM     26  C   UNL     1      45.210   5.623  10.529  0.00  0.00    +0.000 C 
BRANCH  26  27
ATOM     27  C   UNL     1      44.581   4.402   9.855  0.00  0.00    +0.000 C 
BRANCH  27  28
ATOM     28  N   UNL     1      44.779   4.397   8.416  0.00  0.00    +0.000 N 
ATOM     29  C   UNL     1      45.646   3.530   7.844  0.00  0.00    +0.000 C 
ATOM     30  N   UNL     1      46.339   3.787   6.777  0.00  0.00    +0.000 NA
ATOM     31  C   UNL     1      47.091   2.527   6.525  0.00  0.00    +0.000 C 
ATOM     32  C   UNL     1      46.754   1.562   7.667  0.00  0.00    +0.000 C 
ATOM     33  N   UNL     1      45.816   2.329   8.451  0.00  0.00    +0.000 N 
ATOM     34  H   UNL     1      44.897   5.321   8.010  0.00  0.00    +0.000 HD
ATOM     35  H   UNL     1      44.944   1.866   8.671  0.00  0.00    +0.000 HD
ENDBRANCH  27  28
ENDBRANCH  26  27
ENDBRANCH  23  26
ENDBRANCH  19  20
ENDBRANCH   1  19
TORSDOF 9
ENDMDL
