MODEL 1
REMARK VINA RESULT:    -7.670      0.000      0.000
REMARK INTER + INTRA:         -11.783
REMARK INTER:                 -10.809
REMARK INTRA:                  -0.974
REMARK UNBOUND:                -0.974
REMARK  Name = 
REMARK  7 active torsions:
REMARK  status: ('A' for Active; 'I' for Inactive)
REMARK    1  A    between atoms: C_2  and  C_20
REMARK    2  A    between atoms: N_3  and  C_4
REMARK    3  A    between atoms: C_4  and  C_5
REMARK    4  A    between atoms: C_8  and  C_9
REMARK    5  A    between atoms: C_9  and  N_10
REMARK    6  A    between atoms: N_10  and  C_11
REMARK    7  A    between atoms: C_11  and  C_12
REMARK                            x       y       z     vdW  Elec       q    Type
REMARK                         _______ _______ _______ _____ _____    ______ ____
ROOT
ATOM      1  C   UNL     1      46.879   4.846  14.575  0.00  0.00    +0.000 A 
ATOM      2  C   UNL     1      45.906   4.216  13.793  0.00  0.00    +0.000 A 
ATOM      3  C   UNL     1      45.666   4.645  12.491  0.00  0.00    +0.000 A 
ATOM      4  C   UNL     1      46.359   5.743  11.958  0.00  0.00    +0.000 A 
ATOM      5  C   UNL     1      47.343   6.360  12.735  0.00  0.00    +0.000 A 
ATOM      6  C   UNL     1      47.608   5.909  14.025  0.00  0.00    +0.000 A 
ENDROOT
BRANCH   1   7
ATOM      7  C   UNL     1      47.097   4.438  16.005  0.00  0.00    +0.000 C 
BRANCH   7  10
ATOM      8  O   UNL     1      47.974   4.394  18.624  0.00  0.00    +0.000 OA
ATOM      9  C   UNL     1      48.813   4.301  17.710  0.00  0.00    +0.000 C 
ATOM     10  N   UNL     1      48.474   4.333  16.388  0.00  0.00    +0.000 N 
ATOM     11  H   UNL     1      49.143   4.040  15.682  0.00  0.00    +0.000 HD
BRANCH   9  12
ATOM     12  C   UNL     1      50.226   4.164  18.016  0.00  0.00    +0.000 A 
ATOM     13  C   UNL     1      50.951   5.136  18.691  0.00  0.00    +0.000 A 
ATOM     14  S   UNL     1      52.563   4.649  19.013  0.00  0.00    +0.000 S 
ATOM     15  C   UNL     1      52.322   3.147  18.250  0.00  0.00    +0.000 A 
ATOM     16  N   UNL     1      53.305   2.208  18.186  0.00  0.00    +0.000 NA
ATOM     17  C   UNL     1      52.963   1.114  17.590  0.00  0.00    +0.000 A 
ATOM     18  N   UNL     1      51.727   0.874  17.042  0.00  0.00    +0.000 N 
ATOM     19  C   UNL     1      50.736   1.809  17.007  0.00  0.00    +0.000 A 
ATOM     20  O   UNL     1      49.716   1.616  16.345  0.00  0.00    +0.000 OA
ATOM     21  C   UNL     1      51.051   3.029  17.723  0.00  0.00    +0.000 A 
ATOM     22  H   UNL     1      51.544   0.021  16.537  0.00  0.00    +0.000 HD
ENDBRANCH   9  12
ENDBRANCH   7  10
ENDBRANCH   1   7
BRANCH   4  23
ATOM     23  C   UNL     1      46.101   6.263  10.560  0.00  0.00    +0.000 C 
BRANCH  23  24
ATOM     24  N   UNL     1      45.326   5.350   9.705  0.00  0.00    +0.000 NA
ATOM     25  H   UNL     1      44.512   5.847   9.342  0.00  0.00    +0.000 HD
BRANCH  24  26
ATOM     26  C   UNL     1      46.136   4.832   8.602  0.00  0.00    +0.000 C 
BRANCH  26  27
ATOM     27  C   UNL     1      45.323   3.881   7.697  0.00  0.00    +0.000 C 
ATOM     28  C   UNL     1      44.527   2.802   8.452  0.00  0.00    +0.000 C 
ATOM     29  C   UNL     1      45.445   1.775   9.113  0.00  0.00    +0.000 C 
ATOM     30  N   UNL     1      46.312   1.127   8.123  0.00  0.00    +0.000 NA
ATOM     31  C   UNL     1      47.126   2.112   7.407  0.00  0.00    +0.000 C 
ATOM     32  C   UNL     1      46.268   3.176   6.711  0.00  0.00    +0.000 C 
ATOM     33  H   UNL     1      45.724   0.635   7.450  0.00  0.00    +0.000 HD
ENDBRANCH  26  27
ENDBRANCH  24  26
ENDBRANCH  23  24
ENDBRANCH   4  23
TORSDOF 7
ENDMDL
MODEL 2
REMARK VINA RESULT:    -7.467      2.612      3.526
REMARK INTER + INTRA:         -11.497
REMARK INTER:                 -10.322
REMARK INTRA:                  -1.176
REMARK UNBOUND:                -0.974
REMARK  Name = 
REMARK  7 active torsions:
REMARK  status: ('A' for Active; 'I' for Inactive)
REMARK    1  A    between atoms: C_2  and  C_20
REMARK    2  A    between atoms: N_3  and  C_4
REMARK    3  A    between atoms: C_4  and  C_5
REMARK    4  A    between atoms: C_8  and  C_9
REMARK    5  A    between atoms: C_9  and  N_10
REMARK    6  A    between atoms: N_10  and  C_11
REMARK    7  A    between atoms: C_11  and  C_12
REMARK                            x       y       z     vdW  Elec       q    Type
REMARK                         _______ _______ _______ _____ _____    ______ ____
ROOT
ATOM      1  C   UNL     1      46.130   6.945  12.419  0.00  0.00    +0.000 A 
ATOM      2  C   UNL     1      46.483   6.752  11.079  0.00  0.00    +0.000 A 
ATOM      3  C   UNL     1      45.790   5.831  10.297  0.00  0.00    +0.000 A 
ATOM      4  C   UNL     1      44.762   5.050  10.848  0.00  0.00    +0.000 A 
ATOM      5  C   UNL     1      44.401   5.258  12.182  0.00  0.00    +0.000 A 
ATOM      6  C   UNL     1      45.069   6.204  12.955  0.00  0.00    +0.000 A 
ENDROOT
BRANCH   1   7
ATOM      7  C   UNL     1      46.916   7.883  13.291  0.00  0.00    +0.000 C 
BRANCH   7  10
ATOM      8  O   UNL     1      49.396   6.722  13.648  0.00  0.00    +0.000 OA
ATOM      9  C   UNL     1      48.615   6.773  14.615  0.00  0.00    +0.000 C 
ATOM     10  N   UNL     1      47.363   7.310  14.526  0.00  0.00    +0.000 N 
ATOM     11  H   UNL     1      46.841   7.532  15.370  0.00  0.00    +0.000 HD
BRANCH   9  12
ATOM     12  C   UNL     1      49.003   6.239  15.908  0.00  0.00    +0.000 A 
ATOM     13  C   UNL     1      49.967   6.833  16.711  0.00  0.00    +0.000 A 
ATOM     14  S   UNL     1      50.131   6.051  18.228  0.00  0.00    +0.000 S 
ATOM     15  C   UNL     1      48.934   4.908  17.833  0.00  0.00    +0.000 A 
ATOM     16  N   UNL     1      48.548   3.940  18.708  0.00  0.00    +0.000 NA
ATOM     17  C   UNL     1      47.617   3.160  18.268  0.00  0.00    +0.000 A 
ATOM     18  N   UNL     1      47.040   3.253  17.025  0.00  0.00    +0.000 N 
ATOM     19  C   UNL     1      47.446   4.150  16.083  0.00  0.00    +0.000 A 
ATOM     20  O   UNL     1      47.032   4.073  14.926  0.00  0.00    +0.000 OA
ATOM     21  C   UNL     1      48.443   5.090  16.555  0.00  0.00    +0.000 A 
ATOM     22  H   UNL     1      46.360   2.574  16.721  0.00  0.00    +0.000 HD
ENDBRANCH   9  12
ENDBRANCH   7  10
ENDBRANCH   1   7
BRANCH   4  23
ATOM     23  C   UNL     1      44.011   4.013  10.041  0.00  0.00    +0.000 C 
BRANCH  23  24
ATOM     24  N   UNL     1      43.870   4.339   8.614  0.00  0.00    +0.000 NA
ATOM     25  H   UNL     1      44.249   5.272   8.448  0.00  0.00    +0.000 HD
BRANCH  24  26
ATOM     26  C   UNL     1      44.552   3.357   7.770  0.00  0.00    +0.000 C 
BRANCH  26  27
ATOM     27  C   UNL     1      46.066   3.305   8.068  0.00  0.00    +0.000 C 
ATOM     28  C   UNL     1      46.969   3.637   6.867  0.00  0.00    +0.000 C 
ATOM     29  C   UNL     1      46.900   2.558   5.787  0.00  0.00    +0.000 C 
ATOM     30  N   UNL     1      47.281   1.248   6.325  0.00  0.00    +0.000 NA
ATOM     31  C   UNL     1      46.420   0.865   7.446  0.00  0.00    +0.000 C 
ATOM     32  C   UNL     1      46.443   1.903   8.575  0.00  0.00    +0.000 C 
ATOM     33  H   UNL     1      48.246   1.301   6.655  0.00  0.00    +0.000 HD
ENDBRANCH  26  27
ENDBRANCH  24  26
ENDBRANCH  23  24
ENDBRANCH   4  23
TORSDOF 7
ENDMDL
MODEL 3
REMARK VINA RESULT:    -7.157      3.192      4.050
REMARK INTER + INTRA:         -11.061
REMARK INTER:                  -9.452
REMARK INTRA:                  -1.608
REMARK UNBOUND:                -0.974
REMARK  Name = 
REMARK  7 active torsions:
REMARK  status: ('A' for Active; 'I' for Inactive)
REMARK    1  A    between atoms: C_2  and  C_20
REMARK    2  A    between atoms: N_3  and  C_4
REMARK    3  A    between atoms: C_4  and  C_5
REMARK    4  A    between atoms: C_8  and  C_9
REMARK    5  A    between atoms: C_9  and  N_10
REMARK    6  A    between atoms: N_10  and  C_11
REMARK    7  A    between atoms: C_11  and  C_12
REMARK                            x       y       z     vdW  Elec       q    Type
REMARK                         _______ _______ _______ _____ _____    ______ ____
ROOT
ATOM      1  C   UNL     1      47.858   7.925  13.113  0.00  0.00    +0.000 A 
ATOM      2  C   UNL     1      46.864   8.845  13.459  0.00  0.00    +0.000 A 
ATOM      3  C   UNL     1      45.637   8.833  12.800  0.00  0.00    +0.000 A 
ATOM      4  C   UNL     1      45.394   7.934  11.751  0.00  0.00    +0.000 A 
ATOM      5  C   UNL     1      46.383   7.004  11.419  0.00  0.00    +0.000 A 
ATOM      6  C   UNL     1      47.597   6.991  12.101  0.00  0.00    +0.000 A 
ENDROOT
BRANCH   1   7
ATOM      7  C   UNL     1      49.210   7.974  13.768  0.00  0.00    +0.000 C 
BRANCH   7  10
ATOM      8  O   UNL     1      48.658   8.481  16.426  0.00  0.00    +0.000 OA
ATOM      9  C   UNL     1      49.077   7.353  16.106  0.00  0.00    +0.000 C 
ATOM     10  N   UNL     1      49.394   7.020  14.821  0.00  0.00    +0.000 N 
ATOM     11  H   UNL     1      49.521   6.045  14.563  0.00  0.00    +0.000 HD
BRANCH   9  12
ATOM     12  C   UNL     1      49.263   6.322  17.111  0.00  0.00    +0.000 A 
ATOM     13  C   UNL     1      50.090   6.482  18.214  0.00  0.00    +0.000 A 
ATOM     14  S   UNL     1      50.020   5.147  19.288  0.00  0.00    +0.000 S 
ATOM     15  C   UNL     1      48.901   4.335  18.296  0.00  0.00    +0.000 A 
ATOM     16  N   UNL     1      48.387   3.122  18.636  0.00  0.00    +0.000 NA
ATOM     17  C   UNL     1      47.537   2.642  17.790  0.00  0.00    +0.000 A 
ATOM     18  N   UNL     1      47.159   3.262  16.624  0.00  0.00    +0.000 N 
ATOM     19  C   UNL     1      47.703   4.437  16.197  0.00  0.00    +0.000 A 
ATOM     20  O   UNL     1      47.472   4.858  15.063  0.00  0.00    +0.000 OA
ATOM     21  C   UNL     1      48.613   5.046  17.147  0.00  0.00    +0.000 A 
ATOM     22  H   UNL     1      46.536   2.806  15.977  0.00  0.00    +0.000 HD
ENDBRANCH   9  12
ENDBRANCH   7  10
ENDBRANCH   1   7
BRANCH   4  23
ATOM     23  C   UNL     1      44.089   7.915  10.985  0.00  0.00    +0.000 C 
BRANCH  23  24
ATOM     24  N   UNL     1      43.131   6.897  11.444  0.00  0.00    +0.000 NA
ATOM     25  H   UNL     1      42.182   7.242  11.292  0.00  0.00    +0.000 HD
BRANCH  24  26
ATOM     26  C   UNL     1      43.324   5.625  10.746  0.00  0.00    +0.000 C 
BRANCH  26  27
ATOM     27  C   UNL     1      42.930   4.425  11.632  0.00  0.00    +0.000 C 
ATOM     28  C   UNL     1      43.194   4.623  13.135  0.00  0.00    +0.000 C 
ATOM     29  C   UNL     1      44.688   4.672  13.450  0.00  0.00    +0.000 C 
ATOM     30  N   UNL     1      45.363   3.449  13.002  0.00  0.00    +0.000 NA
ATOM     31  C   UNL     1      45.178   3.239  11.564  0.00  0.00    +0.000 C 
ATOM     32  C   UNL     1      43.697   3.173  11.174  0.00  0.00    +0.000 C 
ATOM     33  H   UNL     1      44.963   2.656  13.504  0.00  0.00    +0.000 HD
ENDBRANCH  26  27
ENDBRANCH  24  26
ENDBRANCH  23  24
ENDBRANCH   4  23
TORSDOF 7
ENDMDL
MODEL 4
REMARK VINA RESULT:    -7.139      2.513      3.448
REMARK INTER + INTRA:         -11.035
REMARK INTER:                 -10.090
REMARK INTRA:                  -0.944
REMARK UNBOUND:                -0.974
REMARK  Name = 
REMARK  7 active torsions:
REMARK  status: ('A' for Active; 'I' for Inactive)
REMARK    1  A    between atoms: C_2  and  C_20
REMARK    2  A    between atoms: N_3  and  C_4
REMARK    3  A    between atoms: C_4  and  C_5
REMARK    4  A    between atoms: C_8  and  C_9
REMARK    5  A    between atoms: C_9  and  N_10
REMARK    6  A    between atoms: N_10  and  C_11
REMARK    7  A    between atoms: C_11  and  C_12
REMARK                            x       y       z     vdW  Elec       q    Type
REMARK                         _______ _______ _______ _____ _____    ______ ____
ROOT
ATOM      1  C   UNL     1      46.846   6.103  12.927  0.00  0.00    +0.000 A 
ATOM      2  C   UNL     1      46.462   6.452  11.628  0.00  0.00    +0.000 A 
ATOM      3  C   UNL     1      45.396   5.801  11.013  0.00  0.00    +0.000 A 
ATOM      4  C   UNL     1      44.721   4.757  11.663  0.00  0.00    +0.000 A 
ATOM      5  C   UNL     1      45.094   4.422  12.967  0.00  0.00    +0.000 A 
ATOM      6  C   UNL     1      46.137   5.097  13.597  0.00  0.00    +0.000 A 
ENDROOT
BRANCH   1   7
ATOM      7  C   UNL     1      48.039   6.749  13.574  0.00  0.00    +0.000 C 
BRANCH   7  10
ATOM      8  O   UNL     1      50.244   6.740  15.237  0.00  0.00    +0.000 OA
ATOM      9  C   UNL     1      49.112   6.837  15.745  0.00  0.00    +0.000 C 
ATOM     10  N   UNL     1      47.966   6.831  15.003  0.00  0.00    +0.000 N 
ATOM     11  H   UNL     1      47.087   7.127  15.418  0.00  0.00    +0.000 HD
BRANCH   9  12
ATOM     12  C   UNL     1      48.955   6.952  17.184  0.00  0.00    +0.000 A 
ATOM     13  C   UNL     1      48.738   8.164  17.825  0.00  0.00    +0.000 A 
ATOM     14  S   UNL     1      48.473   7.978  19.508  0.00  0.00    +0.000 S 
ATOM     15  C   UNL     1      48.655   6.289  19.409  0.00  0.00    +0.000 A 
ATOM     16  N   UNL     1      48.523   5.487  20.500  0.00  0.00    +0.000 NA
ATOM     17  C   UNL     1      48.672   4.226  20.260  0.00  0.00    +0.000 A 
ATOM     18  N   UNL     1      48.951   3.692  19.026  0.00  0.00    +0.000 N 
ATOM     19  C   UNL     1      49.174   4.456  17.919  0.00  0.00    +0.000 A 
ATOM     20  O   UNL     1      49.603   3.947  16.883  0.00  0.00    +0.000 OA
ATOM     21  C   UNL     1      48.951   5.873  18.126  0.00  0.00    +0.000 A 
ATOM     22  H   UNL     1      49.116   2.704  18.918  0.00  0.00    +0.000 HD
ENDBRANCH   9  12
ENDBRANCH   7  10
ENDBRANCH   1   7
BRANCH   4  23
ATOM     23  C   UNL     1      43.582   4.000  11.014  0.00  0.00    +0.000 C 
BRANCH  23  24
ATOM     24  N   UNL     1      43.903   2.610  10.653  0.00  0.00    +0.000 NA
ATOM     25  H   UNL     1      43.137   2.226  10.100  0.00  0.00    +0.000 HD
BRANCH  24  26
ATOM     26  C   UNL     1      45.159   2.527   9.906  0.00  0.00    +0.000 C 
BRANCH  26  27
ATOM     27  C   UNL     1      44.910   2.313   8.398  0.00  0.00    +0.000 C 
ATOM     28  C   UNL     1      45.906   1.362   7.712  0.00  0.00    +0.000 C 
ATOM     29  C   UNL     1      47.309   1.962   7.639  0.00  0.00    +0.000 C 
ATOM     30  N   UNL     1      47.300   3.243   6.925  0.00  0.00    +0.000 NA
ATOM     31  C   UNL     1      46.396   4.201   7.568  0.00  0.00    +0.000 C 
ATOM     32  C   UNL     1      44.963   3.666   7.670  0.00  0.00    +0.000 C 
ATOM     33  H   UNL     1      46.979   3.079   5.970  0.00  0.00    +0.000 HD
ENDBRANCH  26  27
ENDBRANCH  24  26
ENDBRANCH  23  24
ENDBRANCH   4  23
TORSDOF 7
ENDMDL
MODEL 5
REMARK VINA RESULT:    -6.776      2.047      3.070
REMARK INTER + INTRA:         -10.523
REMARK INTER:                  -9.746
REMARK INTRA:                  -0.777
REMARK UNBOUND:                -0.974
REMARK  Name = 
REMARK  7 active torsions:
REMARK  status: ('A' for Active; 'I' for Inactive)
REMARK    1  A    between atoms: C_2  and  C_20
REMARK    2  A    between atoms: N_3  and  C_4
REMARK    3  A    between atoms: C_4  and  C_5
REMARK    4  A    between atoms: C_8  and  C_9
REMARK    5  A    between atoms: C_9  and  N_10
REMARK    6  A    between atoms: N_10  and  C_11
REMARK    7  A    between atoms: C_11  and  C_12
REMARK                            x       y       z     vdW  Elec       q    Type
REMARK                         _______ _______ _______ _____ _____    ______ ____
ROOT
ATOM      1  C   UNL     1      48.638   5.659  16.868  0.00  0.00    +0.000 A 
ATOM      2  C   UNL     1      48.662   6.401  15.682  0.00  0.00    +0.000 A 
ATOM      3  C   UNL     1      47.895   6.003  14.590  0.00  0.00    +0.000 A 
ATOM      4  C   UNL     1      47.125   4.831  14.642  0.00  0.00    +0.000 A 
ATOM      5  C   UNL     1      47.089   4.101  15.832  0.00  0.00    +0.000 A 
ATOM      6  C   UNL     1      47.827   4.517  16.937  0.00  0.00    +0.000 A 
ENDROOT
BRANCH   1   7
ATOM      7  C   UNL     1      49.514   6.038  18.028  0.00  0.00    +0.000 C 
BRANCH   7  10
ATOM      8  O   UNL     1      51.920   5.908  16.678  0.00  0.00    +0.000 OA
ATOM      9  C   UNL     1      51.715   5.113  17.613  0.00  0.00    +0.000 C 
ATOM     10  N   UNL     1      50.549   5.091  18.322  0.00  0.00    +0.000 N 
ATOM     11  H   UNL     1      50.497   4.589  19.204  0.00  0.00    +0.000 HD
BRANCH   9  12
ATOM     12  C   UNL     1      52.726   4.142  17.992  0.00  0.00    +0.000 A 
ATOM     13  C   UNL     1      53.968   4.501  18.494  0.00  0.00    +0.000 A 
ATOM     14  S   UNL     1      54.905   3.145  18.964  0.00  0.00    +0.000 S 
ATOM     15  C   UNL     1      53.678   2.063  18.495  0.00  0.00    +0.000 A 
ATOM     16  N   UNL     1      53.809   0.717  18.649  0.00  0.00    +0.000 NA
ATOM     17  C   UNL     1      52.785   0.031  18.263  0.00  0.00    +0.000 A 
ATOM     18  N   UNL     1      51.641   0.567  17.726  0.00  0.00    +0.000 N 
ATOM     19  C   UNL     1      51.491   1.899  17.475  0.00  0.00    +0.000 A 
ATOM     20  O   UNL     1      50.530   2.309  16.824  0.00  0.00    +0.000 OA
ATOM     21  C   UNL     1      52.589   2.716  17.954  0.00  0.00    +0.000 A 
ATOM     22  H   UNL     1      50.902  -0.029  17.388  0.00  0.00    +0.000 HD
ENDBRANCH   9  12
ENDBRANCH   7  10
ENDBRANCH   1   7
BRANCH   4  23
ATOM     23  C   UNL     1      46.308   4.346  13.463  0.00  0.00    +0.000 C 
BRANCH  23  24
ATOM     24  N   UNL     1      45.401   5.355  12.896  0.00  0.00    +0.000 NA
ATOM     25  H   UNL     1      45.658   6.273  13.258  0.00  0.00    +0.000 HD
BRANCH  24  26
ATOM     26  C   UNL     1      45.447   5.356  11.433  0.00  0.00    +0.000 C 
BRANCH  26  27
ATOM     27  C   UNL     1      44.055   5.095  10.820  0.00  0.00    +0.000 C 
ATOM     28  C   UNL     1      43.066   4.377  11.756  0.00  0.00    +0.000 C 
ATOM     29  C   UNL     1      43.484   2.932  12.027  0.00  0.00    +0.000 C 
ATOM     30  N   UNL     1      43.598   2.173  10.777  0.00  0.00    +0.000 NA
ATOM     31  C   UNL     1      44.564   2.793   9.867  0.00  0.00    +0.000 C 
ATOM     32  C   UNL     1      44.205   4.248   9.545  0.00  0.00    +0.000 C 
ATOM     33  H   UNL     1      42.684   2.156  10.324  0.00  0.00    +0.000 HD
ENDBRANCH  26  27
ENDBRANCH  24  26
ENDBRANCH  23  24
ENDBRANCH   4  23
TORSDOF 7
ENDMDL
MODEL 6
REMARK VINA RESULT:    -6.686      4.113      8.567
REMARK INTER + INTRA:         -10.397
REMARK INTER:                  -8.367
REMARK INTRA:                  -2.030
REMARK UNBOUND:                -0.974
REMARK  Name = 
REMARK  7 active torsions:
REMARK  status: ('A' for Active; 'I' for Inactive)
REMARK    1  A    between atoms: C_2  and  C_20
REMARK    2  A    between atoms: N_3  and  C_4
REMARK    3  A    between atoms: C_4  and  C_5
REMARK    4  A    between atoms: C_8  and  C_9
REMARK    5  A    between atoms: C_9  and  N_10
REMARK    6  A    between atoms: N_10  and  C_11
REMARK    7  A    between atoms: C_11  and  C_12
REMARK                            x       y       z     vdW  Elec       q    Type
REMARK                         _______ _______ _______ _____ _____    ______ ____
ROOT
ATOM      1  C   UNL     1      48.563   8.382  14.936  0.00  0.00    +0.000 A 
ATOM      2  C   UNL     1      49.602   7.470  14.726  0.00  0.00    +0.000 A 
ATOM      3  C   UNL     1      50.351   6.999  15.801  0.00  0.00    +0.000 A 
ATOM      4  C   UNL     1      50.110   7.465  17.103  0.00  0.00    +0.000 A 
ATOM      5  C   UNL     1      49.061   8.363  17.313  0.00  0.00    +0.000 A 
ATOM      6  C   UNL     1      48.287   8.807  16.243  0.00  0.00    +0.000 A 
ENDROOT
BRANCH   1   7
ATOM      7  C   UNL     1      47.795   8.951  13.777  0.00  0.00    +0.000 C 
BRANCH   7  10
ATOM      8  O   UNL     1      47.633   7.135  11.702  0.00  0.00    +0.000 OA
ATOM      9  C   UNL     1      46.626   7.331  12.406  0.00  0.00    +0.000 C 
ATOM     10  N   UNL     1      46.608   8.223  13.438  0.00  0.00    +0.000 N 
ATOM     11  H   UNL     1      45.853   8.201  14.119  0.00  0.00    +0.000 HD
BRANCH   9  12
ATOM     12  C   UNL     1      45.391   6.612  12.146  0.00  0.00    +0.000 A 
ATOM     13  C   UNL     1      44.257   7.221  11.628  0.00  0.00    +0.000 A 
ATOM     14  S   UNL     1      42.994   6.104  11.316  0.00  0.00    +0.000 S 
ATOM     15  C   UNL     1      43.933   4.799  11.875  0.00  0.00    +0.000 A 
ATOM     16  N   UNL     1      43.467   3.521  11.864  0.00  0.00    +0.000 NA
ATOM     17  C   UNL     1      44.304   2.641  12.303  0.00  0.00    +0.000 A 
ATOM     18  N   UNL     1      45.567   2.922  12.764  0.00  0.00    +0.000 N 
ATOM     19  C   UNL     1      46.052   4.192  12.873  0.00  0.00    +0.000 A 
ATOM     20  O   UNL     1      47.110   4.409  13.463  0.00  0.00    +0.000 OA
ATOM     21  C   UNL     1      45.172   5.208  12.329  0.00  0.00    +0.000 A 
ATOM     22  H   UNL     1      46.148   2.195  13.150  0.00  0.00    +0.000 HD
ENDBRANCH   9  12
ENDBRANCH   7  10
ENDBRANCH   1   7
BRANCH   4  23
ATOM     23  C   UNL     1      50.927   7.007  18.292  0.00  0.00    +0.000 C 
BRANCH  23  24
ATOM     24  N   UNL     1      50.221   6.085  19.195  0.00  0.00    +0.000 NA
ATOM     25  H   UNL     1      49.333   6.506  19.470  0.00  0.00    +0.000 HD
BRANCH  24  26
ATOM     26  C   UNL     1      49.991   4.786  18.563  0.00  0.00    +0.000 C 
BRANCH  26  27
ATOM     27  C   UNL     1      48.597   4.222  18.913  0.00  0.00    +0.000 C 
ATOM     28  C   UNL     1      48.341   2.788  18.417  0.00  0.00    +0.000 C 
ATOM     29  C   UNL     1      48.252   2.719  16.893  0.00  0.00    +0.000 C 
ATOM     30  N   UNL     1      47.191   3.597  16.387  0.00  0.00    +0.000 NA
ATOM     31  C   UNL     1      47.413   4.986  16.796  0.00  0.00    +0.000 C 
ATOM     32  C   UNL     1      47.509   5.133  18.320  0.00  0.00    +0.000 C 
ATOM     33  H   UNL     1      46.299   3.281  16.768  0.00  0.00    +0.000 HD
ENDBRANCH  26  27
ENDBRANCH  24  26
ENDBRANCH  23  24
ENDBRANCH   4  23
TORSDOF 7
ENDMDL
MODEL 7
REMARK VINA RESULT:    -6.682      4.066      9.217
REMARK INTER + INTRA:         -10.390
REMARK INTER:                  -9.090
REMARK INTRA:                  -1.300
REMARK UNBOUND:                -0.974
REMARK  Name = 
REMARK  7 active torsions:
REMARK  status: ('A' for Active; 'I' for Inactive)
REMARK    1  A    between atoms: C_2  and  C_20
REMARK    2  A    between atoms: N_3  and  C_4
REMARK    3  A    between atoms: C_4  and  C_5
REMARK    4  A    between atoms: C_8  and  C_9
REMARK    5  A    between atoms: C_9  and  N_10
REMARK    6  A    between atoms: N_10  and  C_11
REMARK    7  A    between atoms: C_11  and  C_12
REMARK                            x       y       z     vdW  Elec       q    Type
REMARK                         _______ _______ _______ _____ _____    ______ ____
ROOT
ATOM      1  C   UNL     1      48.059   8.193  13.181  0.00  0.00    +0.000 A 
ATOM      2  C   UNL     1      47.966   9.288  14.046  0.00  0.00    +0.000 A 
ATOM      3  C   UNL     1      48.832   9.400  15.131  0.00  0.00    +0.000 A 
ATOM      4  C   UNL     1      49.778   8.398  15.401  0.00  0.00    +0.000 A 
ATOM      5  C   UNL     1      49.879   7.315  14.526  0.00  0.00    +0.000 A 
ATOM      6  C   UNL     1      49.038   7.219  13.420  0.00  0.00    +0.000 A 
ENDROOT
BRANCH   1   7
ATOM      7  C   UNL     1      47.084   8.025  12.049  0.00  0.00    +0.000 C 
BRANCH   7  10
ATOM      8  O   UNL     1      44.428   7.490  11.514  0.00  0.00    +0.000 OA
ATOM      9  C   UNL     1      45.216   6.536  11.642  0.00  0.00    +0.000 C 
ATOM     10  N   UNL     1      46.541   6.705  11.926  0.00  0.00    +0.000 N 
ATOM     11  H   UNL     1      47.191   5.932  11.810  0.00  0.00    +0.000 HD
BRANCH   9  12
ATOM     12  C   UNL     1      44.750   5.168  11.504  0.00  0.00    +0.000 A 
ATOM     13  C   UNL     1      44.079   4.494  12.515  0.00  0.00    +0.000 A 
ATOM     14  S   UNL     1      43.546   2.939  12.027  0.00  0.00    +0.000 S 
ATOM     15  C   UNL     1      44.209   3.137  10.472  0.00  0.00    +0.000 A 
ATOM     16  N   UNL     1      44.092   2.179   9.513  0.00  0.00    +0.000 NA
ATOM     17  C   UNL     1      44.633   2.484   8.380  0.00  0.00    +0.000 A 
ATOM     18  N   UNL     1      45.291   3.661   8.119  0.00  0.00    +0.000 N 
ATOM     19  C   UNL     1      45.507   4.618   9.066  0.00  0.00    +0.000 A 
ATOM     20  O   UNL     1      46.259   5.565   8.838  0.00  0.00    +0.000 OA
ATOM     21  C   UNL     1      44.860   4.348  10.335  0.00  0.00    +0.000 A 
ATOM     22  H   UNL     1      45.743   3.812   7.231  0.00  0.00    +0.000 HD
ENDBRANCH   9  12
ENDBRANCH   7  10
ENDBRANCH   1   7
BRANCH   4  23
ATOM     23  C   UNL     1      50.711   8.465  16.591  0.00  0.00    +0.000 C 
BRANCH  23  24
ATOM     24  N   UNL     1      50.841   7.202  17.333  0.00  0.00    +0.000 NA
ATOM     25  H   UNL     1      51.712   7.218  17.865  0.00  0.00    +0.000 HD
BRANCH  24  26
ATOM     26  C   UNL     1      49.704   6.986  18.228  0.00  0.00    +0.000 C 
BRANCH  26  27
ATOM     27  C   UNL     1      49.539   5.494  18.588  0.00  0.00    +0.000 C 
ATOM     28  C   UNL     1      49.260   4.571  17.389  0.00  0.00    +0.000 C 
ATOM     29  C   UNL     1      47.880   4.825  16.784  0.00  0.00    +0.000 C 
ATOM     30  N   UNL     1      46.823   4.643  17.785  0.00  0.00    +0.000 NA
ATOM     31  C   UNL     1      47.020   5.534  18.931  0.00  0.00    +0.000 C 
ATOM     32  C   UNL     1      48.388   5.331  19.595  0.00  0.00    +0.000 C 
ATOM     33  H   UNL     1      46.850   3.677  18.112  0.00  0.00    +0.000 HD
ENDBRANCH  26  27
ENDBRANCH  24  26
ENDBRANCH  23  24
ENDBRANCH   4  23
TORSDOF 7
ENDMDL
MODEL 8
REMARK VINA RESULT:    -6.430      2.443      3.290
REMARK INTER + INTRA:         -10.035
REMARK INTER:                  -8.958
REMARK INTRA:                  -1.078
REMARK UNBOUND:                -0.974
REMARK  Name = 
REMARK  7 active torsions:
REMARK  status: ('A' for Active; 'I' for Inactive)
REMARK    1  A    between atoms: C_2  and  C_20
REMARK    2  A    between atoms: N_3  and  C_4
REMARK    3  A    between atoms: C_4  and  C_5
REMARK    4  A    between atoms: C_8  and  C_9
REMARK    5  A    between atoms: C_9  and  N_10
REMARK    6  A    between atoms: N_10  and  C_11
REMARK    7  A    between atoms: C_11  and  C_12
REMARK                            x       y       z     vdW  Elec       q    Type
REMARK                         _______ _______ _______ _____ _____    ______ ____
ROOT
ATOM      1  C   UNL     1      48.839   7.758  15.897  0.00  0.00    +0.000 A 
ATOM      2  C   UNL     1      48.988   6.639  15.071  0.00  0.00    +0.000 A 
ATOM      3  C   UNL     1      48.471   6.646  13.779  0.00  0.00    +0.000 A 
ATOM      4  C   UNL     1      47.752   7.753  13.300  0.00  0.00    +0.000 A 
ATOM      5  C   UNL     1      47.620   8.876  14.120  0.00  0.00    +0.000 A 
ATOM      6  C   UNL     1      48.168   8.884  15.400  0.00  0.00    +0.000 A 
ENDROOT
BRANCH   1   7
ATOM      7  C   UNL     1      49.331   7.736  17.317  0.00  0.00    +0.000 C 
BRANCH   7  10
ATOM      8  O   UNL     1      49.146   5.465  18.878  0.00  0.00    +0.000 OA
ATOM      9  C   UNL     1      50.230   5.724  18.325  0.00  0.00    +0.000 C 
ATOM     10  N   UNL     1      50.419   6.833  17.552  0.00  0.00    +0.000 N 
ATOM     11  H   UNL     1      51.233   6.901  16.948  0.00  0.00    +0.000 HD
BRANCH   9  12
ATOM     12  C   UNL     1      51.373   4.844  18.491  0.00  0.00    +0.000 A 
ATOM     13  C   UNL     1      52.529   5.225  19.157  0.00  0.00    +0.000 A 
ATOM     14  S   UNL     1      53.659   3.943  19.300  0.00  0.00    +0.000 S 
ATOM     15  C   UNL     1      52.633   2.870  18.469  0.00  0.00    +0.000 A 
ATOM     16  N   UNL     1      52.973   1.570  18.256  0.00  0.00    +0.000 NA
ATOM     17  C   UNL     1      52.082   0.879  17.625  0.00  0.00    +0.000 A 
ATOM     18  N   UNL     1      50.881   1.371  17.179  0.00  0.00    +0.000 N 
ATOM     19  C   UNL     1      50.526   2.682  17.294  0.00  0.00    +0.000 A 
ATOM     20  O   UNL     1      49.529   3.114  16.716  0.00  0.00    +0.000 OA
ATOM     21  C   UNL     1      51.466   3.483  18.054  0.00  0.00    +0.000 A 
ATOM     22  H   UNL     1      50.256   0.793  16.640  0.00  0.00    +0.000 HD
ENDBRANCH   9  12
ENDBRANCH   7  10
ENDBRANCH   1   7
BRANCH   4  23
ATOM     23  C   UNL     1      47.142   7.784  11.915  0.00  0.00    +0.000 C 
BRANCH  23  24
ATOM     24  N   UNL     1      45.757   7.293  11.850  0.00  0.00    +0.000 NA
ATOM     25  H   UNL     1      45.219   7.898  11.228  0.00  0.00    +0.000 HD
BRANCH  24  26
ATOM     26  C   UNL     1      45.701   5.908  11.382  0.00  0.00    +0.000 C 
BRANCH  26  27
ATOM     27  C   UNL     1      45.189   4.956  12.484  0.00  0.00    +0.000 C 
ATOM     28  C   UNL     1      45.184   3.467  12.094  0.00  0.00    +0.000 C 
ATOM     29  C   UNL     1      44.146   3.163  11.015  0.00  0.00    +0.000 C 
ATOM     30  N   UNL     1      42.800   3.548  11.454  0.00  0.00    +0.000 NA
ATOM     31  C   UNL     1      42.741   4.972  11.795  0.00  0.00    +0.000 C 
ATOM     32  C   UNL     1      43.756   5.350  12.880  0.00  0.00    +0.000 C 
ATOM     33  H   UNL     1      42.561   3.002  12.282  0.00  0.00    +0.000 HD
ENDBRANCH  26  27
ENDBRANCH  24  26
ENDBRANCH  23  24
ENDBRANCH   4  23
TORSDOF 7
ENDMDL
MODEL 9
REMARK VINA RESULT:    -6.288      5.991      8.662
REMARK INTER + INTRA:          -9.836
REMARK INTER:                  -8.688
REMARK INTRA:                  -1.148
REMARK UNBOUND:                -0.974
REMARK  Name = 
REMARK  7 active torsions:
REMARK  status: ('A' for Active; 'I' for Inactive)
REMARK    1  A    between atoms: C_2  and  C_20
REMARK    2  A    between atoms: N_3  and  C_4
REMARK    3  A    between atoms: C_4  and  C_5
REMARK    4  A    between atoms: C_8  and  C_9
REMARK    5  A    between atoms: C_9  and  N_10
REMARK    6  A    between atoms: N_10  and  C_11
REMARK    7  A    between atoms: C_11  and  C_12
REMARK                            x       y       z     vdW  Elec       q    Type
REMARK                         _______ _______ _______ _____ _____    ______ ____
ROOT
ATOM      1  C   UNL     1      47.168   8.588  12.454  0.00  0.00    +0.000 A 
ATOM      2  C   UNL     1      48.207   7.666  12.293  0.00  0.00    +0.000 A 
ATOM      3  C   UNL     1      49.455   8.086  11.841  0.00  0.00    +0.000 A 
ATOM      4  C   UNL     1      49.679   9.428  11.497  0.00  0.00    +0.000 A 
ATOM      5  C   UNL     1      48.645  10.350  11.675  0.00  0.00    +0.000 A 
ATOM      6  C   UNL     1      47.407   9.937  12.161  0.00  0.00    +0.000 A 
ENDROOT
BRANCH   1   7
ATOM      7  C   UNL     1      45.797   8.134  12.872  0.00  0.00    +0.000 C 
BRANCH   7  10
ATOM      8  O   UNL     1      43.740   7.267  11.247  0.00  0.00    +0.000 OA
ATOM      9  C   UNL     1      44.490   6.421  11.765  0.00  0.00    +0.000 C 
ATOM     10  N   UNL     1      45.520   6.756  12.596  0.00  0.00    +0.000 N 
ATOM     11  H   UNL     1      46.236   6.072  12.824  0.00  0.00    +0.000 HD
BRANCH   9  12
ATOM     12  C   UNL     1      44.293   5.005  11.512  0.00  0.00    +0.000 A 
ATOM     13  C   UNL     1      43.592   4.174  12.376  0.00  0.00    +0.000 A 
ATOM     14  S   UNL     1      43.419   2.583  11.761  0.00  0.00    +0.000 S 
ATOM     15  C   UNL     1      44.282   2.973  10.348  0.00  0.00    +0.000 A 
ATOM     16  N   UNL     1      44.488   2.064   9.357  0.00  0.00    +0.000 NA
ATOM     17  C   UNL     1      45.145   2.516   8.341  0.00  0.00    +0.000 A 
ATOM     18  N   UNL     1      45.625   3.798   8.227  0.00  0.00    +0.000 N 
ATOM     19  C   UNL     1      45.518   4.723   9.223  0.00  0.00    +0.000 A 
ATOM     20  O   UNL     1      46.124   5.792   9.152  0.00  0.00    +0.000 OA
ATOM     21  C   UNL     1      44.730   4.280  10.356  0.00  0.00    +0.000 A 
ATOM     22  H   UNL     1      46.183   4.070   7.433  0.00  0.00    +0.000 HD
ENDBRANCH   9  12
ENDBRANCH   7  10
ENDBRANCH   1   7
BRANCH   4  23
ATOM     23  C   UNL     1      51.010   9.917  10.967  0.00  0.00    +0.000 C 
BRANCH  23  24
ATOM     24  N   UNL     1      52.152   9.654  11.856  0.00  0.00    +0.000 NA
ATOM     25  H   UNL     1      51.803   9.301  12.748  0.00  0.00    +0.000 HD
BRANCH  24  26
ATOM     26  C   UNL     1      53.084   8.695  11.261  0.00  0.00    +0.000 C 
BRANCH  26  27
ATOM     27  C   UNL     1      52.718   8.381   9.795  0.00  0.00    +0.000 C 
ATOM     28  C   UNL     1      52.376   6.905   9.522  0.00  0.00    +0.000 C 
ATOM     29  C   UNL     1      53.600   6.001   9.662  0.00  0.00    +0.000 C 
ATOM     30  N   UNL     1      54.673   6.421   8.754  0.00  0.00    +0.000 NA
ATOM     31  C   UNL     1      55.066   7.809   9.005  0.00  0.00    +0.000 C 
ATOM     32  C   UNL     1      53.885   8.778   8.876  0.00  0.00    +0.000 C 
ATOM     33  H   UNL     1      54.334   6.344   7.795  0.00  0.00    +0.000 HD
ENDBRANCH  26  27
ENDBRANCH  24  26
ENDBRANCH  23  24
ENDBRANCH   4  23
TORSDOF 7
ENDMDL
