MODEL 1
REMARK VINA RESULT:    -8.519      0.000      0.000
REMARK INTER + INTRA:         -11.638
REMARK INTER:                 -11.009
REMARK INTRA:                  -0.629
REMARK UNBOUND:                -0.629
REMARK  Name = 
REMARK  7 active torsions:
REMARK  status: ('A' for Active; 'I' for Inactive)
REMARK    1  A    between atoms: C_1  and  O_2
REMARK    2  A    between atoms: O_2  and  C_3
REMARK    3  A    between atoms: C_5  and  C_6
REMARK    4  A    between atoms: N_11  and  C_12
REMARK    5  A    between atoms: C_12  and  C_13
REMARK    6  A    between atoms: C_17  and  C_18
REMARK    7  A    between atoms: C_22  and  C_23
REMARK                            x       y       z     vdW  Elec       q    Type
REMARK                         _______ _______ _______ _____ _____    ______ ____
ROOT
ATOM      1  C   UNL     1      49.145   2.528  16.603  0.00  0.00    +0.000 A 
ATOM      2  C   UNL     1      49.002   3.301  17.719  0.00  0.00    +0.000 A 
ATOM      3  C   UNL     1      47.997   4.229  17.629  0.00  0.00    +0.000 A 
ATOM      4  N   UNL     1      47.198   4.399  16.545  0.00  0.00    +0.000 NA
ATOM      5  C   UNL     1      47.426   3.583  15.514  0.00  0.00    +0.000 A 
ATOM      6  N   UNL     1      46.638   3.617  14.385  0.00  0.00    +0.000 N 
ATOM      7  N   UNL     1      48.383   2.652  15.502  0.00  0.00    +0.000 NA
ATOM      8  H   UNL     1      47.132   3.127  13.648  0.00  0.00    +0.000 HD
ENDROOT
BRANCH   3   9
ATOM      9  C   UNL     1      47.729   5.132  18.789  0.00  0.00    +0.000 C 
ATOM     10  N   UNL     1      46.744   6.064  18.597  0.00  0.00    +0.000 N 
ATOM     11  O   UNL     1      48.340   5.048  19.846  0.00  0.00    +0.000 OA
ATOM     12  H   UNL     1      46.211   6.064  17.736  0.00  0.00    +0.000 HD
ATOM     13  H   UNL     1      46.477   6.667  19.362  0.00  0.00    +0.000 HD
ENDBRANCH   3   9
BRANCH   1  15
ATOM     14  C   UNL     1      51.269   1.975  17.406  0.00  0.00    +0.000 C 
ATOM     15  O   UNL     1      50.139   1.570  16.637  0.00  0.00    +0.000 OA
ENDBRANCH   1  15
BRANCH   6  16
ATOM     16  C   UNL     1      46.025   4.868  14.006  0.00  0.00    +0.000 C 
BRANCH  16  17
ATOM     17  C   UNL     1      45.144   4.710  12.791  0.00  0.00    +0.000 A 
ATOM     18  C   UNL     1      43.827   5.187  12.797  0.00  0.00    +0.000 A 
ATOM     19  C   UNL     1      43.040   5.086  11.653  0.00  0.00    +0.000 A 
ATOM     20  C   UNL     1      43.561   4.509  10.491  0.00  0.00    +0.000 A 
ATOM     21  C   UNL     1      44.877   4.016  10.446  0.00  0.00    +0.000 A 
ATOM     22  C   UNL     1      45.644   4.108  11.623  0.00  0.00    +0.000 A 
BRANCH  21  23
ATOM     23  C   UNL     1      45.453   3.471   9.197  0.00  0.00    +0.000 A 
ATOM     24  C   UNL     1      45.799   4.309   8.129  0.00  0.00    +0.000 A 
ATOM     25  C   UNL     1      46.374   3.762   6.993  0.00  0.00    +0.000 A 
ATOM     26  N   UNL     1      46.635   2.449   6.842  0.00  0.00    +0.000 NA
ATOM     27  C   UNL     1      46.304   1.634   7.868  0.00  0.00    +0.000 A 
ATOM     28  C   UNL     1      46.608   0.174   7.714  0.00  0.00    +0.000 C 
ATOM     29  C   UNL     1      45.713   2.101   9.041  0.00  0.00    +0.000 A 
ENDBRANCH  21  23
ENDBRANCH  16  17
ENDBRANCH   6  16
TORSDOF 5
ENDMDL
MODEL 2
REMARK VINA RESULT:    -7.667      2.308      4.190
REMARK INTER + INTRA:         -10.538
REMARK INTER:                  -9.724
REMARK INTRA:                  -0.814
REMARK UNBOUND:                -0.629
REMARK  Name = 
REMARK  7 active torsions:
REMARK  status: ('A' for Active; 'I' for Inactive)
REMARK    1  A    between atoms: C_1  and  O_2
REMARK    2  A    between atoms: O_2  and  C_3
REMARK    3  A    between atoms: C_5  and  C_6
REMARK    4  A    between atoms: N_11  and  C_12
REMARK    5  A    between atoms: C_12  and  C_13
REMARK    6  A    between atoms: C_17  and  C_18
REMARK    7  A    between atoms: C_22  and  C_23
REMARK                            x       y       z     vdW  Elec       q    Type
REMARK                         _______ _______ _______ _____ _____    ______ ____
ROOT
ATOM      1  C   UNL     1      48.169   5.239  18.811  0.00  0.00    +0.000 A 
ATOM      2  C   UNL     1      48.651   3.981  18.596  0.00  0.00    +0.000 A 
ATOM      3  C   UNL     1      49.252   3.815  17.375  0.00  0.00    +0.000 A 
ATOM      4  N   UNL     1      49.372   4.788  16.436  0.00  0.00    +0.000 NA
ATOM      5  C   UNL     1      48.869   5.981  16.759  0.00  0.00    +0.000 A 
ATOM      6  N   UNL     1      48.989   7.062  15.914  0.00  0.00    +0.000 N 
ATOM      7  N   UNL     1      48.260   6.240  17.919  0.00  0.00    +0.000 NA
ATOM      8  H   UNL     1      48.327   7.767  16.218  0.00  0.00    +0.000 HD
ENDROOT
BRANCH   3   9
ATOM      9  C   UNL     1      49.831   2.484  17.019  0.00  0.00    +0.000 C 
ATOM     10  N   UNL     1      50.920   2.098  17.754  0.00  0.00    +0.000 N 
ATOM     11  O   UNL     1      49.366   1.777  16.134  0.00  0.00    +0.000 OA
ATOM     12  H   UNL     1      51.239   2.675  18.523  0.00  0.00    +0.000 HD
ATOM     13  H   UNL     1      51.323   1.185  17.599  0.00  0.00    +0.000 HD
ENDBRANCH   3   9
BRANCH   1  15
ATOM     14  C   UNL     1      47.545   6.846  20.390  0.00  0.00    +0.000 C 
ATOM     15  O   UNL     1      47.557   5.467  20.029  0.00  0.00    +0.000 OA
ENDBRANCH   1  15
BRANCH   6  16
ATOM     16  C   UNL     1      49.047   6.826  14.492  0.00  0.00    +0.000 C 
BRANCH  16  17
ATOM     17  C   UNL     1      47.709   7.063  13.834  0.00  0.00    +0.000 A 
ATOM     18  C   UNL     1      47.175   8.354  13.746  0.00  0.00    +0.000 A 
ATOM     19  C   UNL     1      45.967   8.570  13.089  0.00  0.00    +0.000 A 
ATOM     20  C   UNL     1      45.280   7.498  12.513  0.00  0.00    +0.000 A 
ATOM     21  C   UNL     1      45.781   6.186  12.583  0.00  0.00    +0.000 A 
ATOM     22  C   UNL     1      46.992   5.991  13.273  0.00  0.00    +0.000 A 
BRANCH  21  23
ATOM     23  C   UNL     1      45.092   5.061  11.912  0.00  0.00    +0.000 A 
ATOM     24  C   UNL     1      44.305   4.156  12.636  0.00  0.00    +0.000 A 
ATOM     25  C   UNL     1      43.644   3.140  11.964  0.00  0.00    +0.000 A 
ATOM     26  N   UNL     1      43.701   2.962  10.630  0.00  0.00    +0.000 NA
ATOM     27  C   UNL     1      44.458   3.832   9.925  0.00  0.00    +0.000 A 
ATOM     28  C   UNL     1      44.512   3.650   8.437  0.00  0.00    +0.000 C 
ATOM     29  C   UNL     1      45.163   4.874  10.524  0.00  0.00    +0.000 A 
ENDBRANCH  21  23
ENDBRANCH  16  17
ENDBRANCH   6  16
TORSDOF 5
ENDMDL
MODEL 3
REMARK VINA RESULT:    -7.523      3.768      8.028
REMARK INTER + INTRA:         -10.352
REMARK INTER:                  -9.431
REMARK INTRA:                  -0.921
REMARK UNBOUND:                -0.629
REMARK  Name = 
REMARK  7 active torsions:
REMARK  status: ('A' for Active; 'I' for Inactive)
REMARK    1  A    between atoms: C_1  and  O_2
REMARK    2  A    between atoms: O_2  and  C_3
REMARK    3  A    between atoms: C_5  and  C_6
REMARK    4  A    between atoms: N_11  and  C_12
REMARK    5  A    between atoms: C_12  and  C_13
REMARK    6  A    between atoms: C_17  and  C_18
REMARK    7  A    between atoms: C_22  and  C_23
REMARK                            x       y       z     vdW  Elec       q    Type
REMARK                         _______ _______ _______ _____ _____    ______ ____
ROOT
ATOM      1  C   UNL     1      45.396   3.704   8.850  0.00  0.00    +0.000 A 
ATOM      2  C   UNL     1      44.716   2.861   9.681  0.00  0.00    +0.000 A 
ATOM      3  C   UNL     1      44.246   3.460  10.821  0.00  0.00    +0.000 A 
ATOM      4  N   UNL     1      44.423   4.769  11.132  0.00  0.00    +0.000 NA
ATOM      5  C   UNL     1      45.098   5.499  10.242  0.00  0.00    +0.000 A 
ATOM      6  N   UNL     1      45.284   6.853  10.419  0.00  0.00    +0.000 N 
ATOM      7  N   UNL     1      45.601   5.007   9.108  0.00  0.00    +0.000 NA
ATOM      8  H   UNL     1      46.025   7.147   9.793  0.00  0.00    +0.000 HD
ENDROOT
BRANCH   3   9
ATOM      9  C   UNL     1      43.475   2.648  11.810  0.00  0.00    +0.000 C 
ATOM     10  N   UNL     1      43.554   3.071  13.110  0.00  0.00    +0.000 N 
ATOM     11  O   UNL     1      42.809   1.673  11.488  0.00  0.00    +0.000 OA
ATOM     12  H   UNL     1      44.057   3.921  13.335  0.00  0.00    +0.000 HD
ATOM     13  H   UNL     1      43.011   2.598  13.819  0.00  0.00    +0.000 HD
ENDBRANCH   3   9
BRANCH   1  15
ATOM     14  C   UNL     1      46.420   1.846   7.868  0.00  0.00    +0.000 C 
ATOM     15  O   UNL     1      45.889   3.156   7.682  0.00  0.00    +0.000 OA
ENDBRANCH   1  15
BRANCH   6  16
ATOM     16  C   UNL     1      45.354   7.372  11.763  0.00  0.00    +0.000 C 
BRANCH  16  17
ATOM     17  C   UNL     1      46.741   7.232  12.343  0.00  0.00    +0.000 A 
ATOM     18  C   UNL     1      47.853   7.751  11.667  0.00  0.00    +0.000 A 
ATOM     19  C   UNL     1      49.121   7.665  12.234  0.00  0.00    +0.000 A 
ATOM     20  C   UNL     1      49.291   7.060  13.483  0.00  0.00    +0.000 A 
ATOM     21  C   UNL     1      48.202   6.525  14.191  0.00  0.00    +0.000 A 
ATOM     22  C   UNL     1      46.933   6.603  13.585  0.00  0.00    +0.000 A 
BRANCH  21  23
ATOM     23  C   UNL     1      48.369   5.949  15.544  0.00  0.00    +0.000 A 
ATOM     24  C   UNL     1      49.081   6.629  16.540  0.00  0.00    +0.000 A 
ATOM     25  C   UNL     1      49.180   6.074  17.806  0.00  0.00    +0.000 A 
ATOM     26  N   UNL     1      48.620   4.899  18.156  0.00  0.00    +0.000 NA
ATOM     27  C   UNL     1      47.932   4.237  17.200  0.00  0.00    +0.000 A 
ATOM     28  C   UNL     1      47.291   2.938  17.587  0.00  0.00    +0.000 C 
ATOM     29  C   UNL     1      47.793   4.721  15.900  0.00  0.00    +0.000 A 
ENDBRANCH  21  23
ENDBRANCH  16  17
ENDBRANCH   6  16
TORSDOF 5
ENDMDL
MODEL 4
REMARK VINA RESULT:    -7.509      2.862      3.860
REMARK INTER + INTRA:         -10.334
REMARK INTER:                 -10.008
REMARK INTRA:                  -0.325
REMARK UNBOUND:                -0.629
REMARK  Name = 
REMARK  7 active torsions:
REMARK  status: ('A' for Active; 'I' for Inactive)
REMARK    1  A    between atoms: C_1  and  O_2
REMARK    2  A    between atoms: O_2  and  C_3
REMARK    3  A    between atoms: C_5  and  C_6
REMARK    4  A    between atoms: N_11  and  C_12
REMARK    5  A    between atoms: C_12  and  C_13
REMARK    6  A    between atoms: C_17  and  C_18
REMARK    7  A    between atoms: C_22  and  C_23
REMARK                            x       y       z     vdW  Elec       q    Type
REMARK                         _______ _______ _______ _____ _____    ______ ____
ROOT
ATOM      1  C   UNL     1      48.217   7.947  13.578  0.00  0.00    +0.000 A 
ATOM      2  C   UNL     1      48.228   6.828  14.360  0.00  0.00    +0.000 A 
ATOM      3  C   UNL     1      47.196   5.961  14.108  0.00  0.00    +0.000 A 
ATOM      4  N   UNL     1      46.229   6.164  13.178  0.00  0.00    +0.000 NA
ATOM      5  C   UNL     1      46.323   7.291  12.469  0.00  0.00    +0.000 A 
ATOM      6  N   UNL     1      45.436   7.573  11.453  0.00  0.00    +0.000 N 
ATOM      7  N   UNL     1      47.285   8.199  12.643  0.00  0.00    +0.000 NA
ATOM      8  H   UNL     1      45.517   8.561  11.238  0.00  0.00    +0.000 HD
ENDROOT
BRANCH   3   9
ATOM      9  C   UNL     1      47.100   4.692  14.890  0.00  0.00    +0.000 C 
ATOM     10  N   UNL     1      47.415   4.791  16.219  0.00  0.00    +0.000 N 
ATOM     11  O   UNL     1      46.756   3.631  14.386  0.00  0.00    +0.000 OA
ATOM     12  H   UNL     1      47.630   5.696  16.620  0.00  0.00    +0.000 HD
ATOM     13  H   UNL     1      47.316   3.980  16.813  0.00  0.00    +0.000 HD
ENDBRANCH   3   9
BRANCH   1  15
ATOM     14  C   UNL     1      50.092   8.491  14.865  0.00  0.00    +0.000 C 
ATOM     15  O   UNL     1      49.237   8.855  13.784  0.00  0.00    +0.000 OA
ENDBRANCH   1  15
BRANCH   6  16
ATOM     16  C   UNL     1      44.091   7.060  11.546  0.00  0.00    +0.000 C 
BRANCH  16  17
ATOM     17  C   UNL     1      44.041   5.577  11.267  0.00  0.00    +0.000 A 
ATOM     18  C   UNL     1      43.197   4.739  12.007  0.00  0.00    +0.000 A 
ATOM     19  C   UNL     1      43.117   3.382  11.706  0.00  0.00    +0.000 A 
ATOM     20  C   UNL     1      43.879   2.849  10.663  0.00  0.00    +0.000 A 
ATOM     21  C   UNL     1      44.740   3.656   9.899  0.00  0.00    +0.000 A 
ATOM     22  C   UNL     1      44.820   5.020  10.239  0.00  0.00    +0.000 A 
BRANCH  21  23
ATOM     23  C   UNL     1      45.492   3.107   8.749  0.00  0.00    +0.000 A 
ATOM     24  C   UNL     1      45.996   3.943   7.744  0.00  0.00    +0.000 A 
ATOM     25  C   UNL     1      46.730   3.394   6.705  0.00  0.00    +0.000 A 
ATOM     26  N   UNL     1      47.005   2.080   6.595  0.00  0.00    +0.000 NA
ATOM     27  C   UNL     1      46.523   1.267   7.560  0.00  0.00    +0.000 A 
ATOM     28  C   UNL     1      46.840  -0.195   7.453  0.00  0.00    +0.000 C 
ATOM     29  C   UNL     1      45.767   1.736   8.633  0.00  0.00    +0.000 A 
ENDBRANCH  21  23
ENDBRANCH  16  17
ENDBRANCH   6  16
TORSDOF 5
ENDMDL
MODEL 5
REMARK VINA RESULT:    -7.324      2.169      2.653
REMARK INTER + INTRA:         -10.095
REMARK INTER:                  -9.463
REMARK INTRA:                  -0.632
REMARK UNBOUND:                -0.629
REMARK  Name = 
REMARK  7 active torsions:
REMARK  status: ('A' for Active; 'I' for Inactive)
REMARK    1  A    between atoms: C_1  and  O_2
REMARK    2  A    between atoms: O_2  and  C_3
REMARK    3  A    between atoms: C_5  and  C_6
REMARK    4  A    between atoms: N_11  and  C_12
REMARK    5  A    between atoms: C_12  and  C_13
REMARK    6  A    between atoms: C_17  and  C_18
REMARK    7  A    between atoms: C_22  and  C_23
REMARK                            x       y       z     vdW  Elec       q    Type
REMARK                         _______ _______ _______ _____ _____    ______ ____
ROOT
ATOM      1  C   UNL     1      49.522   7.004  15.525  0.00  0.00    +0.000 A 
ATOM      2  C   UNL     1      49.659   6.250  16.654  0.00  0.00    +0.000 A 
ATOM      3  C   UNL     1      48.795   5.188  16.725  0.00  0.00    +0.000 A 
ATOM      4  N   UNL     1      47.869   4.884  15.781  0.00  0.00    +0.000 NA
ATOM      5  C   UNL     1      47.829   5.688  14.717  0.00  0.00    +0.000 A 
ATOM      6  N   UNL     1      46.975   5.442  13.664  0.00  0.00    +0.000 N 
ATOM      7  N   UNL     1      48.623   6.750  14.558  0.00  0.00    +0.000 NA
ATOM      8  H   UNL     1      46.914   6.289  13.111  0.00  0.00    +0.000 HD
ENDROOT
BRANCH   3   9
ATOM      9  C   UNL     1      48.850   4.277  17.908  0.00  0.00    +0.000 C 
ATOM     10  N   UNL     1      47.671   3.660  18.234  0.00  0.00    +0.000 N 
ATOM     11  O   UNL     1      49.877   4.083  18.545  0.00  0.00    +0.000 OA
ATOM     12  H   UNL     1      46.856   3.789  17.646  0.00  0.00    +0.000 HD
ATOM     13  H   UNL     1      47.656   2.989  18.989  0.00  0.00    +0.000 HD
ENDBRANCH   3   9
BRANCH   1  15
ATOM     14  C   UNL     1      49.741   9.213  14.793  0.00  0.00    +0.000 C 
ATOM     15  O   UNL     1      50.371   8.086  15.396  0.00  0.00    +0.000 OA
ENDBRANCH   1  15
BRANCH   6  16
ATOM     16  C   UNL     1      45.724   4.773  13.929  0.00  0.00    +0.000 C 
BRANCH  16  17
ATOM     17  C   UNL     1      44.905   4.607  12.672  0.00  0.00    +0.000 A 
ATOM     18  C   UNL     1      43.584   5.069  12.614  0.00  0.00    +0.000 A 
ATOM     19  C   UNL     1      42.854   4.961  11.434  0.00  0.00    +0.000 A 
ATOM     20  C   UNL     1      43.436   4.389  10.299  0.00  0.00    +0.000 A 
ATOM     21  C   UNL     1      44.758   3.910  10.317  0.00  0.00    +0.000 A 
ATOM     22  C   UNL     1      45.466   4.010  11.530  0.00  0.00    +0.000 A 
BRANCH  21  23
ATOM     23  C   UNL     1      45.399   3.371   9.098  0.00  0.00    +0.000 A 
ATOM     24  C   UNL     1      45.781   4.212   8.045  0.00  0.00    +0.000 A 
ATOM     25  C   UNL     1      46.416   3.671   6.938  0.00  0.00    +0.000 A 
ATOM     26  N   UNL     1      46.703   2.362   6.803  0.00  0.00    +0.000 NA
ATOM     27  C   UNL     1      46.338   1.544   7.815  0.00  0.00    +0.000 A 
ATOM     28  C   UNL     1      46.671   0.088   7.679  0.00  0.00    +0.000 C 
ATOM     29  C   UNL     1      45.687   2.005   8.958  0.00  0.00    +0.000 A 
ENDBRANCH  21  23
ENDBRANCH  16  17
ENDBRANCH   6  16
TORSDOF 5
ENDMDL
MODEL 6
REMARK VINA RESULT:    -6.891      3.018      4.422
REMARK INTER + INTRA:          -9.534
REMARK INTER:                  -8.771
REMARK INTRA:                  -0.764
REMARK UNBOUND:                -0.629
REMARK  Name = 
REMARK  7 active torsions:
REMARK  status: ('A' for Active; 'I' for Inactive)
REMARK    1  A    between atoms: C_1  and  O_2
REMARK    2  A    between atoms: O_2  and  C_3
REMARK    3  A    between atoms: C_5  and  C_6
REMARK    4  A    between atoms: N_11  and  C_12
REMARK    5  A    between atoms: C_12  and  C_13
REMARK    6  A    between atoms: C_17  and  C_18
REMARK    7  A    between atoms: C_22  and  C_23
REMARK                            x       y       z     vdW  Elec       q    Type
REMARK                         _______ _______ _______ _____ _____    ______ ____
ROOT
ATOM      1  C   UNL     1      50.608   4.581  17.979  0.00  0.00    +0.000 A 
ATOM      2  C   UNL     1      49.494   3.812  17.800  0.00  0.00    +0.000 A 
ATOM      3  C   UNL     1      48.594   4.333  16.907  0.00  0.00    +0.000 A 
ATOM      4  N   UNL     1      48.757   5.506  16.244  0.00  0.00    +0.000 NA
ATOM      5  C   UNL     1      49.888   6.170  16.494  0.00  0.00    +0.000 A 
ATOM      6  N   UNL     1      50.193   7.339  15.832  0.00  0.00    +0.000 N 
ATOM      7  N   UNL     1      50.822   5.749  17.350  0.00  0.00    +0.000 NA
ATOM      8  H   UNL     1      50.934   7.802  16.347  0.00  0.00    +0.000 HD
ENDROOT
BRANCH   3   9
ATOM      9  C   UNL     1      47.336   3.583  16.614  0.00  0.00    +0.000 C 
ATOM     10  N   UNL     1      46.903   3.640  15.316  0.00  0.00    +0.000 N 
ATOM     11  O   UNL     1      46.729   2.952  17.469  0.00  0.00    +0.000 OA
ATOM     12  H   UNL     1      47.463   4.115  14.618  0.00  0.00    +0.000 HD
ATOM     13  H   UNL     1      46.089   3.109  15.041  0.00  0.00    +0.000 HD
ENDBRANCH   3   9
BRANCH   1  15
ATOM     14  C   UNL     1      52.423   3.137  18.275  0.00  0.00    +0.000 C 
ATOM     15  O   UNL     1      51.554   4.102  18.864  0.00  0.00    +0.000 OA
ENDBRANCH   1  15
BRANCH   6  16
ATOM     16  C   UNL     1      49.113   8.186  15.389  0.00  0.00    +0.000 C 
BRANCH  16  17
ATOM     17  C   UNL     1      48.747   7.914  13.949  0.00  0.00    +0.000 A 
ATOM     18  C   UNL     1      49.627   8.250  12.913  0.00  0.00    +0.000 A 
ATOM     19  C   UNL     1      49.304   7.946  11.593  0.00  0.00    +0.000 A 
ATOM     20  C   UNL     1      48.099   7.303  11.296  0.00  0.00    +0.000 A 
ATOM     21  C   UNL     1      47.187   6.953  12.308  0.00  0.00    +0.000 A 
ATOM     22  C   UNL     1      47.527   7.293  13.631  0.00  0.00    +0.000 A 
BRANCH  21  23
ATOM     23  C   UNL     1      45.945   6.209  12.002  0.00  0.00    +0.000 A 
ATOM     24  C   UNL     1      44.871   6.188  12.901  0.00  0.00    +0.000 A 
ATOM     25  C   UNL     1      43.710   5.513  12.559  0.00  0.00    +0.000 A 
ATOM     26  N   UNL     1      43.536   4.865  11.391  0.00  0.00    +0.000 NA
ATOM     27  C   UNL     1      44.567   4.881  10.518  0.00  0.00    +0.000 A 
ATOM     28  C   UNL     1      44.374   4.177   9.209  0.00  0.00    +0.000 C 
ATOM     29  C   UNL     1      45.773   5.528  10.788  0.00  0.00    +0.000 A 
ENDBRANCH  21  23
ENDBRANCH  16  17
ENDBRANCH   6  16
TORSDOF 5
ENDMDL
MODEL 7
REMARK VINA RESULT:    -6.840      2.860      4.211
REMARK INTER + INTRA:          -9.469
REMARK INTER:                  -9.037
REMARK INTRA:                  -0.432
REMARK UNBOUND:                -0.629
REMARK  Name = 
REMARK  7 active torsions:
REMARK  status: ('A' for Active; 'I' for Inactive)
REMARK    1  A    between atoms: C_1  and  O_2
REMARK    2  A    between atoms: O_2  and  C_3
REMARK    3  A    between atoms: C_5  and  C_6
REMARK    4  A    between atoms: N_11  and  C_12
REMARK    5  A    between atoms: C_12  and  C_13
REMARK    6  A    between atoms: C_17  and  C_18
REMARK    7  A    between atoms: C_22  and  C_23
REMARK                            x       y       z     vdW  Elec       q    Type
REMARK                         _______ _______ _______ _____ _____    ______ ____
ROOT
ATOM      1  C   UNL     1      48.404   6.957  17.661  0.00  0.00    +0.000 A 
ATOM      2  C   UNL     1      47.935   5.681  17.540  0.00  0.00    +0.000 A 
ATOM      3  C   UNL     1      48.128   5.131  16.299  0.00  0.00    +0.000 A 
ATOM      4  N   UNL     1      48.722   5.768  15.258  0.00  0.00    +0.000 NA
ATOM      5  C   UNL     1      49.146   7.011  15.494  0.00  0.00    +0.000 A 
ATOM      6  N   UNL     1      49.821   7.732  14.534  0.00  0.00    +0.000 N 
ATOM      7  N   UNL     1      48.999   7.635  16.665  0.00  0.00    +0.000 NA
ATOM      8  H   UNL     1      49.810   8.706  14.814  0.00  0.00    +0.000 HD
ENDROOT
BRANCH   3   9
ATOM      9  C   UNL     1      47.669   3.733  16.038  0.00  0.00    +0.000 C 
ATOM     10  N   UNL     1      47.178   3.060  17.125  0.00  0.00    +0.000 N 
ATOM     11  O   UNL     1      47.719   3.218  14.929  0.00  0.00    +0.000 OA
ATOM     12  H   UNL     1      47.087   3.537  18.015  0.00  0.00    +0.000 HD
ATOM     13  H   UNL     1      46.800   2.132  17.003  0.00  0.00    +0.000 HD
ENDBRANCH   3   9
BRANCH   1  15
ATOM     14  C   UNL     1      49.443   8.158  19.377  0.00  0.00    +0.000 C 
ATOM     15  O   UNL     1      48.242   7.561  18.893  0.00  0.00    +0.000 OA
ENDBRANCH   1  15
BRANCH   6  16
ATOM     16  C   UNL     1      49.530   7.476  13.144  0.00  0.00    +0.000 C 
BRANCH  16  17
ATOM     17  C   UNL     1      48.049   7.551  12.861  0.00  0.00    +0.000 A 
ATOM     18  C   UNL     1      47.315   8.693  13.201  0.00  0.00    +0.000 A 
ATOM     19  C   UNL     1      45.961   8.775  12.887  0.00  0.00    +0.000 A 
ATOM     20  C   UNL     1      45.328   7.716  12.231  0.00  0.00    +0.000 A 
ATOM     21  C   UNL     1      46.029   6.551  11.876  0.00  0.00    +0.000 A 
ATOM     22  C   UNL     1      47.391   6.483  12.226  0.00  0.00    +0.000 A 
BRANCH  21  23
ATOM     23  C   UNL     1      45.378   5.459  11.118  0.00  0.00    +0.000 A 
ATOM     24  C   UNL     1      45.554   5.330   9.734  0.00  0.00    +0.000 A 
ATOM     25  C   UNL     1      44.960   4.271   9.068  0.00  0.00    +0.000 A 
ATOM     26  N   UNL     1      44.211   3.329   9.675  0.00  0.00    +0.000 NA
ATOM     27  C   UNL     1      44.037   3.446  11.009  0.00  0.00    +0.000 A 
ATOM     28  C   UNL     1      43.220   2.391  11.694  0.00  0.00    +0.000 C 
ATOM     29  C   UNL     1      44.592   4.487  11.753  0.00  0.00    +0.000 A 
ENDBRANCH  21  23
ENDBRANCH  16  17
ENDBRANCH   6  16
TORSDOF 5
ENDMDL
MODEL 8
REMARK VINA RESULT:    -6.824      3.071      5.221
REMARK INTER + INTRA:          -9.448
REMARK INTER:                  -8.790
REMARK INTRA:                  -0.658
REMARK UNBOUND:                -0.629
REMARK  Name = 
REMARK  7 active torsions:
REMARK  status: ('A' for Active; 'I' for Inactive)
REMARK    1  A    between atoms: C_1  and  O_2
REMARK    2  A    between atoms: O_2  and  C_3
REMARK    3  A    between atoms: C_5  and  C_6
REMARK    4  A    between atoms: N_11  and  C_12
REMARK    5  A    between atoms: C_12  and  C_13
REMARK    6  A    between atoms: C_17  and  C_18
REMARK    7  A    between atoms: C_22  and  C_23
REMARK                            x       y       z     vdW  Elec       q    Type
REMARK                         _______ _______ _______ _____ _____    ______ ____
ROOT
ATOM      1  C   UNL     1      48.672   5.113  18.732  0.00  0.00    +0.000 A 
ATOM      2  C   UNL     1      49.650   4.161  18.740  0.00  0.00    +0.000 A 
ATOM      3  C   UNL     1      49.755   3.460  17.566  0.00  0.00    +0.000 A 
ATOM      4  N   UNL     1      48.973   3.660  16.476  0.00  0.00    +0.000 NA
ATOM      5  C   UNL     1      48.053   4.622  16.582  0.00  0.00    +0.000 A 
ATOM      6  N   UNL     1      47.244   4.960  15.519  0.00  0.00    +0.000 N 
ATOM      7  N   UNL     1      47.868   5.354  17.682  0.00  0.00    +0.000 NA
ATOM      8  H   UNL     1      46.467   5.500  15.881  0.00  0.00    +0.000 HD
ENDROOT
BRANCH   3   9
ATOM      9  C   UNL     1      50.796   2.395  17.440  0.00  0.00    +0.000 C 
ATOM     10  N   UNL     1      51.916   2.569  18.209  0.00  0.00    +0.000 N 
ATOM     11  O   UNL     1      50.662   1.425  16.706  0.00  0.00    +0.000 OA
ATOM     12  H   UNL     1      51.967   3.347  18.856  0.00  0.00    +0.000 HD
ATOM     13  H   UNL     1      52.631   1.856  18.211  0.00  0.00    +0.000 HD
ENDBRANCH   3   9
BRANCH   1  15
ATOM     14  C   UNL     1      48.282   5.048  21.037  0.00  0.00    +0.000 C 
ATOM     15  O   UNL     1      48.523   5.856  19.887  0.00  0.00    +0.000 OA
ENDBRANCH   1  15
BRANCH   6  16
ATOM     16  C   UNL     1      46.906   3.941  14.555  0.00  0.00    +0.000 C 
BRANCH  16  17
ATOM     17  C   UNL     1      46.221   4.526  13.343  0.00  0.00    +0.000 A 
ATOM     18  C   UNL     1      45.549   3.699  12.434  0.00  0.00    +0.000 A 
ATOM     19  C   UNL     1      44.874   4.253  11.350  0.00  0.00    +0.000 A 
ATOM     20  C   UNL     1      44.864   5.638  11.163  0.00  0.00    +0.000 A 
ATOM     21  C   UNL     1      45.529   6.501  12.051  0.00  0.00    +0.000 A 
ATOM     22  C   UNL     1      46.224   5.914  13.126  0.00  0.00    +0.000 A 
BRANCH  21  23
ATOM     23  C   UNL     1      45.459   7.971  11.896  0.00  0.00    +0.000 A 
ATOM     24  C   UNL     1      46.535   8.792  12.254  0.00  0.00    +0.000 A 
ATOM     25  C   UNL     1      46.445  10.160  12.055  0.00  0.00    +0.000 A 
ATOM     26  N   UNL     1      45.368  10.770  11.521  0.00  0.00    +0.000 NA
ATOM     27  C   UNL     1      44.326   9.985  11.172  0.00  0.00    +0.000 A 
ATOM     28  C   UNL     1      43.132  10.655  10.561  0.00  0.00    +0.000 C 
ATOM     29  C   UNL     1      44.332   8.602  11.349  0.00  0.00    +0.000 A 
ENDBRANCH  21  23
ENDBRANCH  16  17
ENDBRANCH   6  16
TORSDOF 5
ENDMDL
MODEL 9
REMARK VINA RESULT:    -6.753      3.202      3.915
REMARK INTER + INTRA:          -9.357
REMARK INTER:                  -8.732
REMARK INTRA:                  -0.624
REMARK UNBOUND:                -0.629
REMARK  Name = 
REMARK  7 active torsions:
REMARK  status: ('A' for Active; 'I' for Inactive)
REMARK    1  A    between atoms: C_1  and  O_2
REMARK    2  A    between atoms: O_2  and  C_3
REMARK    3  A    between atoms: C_5  and  C_6
REMARK    4  A    between atoms: N_11  and  C_12
REMARK    5  A    between atoms: C_12  and  C_13
REMARK    6  A    between atoms: C_17  and  C_18
REMARK    7  A    between atoms: C_22  and  C_23
REMARK                            x       y       z     vdW  Elec       q    Type
REMARK                         _______ _______ _______ _____ _____    ______ ____
ROOT
ATOM      1  C   UNL     1      49.996   4.427  17.213  0.00  0.00    +0.000 A 
ATOM      2  C   UNL     1      51.254   4.956  17.253  0.00  0.00    +0.000 A 
ATOM      3  C   UNL     1      51.382   6.143  16.580  0.00  0.00    +0.000 A 
ATOM      4  N   UNL     1      50.374   6.767  15.918  0.00  0.00    +0.000 NA
ATOM      5  C   UNL     1      49.185   6.160  15.952  0.00  0.00    +0.000 A 
ATOM      6  N   UNL     1      48.074   6.731  15.372  0.00  0.00    +0.000 N 
ATOM      7  N   UNL     1      48.961   5.001  16.574  0.00  0.00    +0.000 NA
ATOM      8  H   UNL     1      47.368   6.008  15.279  0.00  0.00    +0.000 HD
ENDROOT
BRANCH   3   9
ATOM      9  C   UNL     1      52.707   6.832  16.555  0.00  0.00    +0.000 C 
ATOM     10  N   UNL     1      53.397   6.744  15.375  0.00  0.00    +0.000 N 
ATOM     11  O   UNL     1      53.152   7.442  17.519  0.00  0.00    +0.000 OA
ATOM     12  H   UNL     1      52.972   6.290  14.576  0.00  0.00    +0.000 HD
ATOM     13  H   UNL     1      54.274   7.235  15.277  0.00  0.00    +0.000 HD
ENDBRANCH   3   9
BRANCH   1  15
ATOM     14  C   UNL     1      50.514   2.149  17.283  0.00  0.00    +0.000 C 
ATOM     15  O   UNL     1      49.806   3.232  17.880  0.00  0.00    +0.000 OA
ENDBRANCH   1  15
BRANCH   6  16
ATOM     16  C   UNL     1      48.253   7.584  14.223  0.00  0.00    +0.000 C 
BRANCH  16  17
ATOM     17  C   UNL     1      47.016   7.621  13.358  0.00  0.00    +0.000 A 
ATOM     18  C   UNL     1      46.397   8.839  13.049  0.00  0.00    +0.000 A 
ATOM     19  C   UNL     1      45.289   8.868  12.207  0.00  0.00    +0.000 A 
ATOM     20  C   UNL     1      44.789   7.681  11.664  0.00  0.00    +0.000 A 
ATOM     21  C   UNL     1      45.380   6.439  11.953  0.00  0.00    +0.000 A 
ATOM     22  C   UNL     1      46.484   6.434  12.826  0.00  0.00    +0.000 A 
BRANCH  21  23
ATOM     23  C   UNL     1      44.896   5.190  11.323  0.00  0.00    +0.000 A 
ATOM     24  C   UNL     1      44.120   4.269  12.038  0.00  0.00    +0.000 A 
ATOM     25  C   UNL     1      43.653   3.131  11.399  0.00  0.00    +0.000 A 
ATOM     26  N   UNL     1      43.895   2.845  10.105  0.00  0.00    +0.000 NA
ATOM     27  C   UNL     1      44.643   3.729   9.409  0.00  0.00    +0.000 A 
ATOM     28  C   UNL     1      44.901   3.426   7.963  0.00  0.00    +0.000 C 
ATOM     29  C   UNL     1      45.160   4.892   9.978  0.00  0.00    +0.000 A 
ENDBRANCH  21  23
ENDBRANCH  16  17
ENDBRANCH   6  16
TORSDOF 5
ENDMDL
