MODEL 1
REMARK VINA RESULT:    -5.951      0.000      0.000
REMARK INTER + INTRA:          -9.240
REMARK INTER:                  -8.038
REMARK INTRA:                  -1.202
REMARK UNBOUND:                -1.202
REMARK  Name = 
REMARK  7 active torsions:
REMARK  status: ('A' for Active; 'I' for Inactive)
REMARK    1  A    between atoms: C_1  and  O_2
REMARK    2  A    between atoms: O_2  and  C_3
REMARK    3  A    between atoms: C_10  and  C_11
REMARK    4  A    between atoms: N_13  and  C_14
REMARK    5  A    between atoms: C_14  and  C_15
REMARK    6  A    between atoms: C_18  and  C_19
REMARK    7  A    between atoms: C_20  and  C_21
REMARK                            x       y       z     vdW  Elec       q    Type
REMARK                         _______ _______ _______ _____ _____    ______ ____
ROOT
ATOM      1  C   UNL     1      47.978   7.833  13.883  0.00  0.00    +0.000 C 
ATOM      2  O   UNL     1      48.919   8.418  13.352  0.00  0.00    +0.000 OA
ATOM      3  N   UNL     1      47.898   7.707  15.245  0.00  0.00    +0.000 N 
ATOM      4  H   UNL     1      47.115   7.231  15.662  0.00  0.00    +0.000 HD
ENDROOT
BRANCH   1  12
ATOM      5  C   UNL     1      46.692   4.653  13.609  0.00  0.00    +0.000 A 
ATOM      6  N   UNL     1      45.979   3.538  13.358  0.00  0.00    +0.000 NA
ATOM      7  C   UNL     1      44.956   3.628  12.505  0.00  0.00    +0.000 A 
ATOM      8  N   UNL     1      44.556   4.713  11.845  0.00  0.00    +0.000 NA
ATOM      9  C   UNL     1      45.290   5.803  12.132  0.00  0.00    +0.000 A 
ATOM     10  S   UNL     1      44.928   7.278  11.376  0.00  0.00    +0.000 S 
ATOM     11  C   UNL     1      46.179   8.072  12.214  0.00  0.00    +0.000 A 
ATOM     12  C   UNL     1      46.886   7.246  13.083  0.00  0.00    +0.000 A 
ATOM     13  C   UNL     1      46.365   5.882  13.012  0.00  0.00    +0.000 A 
BRANCH   5  15
ATOM     14  C   UNL     1      47.347   4.035  15.770  0.00  0.00    +0.000 C 
ATOM     15  O   UNL     1      47.737   4.564  14.506  0.00  0.00    +0.000 OA
ENDBRANCH   5  15
ENDBRANCH   1  12
BRANCH   3  16
ATOM     16  C   UNL     1      48.888   8.257  16.140  0.00  0.00    +0.000 C 
BRANCH  16  17
ATOM     17  C   UNL     1      49.858   7.197  16.608  0.00  0.00    +0.000 A 
ATOM     18  C   UNL     1      51.173   7.175  16.127  0.00  0.00    +0.000 A 
ATOM     19  C   UNL     1      52.077   6.187  16.546  0.00  0.00    +0.000 A 
ATOM     20  C   UNL     1      51.687   5.196  17.452  0.00  0.00    +0.000 A 
ATOM     21  C   UNL     1      50.363   5.203  17.912  0.00  0.00    +0.000 A 
ATOM     22  C   UNL     1      49.458   6.192  17.498  0.00  0.00    +0.000 A 
BRANCH  20  23
ATOM     23  C   UNL     1      52.586   4.112  17.888  0.00  0.00    +0.000 C 
ATOM     24  C   UNL     1      52.296   2.798  17.875  0.00  0.00    +0.000 C 
BRANCH  24  25
ATOM     25  C   UNL     1      53.241   1.751  18.304  0.00  0.00    +0.000 A 
ATOM     26  C   UNL     1      53.243   0.504  17.683  0.00  0.00    +0.000 A 
ATOM     27  C   UNL     1      54.166  -0.456  18.098  0.00  0.00    +0.000 A 
ATOM     28  C   UNL     1      55.058  -0.148  19.119  0.00  0.00    +0.000 A 
ATOM     29  C   UNL     1      54.983   1.111  19.686  0.00  0.00    +0.000 A 
ATOM     30  N   UNL     1      54.100   2.059  19.305  0.00  0.00    +0.000 NA
ENDBRANCH  24  25
ENDBRANCH  20  23
ENDBRANCH  16  17
ENDBRANCH   3  16
TORSDOF 6
ENDMDL
MODEL 2
REMARK VINA RESULT:    -5.586      1.240      1.835
REMARK INTER + INTRA:          -8.747
REMARK INTER:                  -7.734
REMARK INTRA:                  -1.013
REMARK UNBOUND:                -1.202
REMARK  Name = 
REMARK  7 active torsions:
REMARK  status: ('A' for Active; 'I' for Inactive)
REMARK    1  A    between atoms: C_1  and  O_2
REMARK    2  A    between atoms: O_2  and  C_3
REMARK    3  A    between atoms: C_10  and  C_11
REMARK    4  A    between atoms: N_13  and  C_14
REMARK    5  A    between atoms: C_14  and  C_15
REMARK    6  A    between atoms: C_18  and  C_19
REMARK    7  A    between atoms: C_20  and  C_21
REMARK                            x       y       z     vdW  Elec       q    Type
REMARK                         _______ _______ _______ _____ _____    ______ ____
ROOT
ATOM      1  C   UNL     1      46.929   7.733  12.685  0.00  0.00    +0.000 C 
ATOM      2  O   UNL     1      47.832   8.040  11.911  0.00  0.00    +0.000 OA
ATOM      3  N   UNL     1      46.982   8.077  14.011  0.00  0.00    +0.000 N 
ATOM      4  H   UNL     1      46.228   7.823  14.628  0.00  0.00    +0.000 HD
ENDROOT
BRANCH   1  12
ATOM      5  C   UNL     1      45.961   4.440  12.931  0.00  0.00    +0.000 A 
ATOM      6  N   UNL     1      45.330   3.250  12.935  0.00  0.00    +0.000 NA
ATOM      7  C   UNL     1      44.124   3.179  12.367  0.00  0.00    +0.000 A 
ATOM      8  N   UNL     1      43.460   4.167  11.771  0.00  0.00    +0.000 NA
ATOM      9  C   UNL     1      44.121   5.337  11.799  0.00  0.00    +0.000 A 
ATOM     10  S   UNL     1      43.429   6.708  11.077  0.00  0.00    +0.000 S 
ATOM     11  C   UNL     1      44.756   7.675  11.521  0.00  0.00    +0.000 A 
ATOM     12  C   UNL     1      45.741   6.988  12.226  0.00  0.00    +0.000 A 
ATOM     13  C   UNL     1      45.367   5.582  12.369  0.00  0.00    +0.000 A 
BRANCH   5  15
ATOM     14  C   UNL     1      47.187   4.094  14.895  0.00  0.00    +0.000 C 
ATOM     15  O   UNL     1      47.199   4.518  13.534  0.00  0.00    +0.000 OA
ENDBRANCH   5  15
ENDBRANCH   1  12
BRANCH   3  16
ATOM     16  C   UNL     1      48.076   8.826  14.581  0.00  0.00    +0.000 C 
BRANCH  16  17
ATOM     17  C   UNL     1      49.064   7.918  15.274  0.00  0.00    +0.000 A 
ATOM     18  C   UNL     1      48.637   7.031  16.271  0.00  0.00    +0.000 A 
ATOM     19  C   UNL     1      49.549   6.192  16.929  0.00  0.00    +0.000 A 
ATOM     20  C   UNL     1      50.910   6.223  16.610  0.00  0.00    +0.000 A 
ATOM     21  C   UNL     1      51.341   7.130  15.632  0.00  0.00    +0.000 A 
ATOM     22  C   UNL     1      50.431   7.966  14.969  0.00  0.00    +0.000 A 
BRANCH  20  23
ATOM     23  C   UNL     1      51.914   5.394  17.303  0.00  0.00    +0.000 C 
ATOM     24  C   UNL     1      51.677   4.215  17.907  0.00  0.00    +0.000 C 
BRANCH  24  25
ATOM     25  C   UNL     1      52.723   3.416  18.570  0.00  0.00    +0.000 A 
ATOM     26  C   UNL     1      53.272   2.304  17.935  0.00  0.00    +0.000 A 
ATOM     27  C   UNL     1      54.276   1.583  18.581  0.00  0.00    +0.000 A 
ATOM     28  C   UNL     1      54.704   1.989  19.840  0.00  0.00    +0.000 A 
ATOM     29  C   UNL     1      54.102   3.099  20.402  0.00  0.00    +0.000 A 
ATOM     30  N   UNL     1      53.127   3.815  19.800  0.00  0.00    +0.000 NA
ENDBRANCH  24  25
ENDBRANCH  20  23
ENDBRANCH  16  17
ENDBRANCH   3  16
TORSDOF 6
ENDMDL
MODEL 3
REMARK VINA RESULT:    -5.164      6.944      9.664
REMARK INTER + INTRA:          -8.177
REMARK INTER:                  -7.095
REMARK INTRA:                  -1.082
REMARK UNBOUND:                -1.202
REMARK  Name = 
REMARK  7 active torsions:
REMARK  status: ('A' for Active; 'I' for Inactive)
REMARK    1  A    between atoms: C_1  and  O_2
REMARK    2  A    between atoms: O_2  and  C_3
REMARK    3  A    between atoms: C_10  and  C_11
REMARK    4  A    between atoms: N_13  and  C_14
REMARK    5  A    between atoms: C_14  and  C_15
REMARK    6  A    between atoms: C_18  and  C_19
REMARK    7  A    between atoms: C_20  and  C_21
REMARK                            x       y       z     vdW  Elec       q    Type
REMARK                         _______ _______ _______ _____ _____    ______ ____
ROOT
ATOM      1  C   UNL     1      53.130  10.166   9.867  0.00  0.00    +0.000 C 
ATOM      2  O   UNL     1      53.779   9.991  10.895  0.00  0.00    +0.000 OA
ATOM      3  N   UNL     1      51.818  10.557   9.914  0.00  0.00    +0.000 N 
ATOM      4  H   UNL     1      51.305  10.703   9.059  0.00  0.00    +0.000 HD
ENDROOT
BRANCH   1  12
ATOM      5  C   UNL     1      53.134   7.553   7.629  0.00  0.00    +0.000 A 
ATOM      6  N   UNL     1      53.245   6.723   6.573  0.00  0.00    +0.000 NA
ATOM      7  C   UNL     1      53.925   7.154   5.507  0.00  0.00    +0.000 A 
ATOM      8  N   UNL     1      54.532   8.330   5.366  0.00  0.00    +0.000 NA
ATOM      9  C   UNL     1      54.387   9.129   6.438  0.00  0.00    +0.000 A 
ATOM     10  S   UNL     1      55.103  10.667   6.439  0.00  0.00    +0.000 S 
ATOM     11  C   UNL     1      54.492  11.006   7.991  0.00  0.00    +0.000 A 
ATOM     12  C   UNL     1      53.733   9.973   8.534  0.00  0.00    +0.000 A 
ATOM     13  C   UNL     1      53.693   8.841   7.610  0.00  0.00    +0.000 A 
BRANCH   5  15
ATOM     14  C   UNL     1      53.211   6.413   9.671  0.00  0.00    +0.000 C 
ATOM     15  O   UNL     1      52.415   7.115   8.721  0.00  0.00    +0.000 OA
ENDBRANCH   5  15
ENDBRANCH   1  12
BRANCH   3  16
ATOM     16  C   UNL     1      51.119  10.803  11.152  0.00  0.00    +0.000 C 
BRANCH  16  17
ATOM     17  C   UNL     1      50.100   9.724  11.433  0.00  0.00    +0.000 A 
ATOM     18  C   UNL     1      50.484   8.379  11.488  0.00  0.00    +0.000 A 
ATOM     19  C   UNL     1      49.543   7.368  11.736  0.00  0.00    +0.000 A 
ATOM     20  C   UNL     1      48.193   7.679  11.932  0.00  0.00    +0.000 A 
ATOM     21  C   UNL     1      47.804   9.023  11.850  0.00  0.00    +0.000 A 
ATOM     22  C   UNL     1      48.744  10.036  11.606  0.00  0.00    +0.000 A 
BRANCH  20  23
ATOM     23  C   UNL     1      47.159   6.651  12.151  0.00  0.00    +0.000 C 
ATOM     24  C   UNL     1      46.207   6.294  11.269  0.00  0.00    +0.000 C 
BRANCH  24  25
ATOM     25  C   UNL     1      45.207   5.244  11.532  0.00  0.00    +0.000 A 
ATOM     26  C   UNL     1      44.488   5.235  12.726  0.00  0.00    +0.000 A 
ATOM     27  C   UNL     1      43.534   4.240  12.934  0.00  0.00    +0.000 A 
ATOM     28  C   UNL     1      43.322   3.282  11.948  0.00  0.00    +0.000 A 
ATOM     29  C   UNL     1      44.083   3.359  10.796  0.00  0.00    +0.000 A 
ATOM     30  N   UNL     1      45.015   4.311  10.570  0.00  0.00    +0.000 NA
ENDBRANCH  24  25
ENDBRANCH  20  23
ENDBRANCH  16  17
ENDBRANCH   3  16
TORSDOF 6
ENDMDL
MODEL 4
REMARK VINA RESULT:    -5.098      4.569      8.697
REMARK INTER + INTRA:          -8.088
REMARK INTER:                  -7.152
REMARK INTRA:                  -0.936
REMARK UNBOUND:                -1.202
REMARK  Name = 
REMARK  7 active torsions:
REMARK  status: ('A' for Active; 'I' for Inactive)
REMARK    1  A    between atoms: C_1  and  O_2
REMARK    2  A    between atoms: O_2  and  C_3
REMARK    3  A    between atoms: C_10  and  C_11
REMARK    4  A    between atoms: N_13  and  C_14
REMARK    5  A    between atoms: C_14  and  C_15
REMARK    6  A    between atoms: C_18  and  C_19
REMARK    7  A    between atoms: C_20  and  C_21
REMARK                            x       y       z     vdW  Elec       q    Type
REMARK                         _______ _______ _______ _____ _____    ______ ____
ROOT
ATOM      1  C   UNL     1      49.409  10.132  16.711  0.00  0.00    +0.000 C 
ATOM      2  O   UNL     1      50.545   9.759  16.427  0.00  0.00    +0.000 OA
ATOM      3  N   UNL     1      48.574  10.652  15.758  0.00  0.00    +0.000 N 
ATOM      4  H   UNL     1      47.643  10.945  16.009  0.00  0.00    +0.000 HD
ENDROOT
BRANCH   1  12
ATOM      5  C   UNL     1      48.219   7.515  18.602  0.00  0.00    +0.000 A 
ATOM      6  N   UNL     1      47.770   6.678  19.557  0.00  0.00    +0.000 NA
ATOM      7  C   UNL     1      47.483   7.192  20.755  0.00  0.00    +0.000 A 
ATOM      8  N   UNL     1      47.577   8.467  21.123  0.00  0.00    +0.000 NA
ATOM      9  C   UNL     1      48.037   9.264  20.143  0.00  0.00    +0.000 A 
ATOM     10  S   UNL     1      48.214  10.928  20.430  0.00  0.00    +0.000 S 
ATOM     11  C   UNL     1      48.804  11.188  18.856  0.00  0.00    +0.000 A 
ATOM     12  C   UNL     1      48.887  10.030  18.087  0.00  0.00    +0.000 A 
ATOM     13  C   UNL     1      48.403   8.884  18.856  0.00  0.00    +0.000 A 
BRANCH   5  15
ATOM     14  C   UNL     1      48.901   5.605  17.432  0.00  0.00    +0.000 C 
ATOM     15  O   UNL     1      48.534   6.981  17.370  0.00  0.00    +0.000 OA
ENDBRANCH   5  15
ENDBRANCH   1  12
BRANCH   3  16
ATOM     16  C   UNL     1      48.954  10.783  14.372  0.00  0.00    +0.000 C 
BRANCH  16  17
ATOM     17  C   UNL     1      48.424   9.637  13.544  0.00  0.00    +0.000 A 
ATOM     18  C   UNL     1      47.065   9.300  13.581  0.00  0.00    +0.000 A 
ATOM     19  C   UNL     1      46.565   8.229  12.825  0.00  0.00    +0.000 A 
ATOM     20  C   UNL     1      47.413   7.466  12.016  0.00  0.00    +0.000 A 
ATOM     21  C   UNL     1      48.778   7.785  12.000  0.00  0.00    +0.000 A 
ATOM     22  C   UNL     1      49.279   8.859  12.752  0.00  0.00    +0.000 A 
BRANCH  20  23
ATOM     23  C   UNL     1      46.945   6.304  11.238  0.00  0.00    +0.000 C 
ATOM     24  C   UNL     1      45.662   6.023  10.941  0.00  0.00    +0.000 C 
BRANCH  24  25
ATOM     25  C   UNL     1      45.250   4.857  10.141  0.00  0.00    +0.000 A 
ATOM     26  C   UNL     1      45.586   4.770   8.791  0.00  0.00    +0.000 A 
ATOM     27  C   UNL     1      45.200   3.642   8.069  0.00  0.00    +0.000 A 
ATOM     28  C   UNL     1      44.490   2.633   8.709  0.00  0.00    +0.000 A 
ATOM     29  C   UNL     1      44.190   2.800  10.049  0.00  0.00    +0.000 A 
ATOM     30  N   UNL     1      44.551   3.883  10.772  0.00  0.00    +0.000 NA
ENDBRANCH  24  25
ENDBRANCH  20  23
ENDBRANCH  16  17
ENDBRANCH   3  16
TORSDOF 6
ENDMDL
MODEL 5
REMARK VINA RESULT:    -5.081      3.422      4.616
REMARK INTER + INTRA:          -8.065
REMARK INTER:                  -7.247
REMARK INTRA:                  -0.818
REMARK UNBOUND:                -1.202
REMARK  Name = 
REMARK  7 active torsions:
REMARK  status: ('A' for Active; 'I' for Inactive)
REMARK    1  A    between atoms: C_1  and  O_2
REMARK    2  A    between atoms: O_2  and  C_3
REMARK    3  A    between atoms: C_10  and  C_11
REMARK    4  A    between atoms: N_13  and  C_14
REMARK    5  A    between atoms: C_14  and  C_15
REMARK    6  A    between atoms: C_18  and  C_19
REMARK    7  A    between atoms: C_20  and  C_21
REMARK                            x       y       z     vdW  Elec       q    Type
REMARK                         _______ _______ _______ _____ _____    ______ ____
ROOT
ATOM      1  C   UNL     1      45.817   6.823  11.585  0.00  0.00    +0.000 C 
ATOM      2  O   UNL     1      45.279   7.910  11.396  0.00  0.00    +0.000 OA
ATOM      3  N   UNL     1      47.175   6.719  11.736  0.00  0.00    +0.000 N 
ATOM      4  H   UNL     1      47.597   5.819  11.899  0.00  0.00    +0.000 HD
ENDROOT
BRANCH   1  12
ATOM      5  C   UNL     1      45.243   4.233   9.393  0.00  0.00    +0.000 A 
ATOM      6  N   UNL     1      44.906   3.090   8.764  0.00  0.00    +0.000 NA
ATOM      7  C   UNL     1      44.144   2.214   9.423  0.00  0.00    +0.000 A 
ATOM      8  N   UNL     1      43.654   2.345  10.654  0.00  0.00    +0.000 NA
ATOM      9  C   UNL     1      44.022   3.495  11.246  0.00  0.00    +0.000 A 
ATOM     10  S   UNL     1      43.481   3.837  12.818  0.00  0.00    +0.000 S 
ATOM     11  C   UNL     1      44.321   5.316  12.840  0.00  0.00    +0.000 A 
ATOM     12  C   UNL     1      45.029   5.578  11.670  0.00  0.00    +0.000 A 
ATOM     13  C   UNL     1      44.827   4.494  10.710  0.00  0.00    +0.000 A 
BRANCH   5  15
ATOM     14  C   UNL     1      46.710   4.555   7.598  0.00  0.00    +0.000 C 
ATOM     15  O   UNL     1      46.046   5.129   8.720  0.00  0.00    +0.000 OA
ENDBRANCH   5  15
ENDBRANCH   1  12
BRANCH   3  16
ATOM     16  C   UNL     1      48.055   7.862  11.698  0.00  0.00    +0.000 C 
BRANCH  16  17
ATOM     17  C   UNL     1      49.058   7.823  12.827  0.00  0.00    +0.000 A 
ATOM     18  C   UNL     1      50.288   8.482  12.710  0.00  0.00    +0.000 A 
ATOM     19  C   UNL     1      51.231   8.442  13.749  0.00  0.00    +0.000 A 
ATOM     20  C   UNL     1      50.967   7.738  14.928  0.00  0.00    +0.000 A 
ATOM     21  C   UNL     1      49.747   7.056  15.034  0.00  0.00    +0.000 A 
ATOM     22  C   UNL     1      48.801   7.099  13.999  0.00  0.00    +0.000 A 
BRANCH  20  23
ATOM     23  C   UNL     1      51.942   7.629  16.029  0.00  0.00    +0.000 C 
ATOM     24  C   UNL     1      52.834   6.634  16.192  0.00  0.00    +0.000 C 
BRANCH  24  25
ATOM     25  C   UNL     1      53.801   6.583  17.302  0.00  0.00    +0.000 A 
ATOM     26  C   UNL     1      54.890   7.453  17.332  0.00  0.00    +0.000 A 
ATOM     27  C   UNL     1      55.774   7.394  18.409  0.00  0.00    +0.000 A 
ATOM     28  C   UNL     1      55.551   6.471  19.424  0.00  0.00    +0.000 A 
ATOM     29  C   UNL     1      54.451   5.640  19.314  0.00  0.00    +0.000 A 
ATOM     30  N   UNL     1      53.580   5.675  18.282  0.00  0.00    +0.000 NA
ENDBRANCH  24  25
ENDBRANCH  20  23
ENDBRANCH  16  17
ENDBRANCH   3  16
TORSDOF 6
ENDMDL
MODEL 6
REMARK VINA RESULT:    -4.947     11.581     12.682
REMARK INTER + INTRA:          -7.885
REMARK INTER:                  -6.615
REMARK INTRA:                  -1.269
REMARK UNBOUND:                -1.202
REMARK  Name = 
REMARK  7 active torsions:
REMARK  status: ('A' for Active; 'I' for Inactive)
REMARK    1  A    between atoms: C_1  and  O_2
REMARK    2  A    between atoms: O_2  and  C_3
REMARK    3  A    between atoms: C_10  and  C_11
REMARK    4  A    between atoms: N_13  and  C_14
REMARK    5  A    between atoms: C_14  and  C_15
REMARK    6  A    between atoms: C_18  and  C_19
REMARK    7  A    between atoms: C_20  and  C_21
REMARK                            x       y       z     vdW  Elec       q    Type
REMARK                         _______ _______ _______ _____ _____    ______ ____
ROOT
ATOM      1  C   UNL     1      37.444  -0.674  12.127  0.00  0.00    +0.000 C 
ATOM      2  O   UNL     1      37.584   0.516  12.394  0.00  0.00    +0.000 OA
ATOM      3  N   UNL     1      37.445  -1.627  13.112  0.00  0.00    +0.000 N 
ATOM      4  H   UNL     1      37.320  -2.599  12.874  0.00  0.00    +0.000 HD
ENDROOT
BRANCH   1  12
ATOM      5  C   UNL     1      39.011  -3.053  10.197  0.00  0.00    +0.000 A 
ATOM      6  N   UNL     1      39.406  -3.939   9.262  0.00  0.00    +0.000 NA
ATOM      7  C   UNL     1      38.767  -3.940   8.090  0.00  0.00    +0.000 A 
ATOM      8  N   UNL     1      37.770  -3.139   7.722  0.00  0.00    +0.000 NA
ATOM      9  C   UNL     1      37.402  -2.279   8.687  0.00  0.00    +0.000 A 
ATOM     10  S   UNL     1      36.149  -1.173   8.390  0.00  0.00    +0.000 S 
ATOM     11  C   UNL     1      36.278  -0.528   9.959  0.00  0.00    +0.000 A 
ATOM     12  C   UNL     1      37.259  -1.136  10.738  0.00  0.00    +0.000 A 
ATOM     13  C   UNL     1      37.946  -2.167   9.963  0.00  0.00    +0.000 A 
BRANCH   5  15
ATOM     14  C   UNL     1      40.827  -2.252  11.437  0.00  0.00    +0.000 C 
ATOM     15  O   UNL     1      39.658  -3.066  11.415  0.00  0.00    +0.000 OA
ENDBRANCH   5  15
ENDBRANCH   1  12
BRANCH   3  16
ATOM     16  C   UNL     1      37.592  -1.306  14.511  0.00  0.00    +0.000 C 
BRANCH  16  17
ATOM     17  C   UNL     1      38.808  -1.976  15.106  0.00  0.00    +0.000 A 
ATOM     18  C   UNL     1      39.143  -3.288  14.750  0.00  0.00    +0.000 A 
ATOM     19  C   UNL     1      40.264  -3.923  15.306  0.00  0.00    +0.000 A 
ATOM     20  C   UNL     1      41.074  -3.262  16.235  0.00  0.00    +0.000 A 
ATOM     21  C   UNL     1      40.723  -1.959  16.612  0.00  0.00    +0.000 A 
ATOM     22  C   UNL     1      39.605  -1.320  16.053  0.00  0.00    +0.000 A 
BRANCH  20  23
ATOM     23  C   UNL     1      42.236  -3.900  16.881  0.00  0.00    +0.000 C 
ATOM     24  C   UNL     1      42.704  -5.134  16.613  0.00  0.00    +0.000 C 
BRANCH  24  25
ATOM     25  C   UNL     1      43.884  -5.718  17.276  0.00  0.00    +0.000 A 
ATOM     26  C   UNL     1      44.399  -5.143  18.436  0.00  0.00    +0.000 A 
ATOM     27  C   UNL     1      45.503  -5.734  19.051  0.00  0.00    +0.000 A 
ATOM     28  C   UNL     1      46.062  -6.878  18.493  0.00  0.00    +0.000 A 
ATOM     29  C   UNL     1      45.494  -7.380  17.336  0.00  0.00    +0.000 A 
ATOM     30  N   UNL     1      44.426  -6.827  16.720  0.00  0.00    +0.000 NA
ENDBRANCH  24  25
ENDBRANCH  20  23
ENDBRANCH  16  17
ENDBRANCH   3  16
TORSDOF 6
ENDMDL
MODEL 7
REMARK VINA RESULT:    -4.745     10.524     11.870
REMARK INTER + INTRA:          -7.612
REMARK INTER:                  -6.547
REMARK INTRA:                  -1.064
REMARK UNBOUND:                -1.202
REMARK  Name = 
REMARK  7 active torsions:
REMARK  status: ('A' for Active; 'I' for Inactive)
REMARK    1  A    between atoms: C_1  and  O_2
REMARK    2  A    between atoms: O_2  and  C_3
REMARK    3  A    between atoms: C_10  and  C_11
REMARK    4  A    between atoms: N_13  and  C_14
REMARK    5  A    between atoms: C_14  and  C_15
REMARK    6  A    between atoms: C_18  and  C_19
REMARK    7  A    between atoms: C_20  and  C_21
REMARK                            x       y       z     vdW  Elec       q    Type
REMARK                         _______ _______ _______ _____ _____    ______ ____
ROOT
ATOM      1  C   UNL     1      37.746  -1.173  18.147  0.00  0.00    +0.000 C 
ATOM      2  O   UNL     1      36.790  -1.936  18.265  0.00  0.00    +0.000 OA
ATOM      3  N   UNL     1      38.963  -1.469  18.704  0.00  0.00    +0.000 N 
ATOM      4  H   UNL     1      39.737  -0.834  18.590  0.00  0.00    +0.000 HD
ENDROOT
BRANCH   1  12
ATOM      5  C   UNL     1      38.562   2.090  18.868  0.00  0.00    +0.000 A 
ATOM      6  N   UNL     1      38.834   3.410  18.872  0.00  0.00    +0.000 NA
ATOM      7  C   UNL     1      38.545   4.112  17.773  0.00  0.00    +0.000 A 
ATOM      8  N   UNL     1      37.994   3.653  16.652  0.00  0.00    +0.000 NA
ATOM      9  C   UNL     1      37.749   2.332  16.688  0.00  0.00    +0.000 A 
ATOM     10  S   UNL     1      37.038   1.574  15.346  0.00  0.00    +0.000 S 
ATOM     11  C   UNL     1      37.080   0.057  16.117  0.00  0.00    +0.000 A 
ATOM     12  C   UNL     1      37.635   0.090  17.393  0.00  0.00    +0.000 A 
ATOM     13  C   UNL     1      38.012   1.459  17.740  0.00  0.00    +0.000 A 
BRANCH   5  15
ATOM     14  C   UNL     1      39.748   2.056  20.886  0.00  0.00    +0.000 C 
ATOM     15  O   UNL     1      38.879   1.362  19.996  0.00  0.00    +0.000 OA
ENDBRANCH   5  15
ENDBRANCH   1  12
BRANCH   3  16
ATOM     16  C   UNL     1      39.210  -2.682  19.445  0.00  0.00    +0.000 C 
BRANCH  16  17
ATOM     17  C   UNL     1      40.542  -3.292  19.076  0.00  0.00    +0.000 A 
ATOM     18  C   UNL     1      40.978  -3.297  17.745  0.00  0.00    +0.000 A 
ATOM     19  C   UNL     1      42.208  -3.872  17.391  0.00  0.00    +0.000 A 
ATOM     20  C   UNL     1      43.029  -4.459  18.358  0.00  0.00    +0.000 A 
ATOM     21  C   UNL     1      42.580  -4.478  19.686  0.00  0.00    +0.000 A 
ATOM     22  C   UNL     1      41.353  -3.900  20.043  0.00  0.00    +0.000 A 
BRANCH  20  23
ATOM     23  C   UNL     1      44.309  -5.115  18.030  0.00  0.00    +0.000 C 
ATOM     24  C   UNL     1      45.090  -5.788  18.895  0.00  0.00    +0.000 C 
BRANCH  24  25
ATOM     25  C   UNL     1      46.352  -6.444  18.510  0.00  0.00    +0.000 A 
ATOM     26  C   UNL     1      47.230  -5.823  17.623  0.00  0.00    +0.000 A 
ATOM     27  C   UNL     1      48.426  -6.460  17.297  0.00  0.00    +0.000 A 
ATOM     28  C   UNL     1      48.715  -7.697  17.861  0.00  0.00    +0.000 A 
ATOM     29  C   UNL     1      47.787  -8.247  18.727  0.00  0.00    +0.000 A 
ATOM     30  N   UNL     1      46.621  -7.653  19.059  0.00  0.00    +0.000 NA
ENDBRANCH  24  25
ENDBRANCH  20  23
ENDBRANCH  16  17
ENDBRANCH   3  16
TORSDOF 6
ENDMDL
MODEL 8
REMARK VINA RESULT:    -4.574     11.078     12.037
REMARK INTER + INTRA:          -7.380
REMARK INTER:                  -6.232
REMARK INTRA:                  -1.148
REMARK UNBOUND:                -1.202
REMARK  Name = 
REMARK  7 active torsions:
REMARK  status: ('A' for Active; 'I' for Inactive)
REMARK    1  A    between atoms: C_1  and  O_2
REMARK    2  A    between atoms: O_2  and  C_3
REMARK    3  A    between atoms: C_10  and  C_11
REMARK    4  A    between atoms: N_13  and  C_14
REMARK    5  A    between atoms: C_14  and  C_15
REMARK    6  A    between atoms: C_18  and  C_19
REMARK    7  A    between atoms: C_20  and  C_21
REMARK                            x       y       z     vdW  Elec       q    Type
REMARK                         _______ _______ _______ _____ _____    ______ ____
ROOT
ATOM      1  C   UNL     1      38.072   0.176  16.371  0.00  0.00    +0.000 C 
ATOM      2  O   UNL     1      37.048  -0.051  15.732  0.00  0.00    +0.000 OA
ATOM      3  N   UNL     1      39.159  -0.655  16.291  0.00  0.00    +0.000 N 
ATOM      4  H   UNL     1      39.993  -0.447  16.816  0.00  0.00    +0.000 HD
ENDROOT
BRANCH   1  12
ATOM      5  C   UNL     1      38.882   0.590  19.689  0.00  0.00    +0.000 A 
ATOM      6  N   UNL     1      39.213   1.030  20.919  0.00  0.00    +0.000 NA
ATOM      7  C   UNL     1      39.199   2.347  21.139  0.00  0.00    +0.000 A 
ATOM      8  N   UNL     1      38.874   3.300  20.268  0.00  0.00    +0.000 NA
ATOM      9  C   UNL     1      38.560   2.818  19.053  0.00  0.00    +0.000 A 
ATOM     10  S   UNL     1      38.112   3.891  17.817  0.00  0.00    +0.000 S 
ATOM     11  C   UNL     1      37.913   2.613  16.711  0.00  0.00    +0.000 A 
ATOM     12  C   UNL     1      38.187   1.358  17.247  0.00  0.00    +0.000 A 
ATOM     13  C   UNL     1      38.551   1.484  18.657  0.00  0.00    +0.000 A 
BRANCH   5  15
ATOM     14  C   UNL     1      37.687  -1.421  19.764  0.00  0.00    +0.000 C 
ATOM     15  O   UNL     1      38.916  -0.768  19.458  0.00  0.00    +0.000 OA
ENDBRANCH   5  15
ENDBRANCH   1  12
BRANCH   3  16
ATOM     16  C   UNL     1      39.184  -1.830  15.452  0.00  0.00    +0.000 C 
BRANCH  16  17
ATOM     17  C   UNL     1      40.254  -2.799  15.894  0.00  0.00    +0.000 A 
ATOM     18  C   UNL     1      40.707  -2.804  17.220  0.00  0.00    +0.000 A 
ATOM     19  C   UNL     1      41.710  -3.693  17.637  0.00  0.00    +0.000 A 
ATOM     20  C   UNL     1      42.286  -4.595  16.738  0.00  0.00    +0.000 A 
ATOM     21  C   UNL     1      41.853  -4.571  15.405  0.00  0.00    +0.000 A 
ATOM     22  C   UNL     1      40.847  -3.687  14.986  0.00  0.00    +0.000 A 
BRANCH  20  23
ATOM     23  C   UNL     1      43.373  -5.517  17.116  0.00  0.00    +0.000 C 
ATOM     24  C   UNL     1      44.312  -5.283  18.051  0.00  0.00    +0.000 C 
BRANCH  24  25
ATOM     25  C   UNL     1      45.367  -6.249  18.405  0.00  0.00    +0.000 A 
ATOM     26  C   UNL     1      46.616  -6.188  17.792  0.00  0.00    +0.000 A 
ATOM     27  C   UNL     1      47.600  -7.104  18.166  0.00  0.00    +0.000 A 
ATOM     28  C   UNL     1      47.311  -8.054  19.139  0.00  0.00    +0.000 A 
ATOM     29  C   UNL     1      46.044  -8.050  19.693  0.00  0.00    +0.000 A 
ATOM     30  N   UNL     1      45.073  -7.176  19.348  0.00  0.00    +0.000 NA
ENDBRANCH  24  25
ENDBRANCH  20  23
ENDBRANCH  16  17
ENDBRANCH   3  16
TORSDOF 6
ENDMDL
MODEL 9
REMARK VINA RESULT:    -4.552      6.967      8.081
REMARK INTER + INTRA:          -7.351
REMARK INTER:                  -6.292
REMARK INTRA:                  -1.058
REMARK UNBOUND:                -1.202
REMARK  Name = 
REMARK  7 active torsions:
REMARK  status: ('A' for Active; 'I' for Inactive)
REMARK    1  A    between atoms: C_1  and  O_2
REMARK    2  A    between atoms: O_2  and  C_3
REMARK    3  A    between atoms: C_10  and  C_11
REMARK    4  A    between atoms: N_13  and  C_14
REMARK    5  A    between atoms: C_14  and  C_15
REMARK    6  A    between atoms: C_18  and  C_19
REMARK    7  A    between atoms: C_20  and  C_21
REMARK                            x       y       z     vdW  Elec       q    Type
REMARK                         _______ _______ _______ _____ _____    ______ ____
ROOT
ATOM      1  C   UNL     1      49.954   9.827  12.263  0.00  0.00    +0.000 C 
ATOM      2  O   UNL     1      50.491  10.701  12.938  0.00  0.00    +0.000 OA
ATOM      3  N   UNL     1      50.697   8.901  11.579  0.00  0.00    +0.000 N 
ATOM      4  H   UNL     1      50.238   8.186  11.038  0.00  0.00    +0.000 HD
ENDROOT
BRANCH   1  12
ATOM      5  C   UNL     1      47.720   7.273  12.833  0.00  0.00    +0.000 A 
ATOM      6  N   UNL     1      46.649   6.480  13.034  0.00  0.00    +0.000 NA
ATOM      7  C   UNL     1      45.437   6.999  12.823  0.00  0.00    +0.000 A 
ATOM      8  N   UNL     1      45.155   8.233  12.414  0.00  0.00    +0.000 NA
ATOM      9  C   UNL     1      46.250   8.991  12.235  0.00  0.00    +0.000 A 
ATOM     10  S   UNL     1      46.082  10.595  11.705  0.00  0.00    +0.000 S 
ATOM     11  C   UNL     1      47.766  10.839  11.746  0.00  0.00    +0.000 A 
ATOM     12  C   UNL     1      48.485   9.723  12.165  0.00  0.00    +0.000 A 
ATOM     13  C   UNL     1      47.574   8.612  12.434  0.00  0.00    +0.000 A 
BRANCH   5  15
ATOM     14  C   UNL     1      49.428   6.956  14.402  0.00  0.00    +0.000 C 
ATOM     15  O   UNL     1      48.970   6.742  13.069  0.00  0.00    +0.000 OA
ENDBRANCH   5  15
ENDBRANCH   1  12
BRANCH   3  16
ATOM     16  C   UNL     1      52.140   8.878  11.611  0.00  0.00    +0.000 C 
BRANCH  16  17
ATOM     17  C   UNL     1      52.695   7.812  10.696  0.00  0.00    +0.000 A 
ATOM     18  C   UNL     1      53.906   7.176  10.996  0.00  0.00    +0.000 A 
ATOM     19  C   UNL     1      54.436   6.194  10.146  0.00  0.00    +0.000 A 
ATOM     20  C   UNL     1      53.769   5.826   8.973  0.00  0.00    +0.000 A 
ATOM     21  C   UNL     1      52.571   6.483   8.658  0.00  0.00    +0.000 A 
ATOM     22  C   UNL     1      52.037   7.462   9.509  0.00  0.00    +0.000 A 
BRANCH  20  23
ATOM     23  C   UNL     1      54.306   4.833   8.025  0.00  0.00    +0.000 C 
ATOM     24  C   UNL     1      53.606   4.215   7.055  0.00  0.00    +0.000 C 
BRANCH  24  25
ATOM     25  C   UNL     1      54.198   3.242   6.119  0.00  0.00    +0.000 A 
ATOM     26  C   UNL     1      54.974   3.676   5.046  0.00  0.00    +0.000 A 
ATOM     27  C   UNL     1      55.539   2.728   4.192  0.00  0.00    +0.000 A 
ATOM     28  C   UNL     1      55.314   1.377   4.431  0.00  0.00    +0.000 A 
ATOM     29  C   UNL     1      54.527   1.032   5.514  0.00  0.00    +0.000 A 
ATOM     30  N   UNL     1      53.967   1.929   6.355  0.00  0.00    +0.000 NA
ENDBRANCH  24  25
ENDBRANCH  20  23
ENDBRANCH  16  17
ENDBRANCH   3  16
TORSDOF 6
ENDMDL
