MODEL 1
REMARK VINA RESULT:    -7.675      0.000      0.000
REMARK INTER + INTRA:         -10.956
REMARK INTER:                 -10.367
REMARK INTRA:                  -0.589
REMARK UNBOUND:                -0.589
REMARK  Name = 
REMARK  7 active torsions:
REMARK  status: ('A' for Active; 'I' for Inactive)
REMARK    1  A    between atoms: C_1  and  O_2
REMARK    2  A    between atoms: O_2  and  C_3
REMARK    3  A    between atoms: C_5  and  C_6
REMARK    4  A    between atoms: C_11  and  N_12
REMARK    5  A    between atoms: N_12  and  C_13
REMARK    6  A    between atoms: C_13  and  C_14
REMARK    7  A    between atoms: C_14  and  C_15
REMARK                            x       y       z     vdW  Elec       q    Type
REMARK                         _______ _______ _______ _____ _____    ______ ____
ROOT
ATOM      1  C   UNL     1      44.853   4.677  12.379  0.00  0.00    +0.000 A 
ATOM      2  C   UNL     1      45.451   4.309  13.589  0.00  0.00    +0.000 A 
ATOM      3  C   UNL     1      46.685   4.849  13.960  0.00  0.00    +0.000 A 
ATOM      4  C   UNL     1      47.270   5.743  13.084  0.00  0.00    +0.000 A 
ATOM      5  N   UNL     1      46.740   6.093  11.885  0.00  0.00    +0.000 NA
ATOM      6  C   UNL     1      45.547   5.563  11.528  0.00  0.00    +0.000 A 
ENDROOT
BRANCH   3   7
ATOM      7  C   UNL     1      47.289   4.427  15.248  0.00  0.00    +0.000 C 
ATOM      8  N   UNL     1      47.583   5.370  16.191  0.00  0.00    +0.000 N 
ATOM      9  O   UNL     1      47.530   3.244  15.476  0.00  0.00    +0.000 OA
ATOM     10  H   UNL     1      47.446   6.367  16.103  0.00  0.00    +0.000 HD
ATOM     11  H   UNL     1      48.010   5.032  17.046  0.00  0.00    +0.000 HD
ENDBRANCH   3   7
BRANCH   1  13
ATOM     12  C   UNL     1      43.490   2.778  11.924  0.00  0.00    +0.000 C 
ATOM     13  O   UNL     1      43.642   4.195  11.944  0.00  0.00    +0.000 OA
ENDBRANCH   1  13
BRANCH   6  14
ATOM     14  N   UNL     1      45.002   5.894  10.272  0.00  0.00    +0.000 N 
ATOM     15  H   UNL     1      44.859   6.900  10.224  0.00  0.00    +0.000 HD
BRANCH  14  16
ATOM     16  C   UNL     1      45.665   5.281   9.120  0.00  0.00    +0.000 C 
BRANCH  16  17
ATOM     17  C   UNL     1      44.899   4.048   8.622  0.00  0.00    +0.000 C 
BRANCH  17  18
ATOM     18  C   UNL     1      45.804   3.070   7.902  0.00  0.00    +0.000 A 
ATOM     19  C   UNL     1      46.446   3.443   6.712  0.00  0.00    +0.000 A 
ATOM     20  C   UNL     1      47.265   2.539   6.032  0.00  0.00    +0.000 A 
ATOM     21  C   UNL     1      47.446   1.250   6.529  0.00  0.00    +0.000 A 
ATOM     22  C   UNL     1      46.804   0.864   7.704  0.00  0.00    +0.000 A 
ATOM     23  C   UNL     1      45.985   1.767   8.386  0.00  0.00    +0.000 A 
ENDBRANCH  17  18
ENDBRANCH  16  17
ENDBRANCH  14  16
ENDBRANCH   6  14
TORSDOF 6
ENDMDL
MODEL 2
REMARK VINA RESULT:    -7.552      1.333      1.924
REMARK INTER + INTRA:         -10.790
REMARK INTER:                 -10.220
REMARK INTRA:                  -0.571
REMARK UNBOUND:                -0.589
REMARK  Name = 
REMARK  7 active torsions:
REMARK  status: ('A' for Active; 'I' for Inactive)
REMARK    1  A    between atoms: C_1  and  O_2
REMARK    2  A    between atoms: O_2  and  C_3
REMARK    3  A    between atoms: C_5  and  C_6
REMARK    4  A    between atoms: C_11  and  N_12
REMARK    5  A    between atoms: N_12  and  C_13
REMARK    6  A    between atoms: C_13  and  C_14
REMARK    7  A    between atoms: C_14  and  C_15
REMARK                            x       y       z     vdW  Elec       q    Type
REMARK                         _______ _______ _______ _____ _____    ______ ____
ROOT
ATOM      1  C   UNL     1      45.067   5.893  12.131  0.00  0.00    +0.000 A 
ATOM      2  C   UNL     1      45.874   5.751  13.264  0.00  0.00    +0.000 A 
ATOM      3  C   UNL     1      46.297   4.485  13.676  0.00  0.00    +0.000 A 
ATOM      4  C   UNL     1      45.879   3.405  12.922  0.00  0.00    +0.000 A 
ATOM      5  N   UNL     1      45.064   3.500  11.842  0.00  0.00    +0.000 NA
ATOM      6  C   UNL     1      44.653   4.728  11.449  0.00  0.00    +0.000 A 
ENDROOT
BRANCH   3   7
ATOM      7  C   UNL     1      47.147   4.377  14.888  0.00  0.00    +0.000 C 
ATOM      8  N   UNL     1      47.517   5.512  15.551  0.00  0.00    +0.000 N 
ATOM      9  O   UNL     1      47.525   3.282  15.299  0.00  0.00    +0.000 OA
ATOM     10  H   UNL     1      47.281   6.459  15.292  0.00  0.00    +0.000 HD
ATOM     11  H   UNL     1      48.111   5.384  16.361  0.00  0.00    +0.000 HD
ENDBRANCH   3   7
BRANCH   1  13
ATOM     12  C   UNL     1      45.366   8.253  12.026  0.00  0.00    +0.000 C 
ATOM     13  O   UNL     1      44.613   7.101  11.658  0.00  0.00    +0.000 OA
ENDBRANCH   1  13
BRANCH   6  14
ATOM     14  N   UNL     1      43.781   4.837  10.348  0.00  0.00    +0.000 N 
ATOM     15  H   UNL     1      43.653   5.819  10.119  0.00  0.00    +0.000 HD
BRANCH  14  16
ATOM     16  C   UNL     1      44.073   3.945   9.227  0.00  0.00    +0.000 C 
BRANCH  16  17
ATOM     17  C   UNL     1      45.293   4.427   8.429  0.00  0.00    +0.000 C 
BRANCH  17  18
ATOM     18  C   UNL     1      46.042   3.278   7.788  0.00  0.00    +0.000 A 
ATOM     19  C   UNL     1      46.746   3.471   6.590  0.00  0.00    +0.000 A 
ATOM     20  C   UNL     1      47.420   2.409   5.982  0.00  0.00    +0.000 A 
ATOM     21  C   UNL     1      47.393   1.142   6.559  0.00  0.00    +0.000 A 
ATOM     22  C   UNL     1      46.688   0.935   7.743  0.00  0.00    +0.000 A 
ATOM     23  C   UNL     1      46.012   1.995   8.353  0.00  0.00    +0.000 A 
ENDBRANCH  17  18
ENDBRANCH  16  17
ENDBRANCH  14  16
ENDBRANCH   6  14
TORSDOF 6
ENDMDL
MODEL 3
REMARK VINA RESULT:    -7.481      2.064      3.203
REMARK INTER + INTRA:         -10.694
REMARK INTER:                 -10.162
REMARK INTRA:                  -0.532
REMARK UNBOUND:                -0.589
REMARK  Name = 
REMARK  7 active torsions:
REMARK  status: ('A' for Active; 'I' for Inactive)
REMARK    1  A    between atoms: C_1  and  O_2
REMARK    2  A    between atoms: O_2  and  C_3
REMARK    3  A    between atoms: C_5  and  C_6
REMARK    4  A    between atoms: C_11  and  N_12
REMARK    5  A    between atoms: N_12  and  C_13
REMARK    6  A    between atoms: C_13  and  C_14
REMARK    7  A    between atoms: C_14  and  C_15
REMARK                            x       y       z     vdW  Elec       q    Type
REMARK                         _______ _______ _______ _____ _____    ______ ____
ROOT
ATOM      1  C   UNL     1      46.005   4.820  12.946  0.00  0.00    +0.000 A 
ATOM      2  C   UNL     1      46.221   6.148  13.331  0.00  0.00    +0.000 A 
ATOM      3  C   UNL     1      45.635   7.195  12.617  0.00  0.00    +0.000 A 
ATOM      4  C   UNL     1      44.850   6.855  11.531  0.00  0.00    +0.000 A 
ATOM      5  N   UNL     1      44.651   5.583  11.103  0.00  0.00    +0.000 NA
ATOM      6  C   UNL     1      45.225   4.572  11.796  0.00  0.00    +0.000 A 
ENDROOT
BRANCH   3   7
ATOM      7  C   UNL     1      45.895   8.589  13.054  0.00  0.00    +0.000 C 
ATOM      8  N   UNL     1      46.766   8.818  14.080  0.00  0.00    +0.000 N 
ATOM      9  O   UNL     1      45.334   9.537  12.508  0.00  0.00    +0.000 OA
ATOM     10  H   UNL     1      47.264   8.118  14.609  0.00  0.00    +0.000 HD
ATOM     11  H   UNL     1      46.895   9.786  14.351  0.00  0.00    +0.000 HD
ENDBRANCH   3   7
BRANCH   1  13
ATOM     12  C   UNL     1      47.094   3.976  14.888  0.00  0.00    +0.000 C 
ATOM     13  O   UNL     1      46.542   3.735  13.597  0.00  0.00    +0.000 OA
ENDBRANCH   1  13
BRANCH   6  14
ATOM     14  N   UNL     1      45.051   3.249  11.343  0.00  0.00    +0.000 N 
ATOM     15  H   UNL     1      44.879   2.643  12.142  0.00  0.00    +0.000 HD
BRANCH  14  16
ATOM     16  C   UNL     1      44.145   3.090  10.206  0.00  0.00    +0.000 C 
BRANCH  16  17
ATOM     17  C   UNL     1      44.508   1.856   9.367  0.00  0.00    +0.000 C 
BRANCH  17  18
ATOM     18  C   UNL     1      45.591   2.158   8.353  0.00  0.00    +0.000 A 
ATOM     19  C   UNL     1      46.500   1.162   7.969  0.00  0.00    +0.000 A 
ATOM     20  C   UNL     1      47.514   1.440   7.050  0.00  0.00    +0.000 A 
ATOM     21  C   UNL     1      47.637   2.718   6.511  0.00  0.00    +0.000 A 
ATOM     22  C   UNL     1      46.747   3.720   6.893  0.00  0.00    +0.000 A 
ATOM     23  C   UNL     1      45.731   3.444   7.812  0.00  0.00    +0.000 A 
ENDBRANCH  17  18
ENDBRANCH  16  17
ENDBRANCH  14  16
ENDBRANCH   6  14
TORSDOF 6
ENDMDL
MODEL 4
REMARK VINA RESULT:    -6.751      2.085      3.037
REMARK INTER + INTRA:          -9.709
REMARK INTER:                  -9.159
REMARK INTRA:                  -0.549
REMARK UNBOUND:                -0.589
REMARK  Name = 
REMARK  7 active torsions:
REMARK  status: ('A' for Active; 'I' for Inactive)
REMARK    1  A    between atoms: C_1  and  O_2
REMARK    2  A    between atoms: O_2  and  C_3
REMARK    3  A    between atoms: C_5  and  C_6
REMARK    4  A    between atoms: C_11  and  N_12
REMARK    5  A    between atoms: N_12  and  C_13
REMARK    6  A    between atoms: C_13  and  C_14
REMARK    7  A    between atoms: C_14  and  C_15
REMARK                            x       y       z     vdW  Elec       q    Type
REMARK                         _______ _______ _______ _____ _____    ______ ____
ROOT
ATOM      1  C   UNL     1      46.565   5.165  13.522  0.00  0.00    +0.000 A 
ATOM      2  C   UNL     1      47.711   5.965  13.576  0.00  0.00    +0.000 A 
ATOM      3  C   UNL     1      48.003   6.851  12.537  0.00  0.00    +0.000 A 
ATOM      4  C   UNL     1      47.120   6.891  11.475  0.00  0.00    +0.000 A 
ATOM      5  N   UNL     1      46.021   6.103  11.369  0.00  0.00    +0.000 NA
ATOM      6  C   UNL     1      45.744   5.242  12.377  0.00  0.00    +0.000 A 
ENDROOT
BRANCH   3   7
ATOM      7  C   UNL     1      49.233   7.677  12.629  0.00  0.00    +0.000 C 
ATOM      8  N   UNL     1      50.330   7.331  11.893  0.00  0.00    +0.000 N 
ATOM      9  O   UNL     1      49.278   8.664  13.361  0.00  0.00    +0.000 OA
ATOM     10  H   UNL     1      50.410   6.534  11.278  0.00  0.00    +0.000 HD
ATOM     11  H   UNL     1      51.148   7.917  12.005  0.00  0.00    +0.000 HD
ENDBRANCH   3   7
BRANCH   1  13
ATOM     12  C   UNL     1      47.128   4.096  15.574  0.00  0.00    +0.000 C 
ATOM     13  O   UNL     1      46.205   4.272  14.503  0.00  0.00    +0.000 OA
ENDBRANCH   1  13
BRANCH   6  14
ATOM     14  N   UNL     1      44.624   4.395  12.263  0.00  0.00    +0.000 N 
ATOM     15  H   UNL     1      43.805   4.954  12.035  0.00  0.00    +0.000 HD
BRANCH  14  16
ATOM     16  C   UNL     1      44.827   3.191  11.458  0.00  0.00    +0.000 C 
BRANCH  16  17
ATOM     17  C   UNL     1      44.229   3.348  10.052  0.00  0.00    +0.000 C 
BRANCH  17  18
ATOM     18  C   UNL     1      45.235   3.022   8.969  0.00  0.00    +0.000 A 
ATOM     19  C   UNL     1      45.701   4.028   8.108  0.00  0.00    +0.000 A 
ATOM     20  C   UNL     1      46.613   3.730   7.093  0.00  0.00    +0.000 A 
ATOM     21  C   UNL     1      47.063   2.424   6.921  0.00  0.00    +0.000 A 
ATOM     22  C   UNL     1      46.600   1.414   7.761  0.00  0.00    +0.000 A 
ATOM     23  C   UNL     1      45.688   1.709   8.778  0.00  0.00    +0.000 A 
ENDBRANCH  17  18
ENDBRANCH  16  17
ENDBRANCH  14  16
ENDBRANCH   6  14
TORSDOF 6
ENDMDL
MODEL 5
REMARK VINA RESULT:    -6.159      2.991      7.638
REMARK INTER + INTRA:          -8.909
REMARK INTER:                  -8.495
REMARK INTRA:                  -0.414
REMARK UNBOUND:                -0.589
REMARK  Name = 
REMARK  7 active torsions:
REMARK  status: ('A' for Active; 'I' for Inactive)
REMARK    1  A    between atoms: C_1  and  O_2
REMARK    2  A    between atoms: O_2  and  C_3
REMARK    3  A    between atoms: C_5  and  C_6
REMARK    4  A    between atoms: C_11  and  N_12
REMARK    5  A    between atoms: N_12  and  C_13
REMARK    6  A    between atoms: C_13  and  C_14
REMARK    7  A    between atoms: C_14  and  C_15
REMARK                            x       y       z     vdW  Elec       q    Type
REMARK                         _______ _______ _______ _____ _____    ______ ____
ROOT
ATOM      1  C   UNL     1      46.528   5.808  12.907  0.00  0.00    +0.000 A 
ATOM      2  C   UNL     1      46.211   5.826  11.544  0.00  0.00    +0.000 A 
ATOM      3  C   UNL     1      45.478   4.783  10.976  0.00  0.00    +0.000 A 
ATOM      4  C   UNL     1      45.094   3.752  11.813  0.00  0.00    +0.000 A 
ATOM      5  N   UNL     1      45.417   3.680  13.129  0.00  0.00    +0.000 NA
ATOM      6  C   UNL     1      46.132   4.692  13.674  0.00  0.00    +0.000 A 
ENDROOT
BRANCH   3   7
ATOM      7  C   UNL     1      45.168   4.837   9.525  0.00  0.00    +0.000 C 
ATOM      8  N   UNL     1      43.939   4.436   9.087  0.00  0.00    +0.000 N 
ATOM      9  O   UNL     1      46.004   5.232   8.715  0.00  0.00    +0.000 OA
ATOM     10  H   UNL     1      43.188   4.078   9.659  0.00  0.00    +0.000 HD
ATOM     11  H   UNL     1      43.784   4.476   8.087  0.00  0.00    +0.000 HD
ENDBRANCH   3   7
BRANCH   1  13
ATOM     12  C   UNL     1      48.397   7.284  12.865  0.00  0.00    +0.000 C 
ATOM     13  O   UNL     1      47.242   6.796  13.542  0.00  0.00    +0.000 OA
ENDBRANCH   1  13
BRANCH   6  14
ATOM     14  N   UNL     1      46.501   4.613  15.032  0.00  0.00    +0.000 N 
ATOM     15  H   UNL     1      45.668   4.700  15.610  0.00  0.00    +0.000 HD
BRANCH  14  16
ATOM     16  C   UNL     1      47.410   3.518  15.371  0.00  0.00    +0.000 C 
BRANCH  16  17
ATOM     17  C   UNL     1      47.691   3.468  16.880  0.00  0.00    +0.000 C 
BRANCH  17  18
ATOM     18  C   UNL     1      49.159   3.248  17.177  0.00  0.00    +0.000 A 
ATOM     19  C   UNL     1      49.747   1.995  16.954  0.00  0.00    +0.000 A 
ATOM     20  C   UNL     1      51.096   1.780  17.246  0.00  0.00    +0.000 A 
ATOM     21  C   UNL     1      51.870   2.811  17.772  0.00  0.00    +0.000 A 
ATOM     22  C   UNL     1      51.294   4.058  18.009  0.00  0.00    +0.000 A 
ATOM     23  C   UNL     1      49.945   4.276  17.718  0.00  0.00    +0.000 A 
ENDBRANCH  17  18
ENDBRANCH  16  17
ENDBRANCH  14  16
ENDBRANCH   6  14
TORSDOF 6
ENDMDL
MODEL 6
REMARK VINA RESULT:    -6.023      2.458      3.010
REMARK INTER + INTRA:          -8.725
REMARK INTER:                  -8.761
REMARK INTRA:                   0.036
REMARK UNBOUND:                -0.589
REMARK  Name = 
REMARK  7 active torsions:
REMARK  status: ('A' for Active; 'I' for Inactive)
REMARK    1  A    between atoms: C_1  and  O_2
REMARK    2  A    between atoms: O_2  and  C_3
REMARK    3  A    between atoms: C_5  and  C_6
REMARK    4  A    between atoms: C_11  and  N_12
REMARK    5  A    between atoms: N_12  and  C_13
REMARK    6  A    between atoms: C_13  and  C_14
REMARK    7  A    between atoms: C_14  and  C_15
REMARK                            x       y       z     vdW  Elec       q    Type
REMARK                         _______ _______ _______ _____ _____    ______ ____
ROOT
ATOM      1  C   UNL     1      44.433   6.326  11.799  0.00  0.00    +0.000 A 
ATOM      2  C   UNL     1      44.772   7.630  12.176  0.00  0.00    +0.000 A 
ATOM      3  C   UNL     1      46.090   8.078  12.061  0.00  0.00    +0.000 A 
ATOM      4  C   UNL     1      47.020   7.182  11.570  0.00  0.00    +0.000 A 
ATOM      5  N   UNL     1      46.737   5.899  11.233  0.00  0.00    +0.000 NA
ATOM      6  C   UNL     1      45.460   5.468  11.350  0.00  0.00    +0.000 A 
ENDROOT
BRANCH   3   7
ATOM      7  C   UNL     1      46.409   9.466  12.478  0.00  0.00    +0.000 C 
ATOM      8  N   UNL     1      45.440  10.426  12.412  0.00  0.00    +0.000 N 
ATOM      9  O   UNL     1      47.533   9.764  12.878  0.00  0.00    +0.000 OA
ATOM     10  H   UNL     1      44.494  10.299  12.083  0.00  0.00    +0.000 HD
ATOM     11  H   UNL     1      45.714  11.361  12.692  0.00  0.00    +0.000 HD
ENDBRANCH   3   7
BRANCH   1  13
ATOM     12  C   UNL     1      42.858   5.037  13.034  0.00  0.00    +0.000 C 
ATOM     13  O   UNL     1      43.162   5.811  11.877  0.00  0.00    +0.000 OA
ENDBRANCH   1  13
BRANCH   6  14
ATOM     14  N   UNL     1      45.160   4.128  11.033  0.00  0.00    +0.000 N 
ATOM     15  H   UNL     1      44.798   3.662  11.861  0.00  0.00    +0.000 HD
BRANCH  14  16
ATOM     16  C   UNL     1      44.400   3.931   9.799  0.00  0.00    +0.000 C 
BRANCH  16  17
ATOM     17  C   UNL     1      45.180   4.429   8.573  0.00  0.00    +0.000 C 
BRANCH  17  18
ATOM     18  C   UNL     1      45.943   3.312   7.895  0.00  0.00    +0.000 A 
ATOM     19  C   UNL     1      46.592   3.537   6.672  0.00  0.00    +0.000 A 
ATOM     20  C   UNL     1      47.280   2.504   6.030  0.00  0.00    +0.000 A 
ATOM     21  C   UNL     1      47.321   1.234   6.599  0.00  0.00    +0.000 A 
ATOM     22  C   UNL     1      46.670   0.994   7.808  0.00  0.00    +0.000 A 
ATOM     23  C   UNL     1      45.981   2.025   8.451  0.00  0.00    +0.000 A 
ENDBRANCH  17  18
ENDBRANCH  16  17
ENDBRANCH  14  16
ENDBRANCH   6  14
TORSDOF 6
ENDMDL
MODEL 7
REMARK VINA RESULT:    -5.856      2.137      3.787
REMARK INTER + INTRA:          -8.499
REMARK INTER:                  -7.922
REMARK INTRA:                  -0.577
REMARK UNBOUND:                -0.589
REMARK  Name = 
REMARK  7 active torsions:
REMARK  status: ('A' for Active; 'I' for Inactive)
REMARK    1  A    between atoms: C_1  and  O_2
REMARK    2  A    between atoms: O_2  and  C_3
REMARK    3  A    between atoms: C_5  and  C_6
REMARK    4  A    between atoms: C_11  and  N_12
REMARK    5  A    between atoms: N_12  and  C_13
REMARK    6  A    between atoms: C_13  and  C_14
REMARK    7  A    between atoms: C_14  and  C_15
REMARK                            x       y       z     vdW  Elec       q    Type
REMARK                         _______ _______ _______ _____ _____    ______ ____
ROOT
ATOM      1  C   UNL     1      47.140   4.743  15.060  0.00  0.00    +0.000 A 
ATOM      2  C   UNL     1      48.174   5.660  15.277  0.00  0.00    +0.000 A 
ATOM      3  C   UNL     1      48.402   6.695  14.368  0.00  0.00    +0.000 A 
ATOM      4  C   UNL     1      47.572   6.761  13.266  0.00  0.00    +0.000 A 
ATOM      5  N   UNL     1      46.585   5.868  13.001  0.00  0.00    +0.000 NA
ATOM      6  C   UNL     1      46.371   4.864  13.883  0.00  0.00    +0.000 A 
ENDROOT
BRANCH   3   7
ATOM      7  C   UNL     1      49.514   7.642  14.631  0.00  0.00    +0.000 C 
ATOM      8  N   UNL     1      50.044   8.359  13.596  0.00  0.00    +0.000 N 
ATOM      9  O   UNL     1      49.967   7.787  15.765  0.00  0.00    +0.000 OA
ATOM     10  H   UNL     1      49.764   8.305  12.628  0.00  0.00    +0.000 HD
ATOM     11  H   UNL     1      50.812   8.978  13.826  0.00  0.00    +0.000 HD
ENDBRANCH   3   7
BRANCH   1  13
ATOM     12  C   UNL     1      47.935   3.164  16.655  0.00  0.00    +0.000 C 
ATOM     13  O   UNL     1      46.848   3.701  15.906  0.00  0.00    +0.000 OA
ENDBRANCH   1  13
BRANCH   6  14
ATOM     14  N   UNL     1      45.370   3.911  13.603  0.00  0.00    +0.000 N 
ATOM     15  H   UNL     1      45.114   3.434  14.463  0.00  0.00    +0.000 HD
BRANCH  14  16
ATOM     16  C   UNL     1      44.263   4.391  12.776  0.00  0.00    +0.000 C 
BRANCH  16  17
ATOM     17  C   UNL     1      43.797   3.316  11.784  0.00  0.00    +0.000 C 
BRANCH  17  18
ATOM     18  C   UNL     1      44.491   3.441  10.444  0.00  0.00    +0.000 A 
ATOM     19  C   UNL     1      44.673   2.312   9.632  0.00  0.00    +0.000 A 
ATOM     20  C   UNL     1      45.332   2.417   8.404  0.00  0.00    +0.000 A 
ATOM     21  C   UNL     1      45.824   3.649   7.979  0.00  0.00    +0.000 A 
ATOM     22  C   UNL     1      45.659   4.775   8.782  0.00  0.00    +0.000 A 
ATOM     23  C   UNL     1      45.000   4.673  10.010  0.00  0.00    +0.000 A 
ENDBRANCH  17  18
ENDBRANCH  16  17
ENDBRANCH  14  16
ENDBRANCH   6  14
TORSDOF 6
ENDMDL
MODEL 8
REMARK VINA RESULT:    -5.745      2.731      6.478
REMARK INTER + INTRA:          -8.349
REMARK INTER:                  -7.496
REMARK INTRA:                  -0.853
REMARK UNBOUND:                -0.589
REMARK  Name = 
REMARK  7 active torsions:
REMARK  status: ('A' for Active; 'I' for Inactive)
REMARK    1  A    between atoms: C_1  and  O_2
REMARK    2  A    between atoms: O_2  and  C_3
REMARK    3  A    between atoms: C_5  and  C_6
REMARK    4  A    between atoms: C_11  and  N_12
REMARK    5  A    between atoms: N_12  and  C_13
REMARK    6  A    between atoms: C_13  and  C_14
REMARK    7  A    between atoms: C_14  and  C_15
REMARK                            x       y       z     vdW  Elec       q    Type
REMARK                         _______ _______ _______ _____ _____    ______ ____
ROOT
ATOM      1  C   UNL     1      45.607   5.747  11.670  0.00  0.00    +0.000 A 
ATOM      2  C   UNL     1      45.264   5.091  10.484  0.00  0.00    +0.000 A 
ATOM      3  C   UNL     1      45.005   3.719  10.485  0.00  0.00    +0.000 A 
ATOM      4  C   UNL     1      45.109   3.059  11.695  0.00  0.00    +0.000 A 
ATOM      5  N   UNL     1      45.479   3.653  12.857  0.00  0.00    +0.000 NA
ATOM      6  C   UNL     1      45.732   4.983  12.850  0.00  0.00    +0.000 A 
ENDROOT
BRANCH   3   7
ATOM      7  C   UNL     1      44.651   3.059   9.204  0.00  0.00    +0.000 C 
ATOM      8  N   UNL     1      44.593   1.696   9.146  0.00  0.00    +0.000 N 
ATOM      9  O   UNL     1      44.414   3.722   8.196  0.00  0.00    +0.000 OA
ATOM     10  H   UNL     1      44.787   1.056   9.902  0.00  0.00    +0.000 HD
ATOM     11  H   UNL     1      44.364   1.295   8.244  0.00  0.00    +0.000 HD
ENDBRANCH   3   7
BRANCH   1  13
ATOM     12  C   UNL     1      44.788   7.975  11.477  0.00  0.00    +0.000 C 
ATOM     13  O   UNL     1      45.873   7.093  11.754  0.00  0.00    +0.000 OA
ENDBRANCH   1  13
BRANCH   6  14
ATOM     14  N   UNL     1      46.148   5.605  14.044  0.00  0.00    +0.000 N 
ATOM     15  H   UNL     1      45.406   5.529  14.736  0.00  0.00    +0.000 HD
BRANCH  14  16
ATOM     16  C   UNL     1      47.493   5.254  14.498  0.00  0.00    +0.000 C 
BRANCH  16  17
ATOM     17  C   UNL     1      48.282   6.497  14.933  0.00  0.00    +0.000 C 
BRANCH  17  18
ATOM     18  C   UNL     1      48.516   7.452  13.782  0.00  0.00    +0.000 A 
ATOM     19  C   UNL     1      48.028   8.765  13.839  0.00  0.00    +0.000 A 
ATOM     20  C   UNL     1      48.222   9.644  12.771  0.00  0.00    +0.000 A 
ATOM     21  C   UNL     1      48.899   9.218  11.631  0.00  0.00    +0.000 A 
ATOM     22  C   UNL     1      49.378   7.912  11.557  0.00  0.00    +0.000 A 
ATOM     23  C   UNL     1      49.186   7.031  12.624  0.00  0.00    +0.000 A 
ENDBRANCH  17  18
ENDBRANCH  16  17
ENDBRANCH  14  16
ENDBRANCH   6  14
TORSDOF 6
ENDMDL
MODEL 9
REMARK VINA RESULT:    -5.657      3.219      8.483
REMARK INTER + INTRA:          -8.230
REMARK INTER:                  -7.818
REMARK INTRA:                  -0.412
REMARK UNBOUND:                -0.589
REMARK  Name = 
REMARK  7 active torsions:
REMARK  status: ('A' for Active; 'I' for Inactive)
REMARK    1  A    between atoms: C_1  and  O_2
REMARK    2  A    between atoms: O_2  and  C_3
REMARK    3  A    between atoms: C_5  and  C_6
REMARK    4  A    between atoms: C_11  and  N_12
REMARK    5  A    between atoms: N_12  and  C_13
REMARK    6  A    between atoms: C_13  and  C_14
REMARK    7  A    between atoms: C_14  and  C_15
REMARK                            x       y       z     vdW  Elec       q    Type
REMARK                         _______ _______ _______ _____ _____    ______ ____
ROOT
ATOM      1  C   UNL     1      46.038   5.809  12.979  0.00  0.00    +0.000 A 
ATOM      2  C   UNL     1      45.360   5.388  11.831  0.00  0.00    +0.000 A 
ATOM      3  C   UNL     1      45.133   4.029  11.603  0.00  0.00    +0.000 A 
ATOM      4  C   UNL     1      45.609   3.143  12.551  0.00  0.00    +0.000 A 
ATOM      5  N   UNL     1      46.305   3.511  13.655  0.00  0.00    +0.000 NA
ATOM      6  C   UNL     1      46.526   4.829  13.870  0.00  0.00    +0.000 A 
ENDROOT
BRANCH   3   7
ATOM      7  C   UNL     1      44.416   3.623  10.368  0.00  0.00    +0.000 C 
ATOM      8  N   UNL     1      44.423   2.311   9.990  0.00  0.00    +0.000 N 
ATOM      9  O   UNL     1      43.821   4.451   9.682  0.00  0.00    +0.000 OA
ATOM     10  H   UNL     1      44.893   1.554  10.465  0.00  0.00    +0.000 HD
ATOM     11  H   UNL     1      43.933   2.090   9.131  0.00  0.00    +0.000 HD
ENDBRANCH   3   7
BRANCH   1  13
ATOM     12  C   UNL     1      45.615   8.103  12.497  0.00  0.00    +0.000 C 
ATOM     13  O   UNL     1      46.297   7.125  13.278  0.00  0.00    +0.000 OA
ENDBRANCH   1  13
BRANCH   6  14
ATOM     14  N   UNL     1      47.275   5.221  14.997  0.00  0.00    +0.000 N 
ATOM     15  H   UNL     1      47.109   6.208  15.181  0.00  0.00    +0.000 HD
BRANCH  14  16
ATOM     16  C   UNL     1      47.188   4.326  16.150  0.00  0.00    +0.000 C 
BRANCH  16  17
ATOM     17  C   UNL     1      48.499   4.309  16.949  0.00  0.00    +0.000 C 
BRANCH  17  18
ATOM     18  C   UNL     1      48.302   4.783  18.373  0.00  0.00    +0.000 A 
ATOM     19  C   UNL     1      49.019   4.192  19.423  0.00  0.00    +0.000 A 
ATOM     20  C   UNL     1      48.826   4.611  20.742  0.00  0.00    +0.000 A 
ATOM     21  C   UNL     1      47.908   5.620  21.026  0.00  0.00    +0.000 A 
ATOM     22  C   UNL     1      47.181   6.207  19.993  0.00  0.00    +0.000 A 
ATOM     23  C   UNL     1      47.373   5.790  18.673  0.00  0.00    +0.000 A 
ENDBRANCH  17  18
ENDBRANCH  16  17
ENDBRANCH  14  16
ENDBRANCH   6  14
TORSDOF 6
ENDMDL
