MODEL 1
REMARK VINA RESULT:    -7.294      0.000      0.000
REMARK INTER + INTRA:          -9.183
REMARK INTER:                  -8.573
REMARK INTRA:                  -0.610
REMARK UNBOUND:                -0.610
REMARK  Name = 
REMARK  3 active torsions:
REMARK  status: ('A' for Active; 'I' for Inactive)
REMARK    1  A    between atoms: C_2  and  C_3
REMARK    2  A    between atoms: C_7  and  C_8
REMARK    3  A    between atoms: C_8  and  N_9
REMARK                            x       y       z     vdW  Elec       q    Type
REMARK                         _______ _______ _______ _____ _____    ______ ____
ROOT
ATOM      1  C   UNL     1      44.159   4.271   9.157  0.00  0.00    +0.000 C 
ENDROOT
BRANCH   1   2
ATOM      2  N   UNL     1      44.302   4.143  10.603  0.00  0.00    +0.000 N 
ATOM      3  C   UNL     1      43.665   3.186  11.357  0.00  0.00    +0.000 A 
ATOM      4  C   UNL     1      44.135   3.275  12.646  0.00  0.00    +0.000 A 
ATOM      5  C   UNL     1      45.101   4.316  12.684  0.00  0.00    +0.000 A 
ATOM      6  C   UNL     1      45.926   4.837  13.700  0.00  0.00    +0.000 A 
ATOM      7  C   UNL     1      46.802   5.887  13.407  0.00  0.00    +0.000 A 
ATOM      8  C   UNL     1      46.854   6.425  12.125  0.00  0.00    +0.000 A 
ATOM      9  C   UNL     1      46.046   5.924  11.099  0.00  0.00    +0.000 A 
ATOM     10  C   UNL     1      45.179   4.860  11.397  0.00  0.00    +0.000 A 
ENDBRANCH   1   2
BRANCH   1  15
ATOM     11  C   UNL     1      46.529   1.662   7.684  0.00  0.00    +0.000 A 
ATOM     12  C   UNL     1      47.436   2.469   6.991  0.00  0.00    +0.000 A 
ATOM     13  C   UNL     1      47.292   3.856   7.012  0.00  0.00    +0.000 A 
ATOM     14  C   UNL     1      46.238   4.440   7.719  0.00  0.00    +0.000 A 
ATOM     15  C   UNL     1      45.311   3.645   8.410  0.00  0.00    +0.000 A 
ATOM     16  C   UNL     1      45.471   2.250   8.388  0.00  0.00    +0.000 A 
BRANCH  11  18
ATOM     17  N   UNL     1      46.802  -0.916   7.660  0.00  0.00    +0.000 NA
ATOM     18  C   UNL     1      46.682   0.238   7.676  0.00  0.00    +0.000 C 
ENDBRANCH  11  18
ENDBRANCH   1  15
TORSDOF 3
ENDMDL
MODEL 2
REMARK VINA RESULT:    -6.864      1.699      6.034
REMARK INTER + INTRA:          -8.678
REMARK INTER:                  -8.262
REMARK INTRA:                  -0.416
REMARK UNBOUND:                -0.610
REMARK  Name = 
REMARK  3 active torsions:
REMARK  status: ('A' for Active; 'I' for Inactive)
REMARK    1  A    between atoms: C_2  and  C_3
REMARK    2  A    between atoms: C_7  and  C_8
REMARK    3  A    between atoms: C_8  and  N_9
REMARK                            x       y       z     vdW  Elec       q    Type
REMARK                         _______ _______ _______ _____ _____    ______ ____
ROOT
ATOM      1  C   UNL     1      44.143   2.543  10.019  0.00  0.00    +0.000 C 
ENDROOT
BRANCH   1   2
ATOM      2  N   UNL     1      44.978   3.059   8.939  0.00  0.00    +0.000 N 
ATOM      3  C   UNL     1      45.091   4.393   8.627  0.00  0.00    +0.000 A 
ATOM      4  C   UNL     1      46.058   4.523   7.658  0.00  0.00    +0.000 A 
ATOM      5  C   UNL     1      46.563   3.227   7.372  0.00  0.00    +0.000 A 
ATOM      6  C   UNL     1      47.565   2.745   6.507  0.00  0.00    +0.000 A 
ATOM      7  C   UNL     1      47.837   1.374   6.462  0.00  0.00    +0.000 A 
ATOM      8  C   UNL     1      47.118   0.485   7.256  0.00  0.00    +0.000 A 
ATOM      9  C   UNL     1      46.119   0.940   8.122  0.00  0.00    +0.000 A 
ATOM     10  C   UNL     1      45.860   2.320   8.173  0.00  0.00    +0.000 A 
ENDBRANCH   1   2
BRANCH   1  15
ATOM     11  C   UNL     1      45.304   4.389  13.155  0.00  0.00    +0.000 A 
ATOM     12  C   UNL     1      44.175   5.154  13.462  0.00  0.00    +0.000 A 
ATOM     13  C   UNL     1      43.034   5.062  12.666  0.00  0.00    +0.000 A 
ATOM     14  C   UNL     1      43.020   4.212  11.558  0.00  0.00    +0.000 A 
ATOM     15  C   UNL     1      44.147   3.446  11.228  0.00  0.00    +0.000 A 
ATOM     16  C   UNL     1      45.288   3.540  12.041  0.00  0.00    +0.000 A 
BRANCH  11  18
ATOM     17  N   UNL     1      47.424   4.527  14.642  0.00  0.00    +0.000 NA
ATOM     18  C   UNL     1      46.473   4.470  13.979  0.00  0.00    +0.000 C 
ENDBRANCH  11  18
ENDBRANCH   1  15
TORSDOF 3
ENDMDL
MODEL 3
REMARK VINA RESULT:    -6.534      1.595      5.441
REMARK INTER + INTRA:          -8.289
REMARK INTER:                  -7.753
REMARK INTRA:                  -0.537
REMARK UNBOUND:                -0.610
REMARK  Name = 
REMARK  3 active torsions:
REMARK  status: ('A' for Active; 'I' for Inactive)
REMARK    1  A    between atoms: C_2  and  C_3
REMARK    2  A    between atoms: C_7  and  C_8
REMARK    3  A    between atoms: C_8  and  N_9
REMARK                            x       y       z     vdW  Elec       q    Type
REMARK                         _______ _______ _______ _____ _____    ______ ____
ROOT
ATOM      1  C   UNL     1      44.187   4.847  10.265  0.00  0.00    +0.000 C 
ENDROOT
BRANCH   1   2
ATOM      2  N   UNL     1      44.688   3.612   9.670  0.00  0.00    +0.000 N 
ATOM      3  C   UNL     1      44.209   2.361   9.980  0.00  0.00    +0.000 A 
ATOM      4  C   UNL     1      44.808   1.455   9.138  0.00  0.00    +0.000 A 
ATOM      5  C   UNL     1      45.677   2.174   8.274  0.00  0.00    +0.000 A 
ATOM      6  C   UNL     1      46.516   1.796   7.207  0.00  0.00    +0.000 A 
ATOM      7  C   UNL     1      47.257   2.771   6.533  0.00  0.00    +0.000 A 
ATOM      8  C   UNL     1      47.180   4.107   6.917  0.00  0.00    +0.000 A 
ATOM      9  C   UNL     1      46.354   4.507   7.972  0.00  0.00    +0.000 A 
ATOM     10  C   UNL     1      45.601   3.524   8.636  0.00  0.00    +0.000 A 
ENDBRANCH   1   2
BRANCH   1  15
ATOM     11  C   UNL     1      46.496   4.998  13.304  0.00  0.00    +0.000 A 
ATOM     12  C   UNL     1      46.845   6.352  13.323  0.00  0.00    +0.000 A 
ATOM     13  C   UNL     1      46.321   7.218  12.365  0.00  0.00    +0.000 A 
ATOM     14  C   UNL     1      45.456   6.735  11.381  0.00  0.00    +0.000 A 
ATOM     15  C   UNL     1      45.105   5.377  11.339  0.00  0.00    +0.000 A 
ATOM     16  C   UNL     1      45.632   4.515  12.314  0.00  0.00    +0.000 A 
BRANCH  11  18
ATOM     17  N   UNL     1      47.442   3.377  15.093  0.00  0.00    +0.000 NA
ATOM     18  C   UNL     1      47.021   4.107  14.296  0.00  0.00    +0.000 C 
ENDBRANCH  11  18
ENDBRANCH   1  15
TORSDOF 3
ENDMDL
MODEL 4
REMARK VINA RESULT:    -6.415      2.262      5.653
REMARK INTER + INTRA:          -8.150
REMARK INTER:                  -7.674
REMARK INTRA:                  -0.477
REMARK UNBOUND:                -0.610
REMARK  Name = 
REMARK  3 active torsions:
REMARK  status: ('A' for Active; 'I' for Inactive)
REMARK    1  A    between atoms: C_2  and  C_3
REMARK    2  A    between atoms: C_7  and  C_8
REMARK    3  A    between atoms: C_8  and  N_9
REMARK                            x       y       z     vdW  Elec       q    Type
REMARK                         _______ _______ _______ _____ _____    ______ ____
ROOT
ATOM      1  C   UNL     1      43.538   6.366  11.116  0.00  0.00    +0.000 C 
ENDROOT
BRANCH   1   2
ATOM      2  N   UNL     1      43.772   4.931  10.996  0.00  0.00    +0.000 N 
ATOM      3  C   UNL     1      43.187   3.987  11.806  0.00  0.00    +0.000 A 
ATOM      4  C   UNL     1      43.524   2.744  11.324  0.00  0.00    +0.000 A 
ATOM      5  C   UNL     1      44.335   2.931  10.173  0.00  0.00    +0.000 A 
ATOM      6  C   UNL     1      44.942   2.046   9.259  0.00  0.00    +0.000 A 
ATOM      7  C   UNL     1      45.691   2.558   8.196  0.00  0.00    +0.000 A 
ATOM      8  C   UNL     1      45.851   3.932   8.043  0.00  0.00    +0.000 A 
ATOM      9  C   UNL     1      45.258   4.831   8.937  0.00  0.00    +0.000 A 
ATOM     10  C   UNL     1      44.494   4.309   9.994  0.00  0.00    +0.000 A 
ENDBRANCH   1   2
BRANCH   1  15
ATOM     11  C   UNL     1      46.670   7.014  13.204  0.00  0.00    +0.000 A 
ATOM     12  C   UNL     1      46.835   8.393  13.040  0.00  0.00    +0.000 A 
ATOM     13  C   UNL     1      45.926   9.115  12.268  0.00  0.00    +0.000 A 
ATOM     14  C   UNL     1      44.856   8.463  11.652  0.00  0.00    +0.000 A 
ATOM     15  C   UNL     1      44.681   7.078  11.796  0.00  0.00    +0.000 A 
ATOM     16  C   UNL     1      45.598   6.362  12.583  0.00  0.00    +0.000 A 
BRANCH  11  18
ATOM     17  N   UNL     1      48.333   5.665  14.666  0.00  0.00    +0.000 NA
ATOM     18  C   UNL     1      47.593   6.271  14.008  0.00  0.00    +0.000 C 
ENDBRANCH  11  18
ENDBRANCH   1  15
TORSDOF 3
ENDMDL
MODEL 5
REMARK VINA RESULT:    -6.271      2.196      5.640
REMARK INTER + INTRA:          -7.980
REMARK INTER:                  -7.397
REMARK INTRA:                  -0.583
REMARK UNBOUND:                -0.610
REMARK  Name = 
REMARK  3 active torsions:
REMARK  status: ('A' for Active; 'I' for Inactive)
REMARK    1  A    between atoms: C_2  and  C_3
REMARK    2  A    between atoms: C_7  and  C_8
REMARK    3  A    between atoms: C_8  and  N_9
REMARK                            x       y       z     vdW  Elec       q    Type
REMARK                         _______ _______ _______ _____ _____    ______ ____
ROOT
ATOM      1  C   UNL     1      44.515   6.310  11.679  0.00  0.00    +0.000 C 
ENDROOT
BRANCH   1   2
ATOM      2  N   UNL     1      44.318   4.911  11.313  0.00  0.00    +0.000 N 
ATOM      3  C   UNL     1      43.519   4.039  12.015  0.00  0.00    +0.000 A 
ATOM      4  C   UNL     1      43.459   2.858  11.314  0.00  0.00    +0.000 A 
ATOM      5  C   UNL     1      44.240   3.012  10.137  0.00  0.00    +0.000 A 
ATOM      6  C   UNL     1      44.524   2.170   9.043  0.00  0.00    +0.000 A 
ATOM      7  C   UNL     1      45.343   2.634   8.010  0.00  0.00    +0.000 A 
ATOM      8  C   UNL     1      45.888   3.913   8.062  0.00  0.00    +0.000 A 
ATOM      9  C   UNL     1      45.621   4.768   9.136  0.00  0.00    +0.000 A 
ATOM     10  C   UNL     1      44.785   4.301  10.164  0.00  0.00    +0.000 A 
ENDBRANCH   1   2
BRANCH   1  15
ATOM     11  C   UNL     1      47.526   6.049  14.015  0.00  0.00    +0.000 A 
ATOM     12  C   UNL     1      48.403   6.977  13.444  0.00  0.00    +0.000 A 
ATOM     13  C   UNL     1      48.016   7.697  12.315  0.00  0.00    +0.000 A 
ATOM     14  C   UNL     1      46.756   7.489  11.748  0.00  0.00    +0.000 A 
ATOM     15  C   UNL     1      45.868   6.554  12.300  0.00  0.00    +0.000 A 
ATOM     16  C   UNL     1      46.265   5.839  13.442  0.00  0.00    +0.000 A 
BRANCH  11  18
ATOM     17  N   UNL     1      48.241   4.727  16.127  0.00  0.00    +0.000 NA
ATOM     18  C   UNL     1      47.915   5.318  15.183  0.00  0.00    +0.000 C 
ENDBRANCH  11  18
ENDBRANCH   1  15
TORSDOF 3
ENDMDL
MODEL 6
REMARK VINA RESULT:    -6.205      2.284      5.955
REMARK INTER + INTRA:          -7.903
REMARK INTER:                  -7.333
REMARK INTRA:                  -0.569
REMARK UNBOUND:                -0.610
REMARK  Name = 
REMARK  3 active torsions:
REMARK  status: ('A' for Active; 'I' for Inactive)
REMARK    1  A    between atoms: C_2  and  C_3
REMARK    2  A    between atoms: C_7  and  C_8
REMARK    3  A    between atoms: C_8  and  N_9
REMARK                            x       y       z     vdW  Elec       q    Type
REMARK                         _______ _______ _______ _____ _____    ______ ____
ROOT
ATOM      1  C   UNL     1      44.469   6.307  11.793  0.00  0.00    +0.000 C 
ENDROOT
BRANCH   1   2
ATOM      2  N   UNL     1      44.301   4.910  11.406  0.00  0.00    +0.000 N 
ATOM      3  C   UNL     1      43.538   4.006  12.107  0.00  0.00    +0.000 A 
ATOM      4  C   UNL     1      43.495   2.836  11.387  0.00  0.00    +0.000 A 
ATOM      5  C   UNL     1      44.250   3.030  10.199  0.00  0.00    +0.000 A 
ATOM      6  C   UNL     1      44.535   2.214   9.086  0.00  0.00    +0.000 A 
ATOM      7  C   UNL     1      45.323   2.716   8.046  0.00  0.00    +0.000 A 
ATOM      8  C   UNL     1      45.836   4.008   8.110  0.00  0.00    +0.000 A 
ATOM      9  C   UNL     1      45.567   4.837   9.204  0.00  0.00    +0.000 A 
ATOM     10  C   UNL     1      44.762   4.332  10.239  0.00  0.00    +0.000 A 
ENDBRANCH   1   2
BRANCH   1  15
ATOM     11  C   UNL     1      47.865   7.988  12.281  0.00  0.00    +0.000 A 
ATOM     12  C   UNL     1      48.445   7.167  13.253  0.00  0.00    +0.000 A 
ATOM     13  C   UNL     1      47.746   6.063  13.739  0.00  0.00    +0.000 A 
ATOM     14  C   UNL     1      46.465   5.779  13.262  0.00  0.00    +0.000 A 
ATOM     15  C   UNL     1      45.862   6.598  12.295  0.00  0.00    +0.000 A 
ATOM     16  C   UNL     1      46.578   7.703  11.807  0.00  0.00    +0.000 A 
BRANCH  11  18
ATOM     17  N   UNL     1      49.167  10.024  11.344  0.00  0.00    +0.000 NA
ATOM     18  C   UNL     1      48.585   9.115  11.769  0.00  0.00    +0.000 C 
ENDBRANCH  11  18
ENDBRANCH   1  15
TORSDOF 3
ENDMDL
MODEL 7
REMARK VINA RESULT:    -6.079      1.836      3.175
REMARK INTER + INTRA:          -7.756
REMARK INTER:                  -7.244
REMARK INTRA:                  -0.512
REMARK UNBOUND:                -0.610
REMARK  Name = 
REMARK  3 active torsions:
REMARK  status: ('A' for Active; 'I' for Inactive)
REMARK    1  A    between atoms: C_2  and  C_3
REMARK    2  A    between atoms: C_7  and  C_8
REMARK    3  A    between atoms: C_8  and  N_9
REMARK                            x       y       z     vdW  Elec       q    Type
REMARK                         _______ _______ _______ _____ _____    ______ ____
ROOT
ATOM      1  C   UNL     1      44.510   5.624  11.452  0.00  0.00    +0.000 C 
ENDROOT
BRANCH   1   2
ATOM      2  N   UNL     1      45.564   5.627  12.460  0.00  0.00    +0.000 N 
ATOM      3  C   UNL     1      45.625   4.743  13.511  0.00  0.00    +0.000 A 
ATOM      4  C   UNL     1      46.812   4.948  14.173  0.00  0.00    +0.000 A 
ATOM      5  C   UNL     1      47.510   5.986  13.501  0.00  0.00    +0.000 A 
ATOM      6  C   UNL     1      48.765   6.597  13.695  0.00  0.00    +0.000 A 
ATOM      7  C   UNL     1      49.179   7.614  12.830  0.00  0.00    +0.000 A 
ATOM      8  C   UNL     1      48.356   8.034  11.790  0.00  0.00    +0.000 A 
ATOM      9  C   UNL     1      47.106   7.443  11.576  0.00  0.00    +0.000 A 
ATOM     10  C   UNL     1      46.703   6.411  12.439  0.00  0.00    +0.000 A 
ENDBRANCH   1   2
BRANCH   1  15
ATOM     11  C   UNL     1      45.465   3.508   8.419  0.00  0.00    +0.000 A 
ATOM     12  C   UNL     1      44.887   2.276   8.744  0.00  0.00    +0.000 A 
ATOM     13  C   UNL     1      44.176   2.134   9.935  0.00  0.00    +0.000 A 
ATOM     14  C   UNL     1      44.047   3.218  10.807  0.00  0.00    +0.000 A 
ATOM     15  C   UNL     1      44.630   4.457  10.502  0.00  0.00    +0.000 A 
ATOM     16  C   UNL     1      45.336   4.591   9.296  0.00  0.00    +0.000 A 
BRANCH  11  18
ATOM     17  N   UNL     1      46.756   3.782   6.187  0.00  0.00    +0.000 NA
ATOM     18  C   UNL     1      46.183   3.661   7.189  0.00  0.00    +0.000 C 
ENDBRANCH  11  18
ENDBRANCH   1  15
TORSDOF 3
ENDMDL
MODEL 8
REMARK VINA RESULT:    -6.055      1.932      3.496
REMARK INTER + INTRA:          -7.727
REMARK INTER:                  -7.187
REMARK INTRA:                  -0.540
REMARK UNBOUND:                -0.610
REMARK  Name = 
REMARK  3 active torsions:
REMARK  status: ('A' for Active; 'I' for Inactive)
REMARK    1  A    between atoms: C_2  and  C_3
REMARK    2  A    between atoms: C_7  and  C_8
REMARK    3  A    between atoms: C_8  and  N_9
REMARK                            x       y       z     vdW  Elec       q    Type
REMARK                         _______ _______ _______ _____ _____    ______ ____
ROOT
ATOM      1  C   UNL     1      43.484   5.764  11.353  0.00  0.00    +0.000 C 
ENDROOT
BRANCH   1   2
ATOM      2  N   UNL     1      44.587   6.647  11.721  0.00  0.00    +0.000 N 
ATOM      3  C   UNL     1      44.649   7.979  11.384  0.00  0.00    +0.000 A 
ATOM      4  C   UNL     1      45.747   8.525  12.006  0.00  0.00    +0.000 A 
ATOM      5  C   UNL     1      46.375   7.496  12.759  0.00  0.00    +0.000 A 
ATOM      6  C   UNL     1      47.499   7.463  13.608  0.00  0.00    +0.000 A 
ATOM      7  C   UNL     1      47.863   6.262  14.224  0.00  0.00    +0.000 A 
ATOM      8  C   UNL     1      47.131   5.101  13.995  0.00  0.00    +0.000 A 
ATOM      9  C   UNL     1      46.011   5.109  13.157  0.00  0.00    +0.000 A 
ATOM     10  C   UNL     1      45.642   6.322  12.552  0.00  0.00    +0.000 A 
ENDBRANCH   1   2
BRANCH   1  15
ATOM     11  C   UNL     1      45.176   3.572   8.723  0.00  0.00    +0.000 A 
ATOM     12  C   UNL     1      44.862   2.290   9.184  0.00  0.00    +0.000 A 
ATOM     13  C   UNL     1      44.090   2.134  10.334  0.00  0.00    +0.000 A 
ATOM     14  C   UNL     1      43.638   3.256  11.032  0.00  0.00    +0.000 A 
ATOM     15  C   UNL     1      43.953   4.550  10.591  0.00  0.00    +0.000 A 
ATOM     16  C   UNL     1      44.724   4.695   9.426  0.00  0.00    +0.000 A 
BRANCH  11  18
ATOM     17  N   UNL     1      46.589   3.880   6.571  0.00  0.00    +0.000 NA
ATOM     18  C   UNL     1      45.956   3.736   7.533  0.00  0.00    +0.000 C 
ENDBRANCH  11  18
ENDBRANCH   1  15
TORSDOF 3
ENDMDL
MODEL 9
REMARK VINA RESULT:    -5.567      2.792      5.313
REMARK INTER + INTRA:          -7.153
REMARK INTER:                  -6.579
REMARK INTRA:                  -0.574
REMARK UNBOUND:                -0.610
REMARK  Name = 
REMARK  3 active torsions:
REMARK  status: ('A' for Active; 'I' for Inactive)
REMARK    1  A    between atoms: C_2  and  C_3
REMARK    2  A    between atoms: C_7  and  C_8
REMARK    3  A    between atoms: C_8  and  N_9
REMARK                            x       y       z     vdW  Elec       q    Type
REMARK                         _______ _______ _______ _____ _____    ______ ____
ROOT
ATOM      1  C   UNL     1      46.215   6.548  13.249  0.00  0.00    +0.000 C 
ENDROOT
BRANCH   1   2
ATOM      2  N   UNL     1      46.614   7.829  12.674  0.00  0.00    +0.000 N 
ATOM      3  C   UNL     1      45.793   8.930  12.609  0.00  0.00    +0.000 A 
ATOM      4  C   UNL     1      46.535   9.987  12.138  0.00  0.00    +0.000 A 
ATOM      5  C   UNL     1      47.859   9.523  11.915  0.00  0.00    +0.000 A 
ATOM      6  C   UNL     1      49.044  10.145  11.474  0.00  0.00    +0.000 A 
ATOM      7  C   UNL     1      50.218   9.394  11.367  0.00  0.00    +0.000 A 
ATOM      8  C   UNL     1      50.220   8.038  11.681  0.00  0.00    +0.000 A 
ATOM      9  C   UNL     1      49.057   7.399  12.121  0.00  0.00    +0.000 A 
ATOM     10  C   UNL     1      47.883   8.162  12.241  0.00  0.00    +0.000 A 
ENDBRANCH   1   2
BRANCH   1  15
ATOM     11  C   UNL     1      44.664   4.736  10.267  0.00  0.00    +0.000 A 
ATOM     12  C   UNL     1      43.397   4.414  10.763  0.00  0.00    +0.000 A 
ATOM     13  C   UNL     1      43.039   4.796  12.055  0.00  0.00    +0.000 A 
ATOM     14  C   UNL     1      43.946   5.493  12.857  0.00  0.00    +0.000 A 
ATOM     15  C   UNL     1      45.225   5.814  12.379  0.00  0.00    +0.000 A 
ATOM     16  C   UNL     1      45.573   5.431  11.073  0.00  0.00    +0.000 A 
BRANCH  11  18
ATOM     17  N   UNL     1      45.320   4.042   7.856  0.00  0.00    +0.000 NA
ATOM     18  C   UNL     1      45.030   4.357   8.935  0.00  0.00    +0.000 C 
ENDBRANCH  11  18
ENDBRANCH   1  15
TORSDOF 3
ENDMDL
