MODEL 1
REMARK VINA RESULT:    -7.755      0.000      0.000
REMARK INTER + INTRA:         -10.260
REMARK INTER:                  -9.569
REMARK INTRA:                  -0.691
REMARK UNBOUND:                -0.691
REMARK  Name = 
REMARK  4 active torsions:
REMARK  status: ('A' for Active; 'I' for Inactive)
REMARK    1  A    between atoms: C_4  and  C_5
REMARK    2  A    between atoms: C_9  and  C_10
REMARK    3  A    between atoms: C_10  and  C_11
REMARK    4  A    between atoms: C_11  and  N_12
REMARK                            x       y       z     vdW  Elec       q    Type
REMARK                         _______ _______ _______ _____ _____    ______ ____
ROOT
ATOM      1  C   UNL     1      46.927   4.920  14.090  0.00  0.00    +0.000 A 
ATOM      2  C   UNL     1      47.345   6.007  13.323  0.00  0.00    +0.000 A 
ATOM      3  C   UNL     1      46.692   6.288  12.133  0.00  0.00    +0.000 A 
ATOM      4  C   UNL     1      45.644   5.475  11.725  0.00  0.00    +0.000 A 
ATOM      5  C   UNL     1      45.275   4.386  12.514  0.00  0.00    +0.000 A 
ATOM      6  N   UNL     1      45.910   4.110  13.684  0.00  0.00    +0.000 NA
ENDROOT
BRANCH   1  10
ATOM      7  C   UNL     1      48.736   3.968  17.885  0.00  0.00    +0.000 A 
ATOM      8  C   UNL     1      48.113   2.971  17.142  0.00  0.00    +0.000 A 
ATOM      9  C   UNL     1      47.535   3.280  15.907  0.00  0.00    +0.000 A 
ATOM     10  C   UNL     1      47.559   4.589  15.387  0.00  0.00    +0.000 A 
ATOM     11  C   UNL     1      48.205   5.573  16.154  0.00  0.00    +0.000 A 
ATOM     12  C   UNL     1      48.785   5.269  17.390  0.00  0.00    +0.000 A 
ENDBRANCH   1  10
BRANCH   5  13
ATOM     13  C   UNL     1      44.148   3.441  12.134  0.00  0.00    +0.000 C 
BRANCH  13  14
ATOM     14  C   UNL     1      43.923   3.302  10.627  0.00  0.00    +0.000 C 
BRANCH  14  15
ATOM     15  N   UNL     1      44.555   2.105  10.063  0.00  0.00    +0.000 N 
ATOM     16  C   UNL     1      45.385   2.427   8.963  0.00  0.00    +0.000 A 
ATOM     17  C   UNL     1      46.054   1.397   8.307  0.00  0.00    +0.000 A 
ATOM     18  C   UNL     1      46.890   1.697   7.232  0.00  0.00    +0.000 A 
ATOM     19  C   UNL     1      47.041   3.018   6.835  0.00  0.00    +0.000 A 
ATOM     20  C   UNL     1      46.352   3.984   7.539  0.00  0.00    +0.000 A 
ATOM     21  N   UNL     1      45.540   3.715   8.585  0.00  0.00    +0.000 NA
ATOM     22  H   UNL     1      43.877   1.411   9.759  0.00  0.00    +0.000 HD
ENDBRANCH  14  15
ENDBRANCH  13  14
ENDBRANCH   5  13
TORSDOF 4
ENDMDL
MODEL 2
REMARK VINA RESULT:    -7.729      2.195      4.088
REMARK INTER + INTRA:         -10.227
REMARK INTER:                  -9.593
REMARK INTRA:                  -0.634
REMARK UNBOUND:                -0.691
REMARK  Name = 
REMARK  4 active torsions:
REMARK  status: ('A' for Active; 'I' for Inactive)
REMARK    1  A    between atoms: C_4  and  C_5
REMARK    2  A    between atoms: C_9  and  C_10
REMARK    3  A    between atoms: C_10  and  C_11
REMARK    4  A    between atoms: C_11  and  N_12
REMARK                            x       y       z     vdW  Elec       q    Type
REMARK                         _______ _______ _______ _____ _____    ______ ____
ROOT
ATOM      1  C   UNL     1      46.965   6.447  12.410  0.00  0.00    +0.000 A 
ATOM      2  C   UNL     1      47.218   5.590  13.481  0.00  0.00    +0.000 A 
ATOM      3  C   UNL     1      46.396   4.493  13.681  0.00  0.00    +0.000 A 
ATOM      4  C   UNL     1      45.330   4.277  12.818  0.00  0.00    +0.000 A 
ATOM      5  C   UNL     1      45.102   5.171  11.773  0.00  0.00    +0.000 A 
ATOM      6  N   UNL     1      45.909   6.246  11.571  0.00  0.00    +0.000 NA
ENDROOT
BRANCH   1  10
ATOM      7  C   UNL     1      49.470   9.842  11.533  0.00  0.00    +0.000 A 
ATOM      8  C   UNL     1      48.127  10.030  11.835  0.00  0.00    +0.000 A 
ATOM      9  C   UNL     1      47.317   8.929  12.129  0.00  0.00    +0.000 A 
ATOM     10  C   UNL     1      47.826   7.615  12.121  0.00  0.00    +0.000 A 
ATOM     11  C   UNL     1      49.191   7.456  11.823  0.00  0.00    +0.000 A 
ATOM     12  C   UNL     1      50.004   8.555  11.529  0.00  0.00    +0.000 A 
ENDBRANCH   1  10
BRANCH   5  13
ATOM     13  C   UNL     1      43.953   5.014  10.793  0.00  0.00    +0.000 C 
BRANCH  13  14
ATOM     14  C   UNL     1      44.161   3.917   9.746  0.00  0.00    +0.000 C 
BRANCH  14  15
ATOM     15  N   UNL     1      44.868   4.395   8.553  0.00  0.00    +0.000 N 
ATOM     16  C   UNL     1      45.685   3.382   7.996  0.00  0.00    +0.000 A 
ATOM     17  C   UNL     1      46.432   3.679   6.859  0.00  0.00    +0.000 A 
ATOM     18  C   UNL     1      47.230   2.689   6.284  0.00  0.00    +0.000 A 
ATOM     19  C   UNL     1      47.264   1.425   6.857  0.00  0.00    +0.000 A 
ATOM     20  C   UNL     1      46.488   1.206   7.977  0.00  0.00    +0.000 A 
ATOM     21  N   UNL     1      45.707   2.149   8.547  0.00  0.00    +0.000 NA
ATOM     22  H   UNL     1      45.450   5.206   8.742  0.00  0.00    +0.000 HD
ENDBRANCH  14  15
ENDBRANCH  13  14
ENDBRANCH   5  13
TORSDOF 4
ENDMDL
MODEL 3
REMARK VINA RESULT:    -7.685      3.442      7.121
REMARK INTER + INTRA:         -10.173
REMARK INTER:                  -9.332
REMARK INTRA:                  -0.841
REMARK UNBOUND:                -0.691
REMARK  Name = 
REMARK  4 active torsions:
REMARK  status: ('A' for Active; 'I' for Inactive)
REMARK    1  A    between atoms: C_4  and  C_5
REMARK    2  A    between atoms: C_9  and  C_10
REMARK    3  A    between atoms: C_10  and  C_11
REMARK    4  A    between atoms: C_11  and  N_12
REMARK                            x       y       z     vdW  Elec       q    Type
REMARK                         _______ _______ _______ _____ _____    ______ ____
ROOT
ATOM      1  C   UNL     1      44.793   3.369   9.788  0.00  0.00    +0.000 A 
ATOM      2  C   UNL     1      44.042   2.462  10.534  0.00  0.00    +0.000 A 
ATOM      3  C   UNL     1      43.290   2.921  11.604  0.00  0.00    +0.000 A 
ATOM      4  C   UNL     1      43.312   4.272  11.919  0.00  0.00    +0.000 A 
ATOM      5  C   UNL     1      44.095   5.140  11.158  0.00  0.00    +0.000 A 
ATOM      6  N   UNL     1      44.829   4.694  10.105  0.00  0.00    +0.000 NA
ENDROOT
BRANCH   1  10
ATOM      7  C   UNL     1      47.135   2.157   6.379  0.00  0.00    +0.000 A 
ATOM      8  C   UNL     1      46.782   1.223   7.346  0.00  0.00    +0.000 A 
ATOM      9  C   UNL     1      46.014   1.616   8.447  0.00  0.00    +0.000 A 
ATOM     10  C   UNL     1      45.587   2.949   8.612  0.00  0.00    +0.000 A 
ATOM     11  C   UNL     1      45.949   3.868   7.612  0.00  0.00    +0.000 A 
ATOM     12  C   UNL     1      46.717   3.479   6.510  0.00  0.00    +0.000 A 
ENDBRANCH   1  10
BRANCH   5  13
ATOM     13  C   UNL     1      44.183   6.629  11.443  0.00  0.00    +0.000 C 
BRANCH  13  14
ATOM     14  C   UNL     1      45.166   7.003  12.555  0.00  0.00    +0.000 C 
BRANCH  14  15
ATOM     15  N   UNL     1      46.537   6.566  12.275  0.00  0.00    +0.000 N 
ATOM     16  C   UNL     1      47.400   7.668  12.067  0.00  0.00    +0.000 A 
ATOM     17  C   UNL     1      48.740   7.422  11.780  0.00  0.00    +0.000 A 
ATOM     18  C   UNL     1      49.610   8.497  11.590  0.00  0.00    +0.000 A 
ATOM     19  C   UNL     1      49.123   9.792  11.691  0.00  0.00    +0.000 A 
ATOM     20  C   UNL     1      47.785   9.955  11.987  0.00  0.00    +0.000 A 
ATOM     21  N   UNL     1      46.927   8.930  12.178  0.00  0.00    +0.000 NA
ATOM     22  H   UNL     1      46.595   5.958  11.461  0.00  0.00    +0.000 HD
ENDBRANCH  14  15
ENDBRANCH  13  14
ENDBRANCH   5  13
TORSDOF 4
ENDMDL
MODEL 4
REMARK VINA RESULT:    -7.426      1.381      7.429
REMARK INTER + INTRA:          -9.854
REMARK INTER:                  -9.199
REMARK INTRA:                  -0.655
REMARK UNBOUND:                -0.691
REMARK  Name = 
REMARK  4 active torsions:
REMARK  status: ('A' for Active; 'I' for Inactive)
REMARK    1  A    between atoms: C_4  and  C_5
REMARK    2  A    between atoms: C_9  and  C_10
REMARK    3  A    between atoms: C_10  and  C_11
REMARK    4  A    between atoms: C_11  and  N_12
REMARK                            x       y       z     vdW  Elec       q    Type
REMARK                         _______ _______ _______ _____ _____    ______ ____
ROOT
ATOM      1  C   UNL     1      44.797   4.290  10.407  0.00  0.00    +0.000 A 
ATOM      2  C   UNL     1      43.474   4.057  10.778  0.00  0.00    +0.000 A 
ATOM      3  C   UNL     1      42.934   4.760  11.843  0.00  0.00    +0.000 A 
ATOM      4  C   UNL     1      43.726   5.672  12.526  0.00  0.00    +0.000 A 
ATOM      5  C   UNL     1      45.050   5.858  12.133  0.00  0.00    +0.000 A 
ATOM      6  N   UNL     1      45.582   5.174  11.086  0.00  0.00    +0.000 NA
ENDROOT
BRANCH   1  10
ATOM      7  C   UNL     1      46.648   2.284   7.071  0.00  0.00    +0.000 A 
ATOM      8  C   UNL     1      46.096   1.542   8.109  0.00  0.00    +0.000 A 
ATOM      9  C   UNL     1      45.488   2.194   9.186  0.00  0.00    +0.000 A 
ATOM     10  C   UNL     1      45.421   3.600   9.257  0.00  0.00    +0.000 A 
ATOM     11  C   UNL     1      45.977   4.324   8.187  0.00  0.00    +0.000 A 
ATOM     12  C   UNL     1      46.586   3.676   7.108  0.00  0.00    +0.000 A 
ENDBRANCH   1  10
BRANCH   5  13
ATOM     13  C   UNL     1      45.986   6.828  12.834  0.00  0.00    +0.000 C 
BRANCH  13  14
ATOM     14  C   UNL     1      47.110   6.158  13.628  0.00  0.00    +0.000 C 
BRANCH  14  15
ATOM     15  N   UNL     1      46.652   4.998  14.399  0.00  0.00    +0.000 N 
ATOM     16  C   UNL     1      47.473   4.771  15.529  0.00  0.00    +0.000 A 
ATOM     17  C   UNL     1      47.177   3.696  16.363  0.00  0.00    +0.000 A 
ATOM     18  C   UNL     1      47.964   3.466  17.492  0.00  0.00    +0.000 A 
ATOM     19  C   UNL     1      49.029   4.314  17.763  0.00  0.00    +0.000 A 
ATOM     20  C   UNL     1      49.254   5.362  16.894  0.00  0.00    +0.000 A 
ATOM     21  N   UNL     1      48.503   5.604  15.798  0.00  0.00    +0.000 NA
ATOM     22  H   UNL     1      46.628   4.146  13.845  0.00  0.00    +0.000 HD
ENDBRANCH  14  15
ENDBRANCH  13  14
ENDBRANCH   5  13
TORSDOF 4
ENDMDL
MODEL 5
REMARK VINA RESULT:    -7.262      2.075      4.211
REMARK INTER + INTRA:          -9.652
REMARK INTER:                  -9.003
REMARK INTRA:                  -0.649
REMARK UNBOUND:                -0.691
REMARK  Name = 
REMARK  4 active torsions:
REMARK  status: ('A' for Active; 'I' for Inactive)
REMARK    1  A    between atoms: C_4  and  C_5
REMARK    2  A    between atoms: C_9  and  C_10
REMARK    3  A    between atoms: C_10  and  C_11
REMARK    4  A    between atoms: C_11  and  N_12
REMARK                            x       y       z     vdW  Elec       q    Type
REMARK                         _______ _______ _______ _____ _____    ______ ____
ROOT
ATOM      1  C   UNL     1      46.192   6.792  12.645  0.00  0.00    +0.000 A 
ATOM      2  C   UNL     1      47.175   6.192  13.430  0.00  0.00    +0.000 A 
ATOM      3  C   UNL     1      47.109   4.830  13.677  0.00  0.00    +0.000 A 
ATOM      4  C   UNL     1      46.057   4.095  13.149  0.00  0.00    +0.000 A 
ATOM      5  C   UNL     1      45.084   4.740  12.388  0.00  0.00    +0.000 A 
ATOM      6  N   UNL     1      45.148   6.075  12.139  0.00  0.00    +0.000 NA
ENDROOT
BRANCH   1  10
ATOM      7  C   UNL     1      46.298  10.983  11.645  0.00  0.00    +0.000 A 
ATOM      8  C   UNL     1      45.080  10.319  11.724  0.00  0.00    +0.000 A 
ATOM      9  C   UNL     1      45.046   8.961  12.057  0.00  0.00    +0.000 A 
ATOM     10  C   UNL     1      46.225   8.234  12.314  0.00  0.00    +0.000 A 
ATOM     11  C   UNL     1      47.442   8.935  12.238  0.00  0.00    +0.000 A 
ATOM     12  C   UNL     1      47.480  10.293  11.905  0.00  0.00    +0.000 A 
ENDBRANCH   1  10
BRANCH   5  13
ATOM     13  C   UNL     1      43.896   4.012  11.785  0.00  0.00    +0.000 C 
BRANCH  13  14
ATOM     14  C   UNL     1      43.999   3.775  10.276  0.00  0.00    +0.000 C 
BRANCH  14  15
ATOM     15  N   UNL     1      44.565   2.464   9.941  0.00  0.00    +0.000 N 
ATOM     16  C   UNL     1      45.433   2.545   8.826  0.00  0.00    +0.000 A 
ATOM     17  C   UNL     1      46.047   1.380   8.373  0.00  0.00    +0.000 A 
ATOM     18  C   UNL     1      46.919   1.442   7.286  0.00  0.00    +0.000 A 
ATOM     19  C   UNL     1      47.160   2.665   6.676  0.00  0.00    +0.000 A 
ATOM     20  C   UNL     1      46.521   3.776   7.188  0.00  0.00    +0.000 A 
ATOM     21  N   UNL     1      45.676   3.738   8.240  0.00  0.00    +0.000 NA
ATOM     22  H   UNL     1      43.850   1.770   9.739  0.00  0.00    +0.000 HD
ENDBRANCH  14  15
ENDBRANCH  13  14
ENDBRANCH   5  13
TORSDOF 4
ENDMDL
MODEL 6
REMARK VINA RESULT:    -7.075      2.146      7.407
REMARK INTER + INTRA:          -9.421
REMARK INTER:                  -8.625
REMARK INTRA:                  -0.796
REMARK UNBOUND:                -0.691
REMARK  Name = 
REMARK  4 active torsions:
REMARK  status: ('A' for Active; 'I' for Inactive)
REMARK    1  A    between atoms: C_4  and  C_5
REMARK    2  A    between atoms: C_9  and  C_10
REMARK    3  A    between atoms: C_10  and  C_11
REMARK    4  A    between atoms: C_11  and  N_12
REMARK                            x       y       z     vdW  Elec       q    Type
REMARK                         _______ _______ _______ _____ _____    ______ ____
ROOT
ATOM      1  C   UNL     1      45.701   6.321  11.338  0.00  0.00    +0.000 A 
ATOM      2  C   UNL     1      44.848   7.412  11.494  0.00  0.00    +0.000 A 
ATOM      3  C   UNL     1      45.258   8.491  12.261  0.00  0.00    +0.000 A 
ATOM      4  C   UNL     1      46.505   8.456  12.870  0.00  0.00    +0.000 A 
ATOM      5  C   UNL     1      47.317   7.334  12.703  0.00  0.00    +0.000 A 
ATOM      6  N   UNL     1      46.920   6.277  11.947  0.00  0.00    +0.000 NA
ENDROOT
BRANCH   1  10
ATOM      7  C   UNL     1      44.608   2.941   8.897  0.00  0.00    +0.000 A 
ATOM      8  C   UNL     1      45.351   3.981   8.350  0.00  0.00    +0.000 A 
ATOM      9  C   UNL     1      45.713   5.073   9.146  0.00  0.00    +0.000 A 
ATOM     10  C   UNL     1      45.337   5.156  10.502  0.00  0.00    +0.000 A 
ATOM     11  C   UNL     1      44.597   4.084  11.030  0.00  0.00    +0.000 A 
ATOM     12  C   UNL     1      44.233   2.990  10.238  0.00  0.00    +0.000 A 
ENDBRANCH   1  10
BRANCH   5  13
ATOM     13  C   UNL     1      48.689   7.211  13.343  0.00  0.00    +0.000 C 
BRANCH  13  14
ATOM     14  C   UNL     1      48.664   6.784  14.813  0.00  0.00    +0.000 C 
BRANCH  14  15
ATOM     15  N   UNL     1      47.602   5.817  15.108  0.00  0.00    +0.000 N 
ATOM     16  C   UNL     1      48.003   4.898  16.108  0.00  0.00    +0.000 A 
ATOM     17  C   UNL     1      47.108   3.905  16.498  0.00  0.00    +0.000 A 
ATOM     18  C   UNL     1      47.477   3.001  17.494  0.00  0.00    +0.000 A 
ATOM     19  C   UNL     1      48.731   3.109  18.079  0.00  0.00    +0.000 A 
ATOM     20  C   UNL     1      49.558   4.124  17.645  0.00  0.00    +0.000 A 
ATOM     21  N   UNL     1      49.219   5.011  16.685  0.00  0.00    +0.000 NA
ATOM     22  H   UNL     1      47.315   5.290  14.287  0.00  0.00    +0.000 HD
ENDBRANCH  14  15
ENDBRANCH  13  14
ENDBRANCH   5  13
TORSDOF 4
ENDMDL
MODEL 7
REMARK VINA RESULT:    -6.828      2.536      3.280
REMARK INTER + INTRA:          -9.116
REMARK INTER:                  -8.526
REMARK INTRA:                  -0.590
REMARK UNBOUND:                -0.691
REMARK  Name = 
REMARK  4 active torsions:
REMARK  status: ('A' for Active; 'I' for Inactive)
REMARK    1  A    between atoms: C_4  and  C_5
REMARK    2  A    between atoms: C_9  and  C_10
REMARK    3  A    between atoms: C_10  and  C_11
REMARK    4  A    between atoms: C_11  and  N_12
REMARK                            x       y       z     vdW  Elec       q    Type
REMARK                         _______ _______ _______ _____ _____    ______ ____
ROOT
ATOM      1  C   UNL     1      46.251   7.178  12.063  0.00  0.00    +0.000 A 
ATOM      2  C   UNL     1      45.227   8.079  11.773  0.00  0.00    +0.000 A 
ATOM      3  C   UNL     1      43.987   7.596  11.386  0.00  0.00    +0.000 A 
ATOM      4  C   UNL     1      43.795   6.226  11.283  0.00  0.00    +0.000 A 
ATOM      5  C   UNL     1      44.853   5.362  11.563  0.00  0.00    +0.000 A 
ATOM      6  N   UNL     1      46.069   5.832  11.947  0.00  0.00    +0.000 NA
ENDROOT
BRANCH   1  10
ATOM      7  C   UNL     1      50.122   8.511  13.411  0.00  0.00    +0.000 A 
ATOM      8  C   UNL     1      49.623   7.285  13.835  0.00  0.00    +0.000 A 
ATOM      9  C   UNL     1      48.371   6.850  13.390  0.00  0.00    +0.000 A 
ATOM     10  C   UNL     1      47.585   7.629  12.517  0.00  0.00    +0.000 A 
ATOM     11  C   UNL     1      48.120   8.858  12.096  0.00  0.00    +0.000 A 
ATOM     12  C   UNL     1      49.372   9.298  12.538  0.00  0.00    +0.000 A 
ENDBRANCH   1  10
BRANCH   5  13
ATOM     13  C   UNL     1      44.729   3.852  11.463  0.00  0.00    +0.000 C 
BRANCH  13  14
ATOM     14  C   UNL     1      44.235   3.347  10.106  0.00  0.00    +0.000 C 
BRANCH  14  15
ATOM     15  N   UNL     1      44.853   2.077   9.711  0.00  0.00    +0.000 N 
ATOM     16  C   UNL     1      45.652   2.228   8.552  0.00  0.00    +0.000 A 
ATOM     17  C   UNL     1      46.302   1.108   8.040  0.00  0.00    +0.000 A 
ATOM     18  C   UNL     1      47.109   1.241   6.910  0.00  0.00    +0.000 A 
ATOM     19  C   UNL     1      47.249   2.487   6.316  0.00  0.00    +0.000 A 
ATOM     20  C   UNL     1      46.580   3.550   6.887  0.00  0.00    +0.000 A 
ATOM     21  N   UNL     1      45.797   3.444   7.982  0.00  0.00    +0.000 NA
ATOM     22  H   UNL     1      44.166   1.348   9.531  0.00  0.00    +0.000 HD
ENDBRANCH  14  15
ENDBRANCH  13  14
ENDBRANCH   5  13
TORSDOF 4
ENDMDL
MODEL 8
REMARK VINA RESULT:    -6.258      3.058      5.580
REMARK INTER + INTRA:          -8.413
REMARK INTER:                  -7.880
REMARK INTRA:                  -0.533
REMARK UNBOUND:                -0.691
REMARK  Name = 
REMARK  4 active torsions:
REMARK  status: ('A' for Active; 'I' for Inactive)
REMARK    1  A    between atoms: C_4  and  C_5
REMARK    2  A    between atoms: C_9  and  C_10
REMARK    3  A    between atoms: C_10  and  C_11
REMARK    4  A    between atoms: C_11  and  N_12
REMARK                            x       y       z     vdW  Elec       q    Type
REMARK                         _______ _______ _______ _____ _____    ______ ____
ROOT
ATOM      1  C   UNL     1      50.560   4.160  17.501  0.00  0.00    +0.000 A 
ATOM      2  C   UNL     1      50.782   5.494  17.837  0.00  0.00    +0.000 A 
ATOM      3  C   UNL     1      49.773   6.422  17.637  0.00  0.00    +0.000 A 
ATOM      4  C   UNL     1      48.565   6.005  17.094  0.00  0.00    +0.000 A 
ATOM      5  C   UNL     1      48.394   4.664  16.753  0.00  0.00    +0.000 A 
ATOM      6  N   UNL     1      49.381   3.750  16.952  0.00  0.00    +0.000 NA
ENDROOT
BRANCH   1  10
ATOM      7  C   UNL     1      53.552   1.120  18.115  0.00  0.00    +0.000 A 
ATOM      8  C   UNL     1      53.802   2.430  18.508  0.00  0.00    +0.000 A 
ATOM      9  C   UNL     1      52.827   3.413  18.316  0.00  0.00    +0.000 A 
ATOM     10  C   UNL     1      51.583   3.115  17.724  0.00  0.00    +0.000 A 
ATOM     11  C   UNL     1      51.355   1.780  17.347  0.00  0.00    +0.000 A 
ATOM     12  C   UNL     1      52.328   0.793  17.537  0.00  0.00    +0.000 A 
ENDBRANCH   1  10
BRANCH   5  13
ATOM     13  C   UNL     1      47.110   4.129  16.145  0.00  0.00    +0.000 C 
BRANCH  13  14
ATOM     14  C   UNL     1      47.048   4.221  14.618  0.00  0.00    +0.000 C 
BRANCH  14  15
ATOM     15  N   UNL     1      46.221   5.337  14.148  0.00  0.00    +0.000 N 
ATOM     16  C   UNL     1      45.183   4.890  13.296  0.00  0.00    +0.000 A 
ATOM     17  C   UNL     1      44.312   5.831  12.754  0.00  0.00    +0.000 A 
ATOM     18  C   UNL     1      43.272   5.407  11.927  0.00  0.00    +0.000 A 
ATOM     19  C   UNL     1      43.124   4.054  11.659  0.00  0.00    +0.000 A 
ATOM     20  C   UNL     1      44.021   3.181  12.240  0.00  0.00    +0.000 A 
ATOM     21  N   UNL     1      45.033   3.570  13.045  0.00  0.00    +0.000 NA
ATOM     22  H   UNL     1      46.762   6.040  13.649  0.00  0.00    +0.000 HD
ENDBRANCH  14  15
ENDBRANCH  13  14
ENDBRANCH   5  13
TORSDOF 4
ENDMDL
MODEL 9
REMARK VINA RESULT:    -5.960      2.292      4.050
REMARK INTER + INTRA:          -8.045
REMARK INTER:                  -7.126
REMARK INTRA:                  -0.919
REMARK UNBOUND:                -0.691
REMARK  Name = 
REMARK  4 active torsions:
REMARK  status: ('A' for Active; 'I' for Inactive)
REMARK    1  A    between atoms: C_4  and  C_5
REMARK    2  A    between atoms: C_9  and  C_10
REMARK    3  A    between atoms: C_10  and  C_11
REMARK    4  A    between atoms: C_11  and  N_12
REMARK                            x       y       z     vdW  Elec       q    Type
REMARK                         _______ _______ _______ _____ _____    ______ ____
ROOT
ATOM      1  C   UNL     1      48.582   6.499  15.756  0.00  0.00    +0.000 A 
ATOM      2  C   UNL     1      48.836   7.766  16.279  0.00  0.00    +0.000 A 
ATOM      3  C   UNL     1      48.847   8.861  15.430  0.00  0.00    +0.000 A 
ATOM      4  C   UNL     1      48.619   8.671  14.075  0.00  0.00    +0.000 A 
ATOM      5  C   UNL     1      48.390   7.383  13.592  0.00  0.00    +0.000 A 
ATOM      6  N   UNL     1      48.374   6.307  14.423  0.00  0.00    +0.000 NA
ENDROOT
BRANCH   1  10
ATOM      7  C   UNL     1      48.411   2.973  18.228  0.00  0.00    +0.000 A 
ATOM      8  C   UNL     1      49.536   3.789  18.260  0.00  0.00    +0.000 A 
ATOM      9  C   UNL     1      49.586   4.937  17.464  0.00  0.00    +0.000 A 
ATOM     10  C   UNL     1      48.520   5.295  16.615  0.00  0.00    +0.000 A 
ATOM     11  C   UNL     1      47.392   4.457  16.613  0.00  0.00    +0.000 A 
ATOM     12  C   UNL     1      47.337   3.308  17.407  0.00  0.00    +0.000 A 
ENDBRANCH   1  10
BRANCH   5  13
ATOM     13  C   UNL     1      48.144   7.088  12.123  0.00  0.00    +0.000 C 
BRANCH  13  14
ATOM     14  C   UNL     1      46.669   6.924  11.750  0.00  0.00    +0.000 C 
BRANCH  14  15
ATOM     15  N   UNL     1      45.901   6.197  12.767  0.00  0.00    +0.000 N 
ATOM     16  C   UNL     1      45.121   5.168  12.188  0.00  0.00    +0.000 A 
ATOM     17  C   UNL     1      44.323   4.387  13.020  0.00  0.00    +0.000 A 
ATOM     18  C   UNL     1      43.561   3.355  12.470  0.00  0.00    +0.000 A 
ATOM     19  C   UNL     1      43.612   3.126  11.103  0.00  0.00    +0.000 A 
ATOM     20  C   UNL     1      44.433   3.936  10.345  0.00  0.00    +0.000 A 
ATOM     21  N   UNL     1      45.181   4.937  10.857  0.00  0.00    +0.000 NA
ATOM     22  H   UNL     1      45.283   6.805  13.298  0.00  0.00    +0.000 HD
ENDBRANCH  14  15
ENDBRANCH  13  14
ENDBRANCH   5  13
TORSDOF 4
ENDMDL
