MODEL 1
REMARK VINA RESULT:    -7.595      0.000      0.000
REMARK INTER + INTRA:          -9.395
REMARK INTER:                  -9.149
REMARK INTRA:                  -0.246
REMARK UNBOUND:                -0.246
REMARK  Name = 
REMARK  4 active torsions:
REMARK  status: ('A' for Active; 'I' for Inactive)
REMARK    1  A    between atoms: C_2  and  C_4
REMARK    2  A    between atoms: N_8  and  C_9
REMARK    3  A    between atoms: C_9  and  C_10
REMARK    4  A    between atoms: C_18  and  O_19
REMARK                            x       y       z     vdW  Elec       q    Type
REMARK                         _______ _______ _______ _____ _____    ______ ____
ROOT
ATOM      1  C   UNL     1      46.451   2.712   7.481  0.00  0.00    +0.000 A 
ATOM      2  C   UNL     1      46.012   1.730   8.364  0.00  0.00    +0.000 A 
ATOM      3  C   UNL     1      45.228   2.098   9.461  0.00  0.00    +0.000 A 
ATOM      4  C   UNL     1      44.932   3.446   9.678  0.00  0.00    +0.000 A 
ATOM      5  N   UNL     1      44.121   3.790  10.787  0.00  0.00    +0.000 N 
ATOM      6  N   UNL     1      45.353   4.402   8.822  0.00  0.00    +0.000 NA
ATOM      7  C   UNL     1      46.110   4.026   7.759  0.00  0.00    +0.000 A 
ATOM      8  H   UNL     1      44.269   3.121  11.535  0.00  0.00    +0.000 HD
ENDROOT
BRANCH   1  10
ATOM      9  N   UNL     1      47.223   3.337   5.262  0.00  0.00    +0.000 N 
ATOM     10  C   UNL     1      47.258   2.422   6.277  0.00  0.00    +0.000 C 
ATOM     11  O   UNL     1      47.961   1.423   6.203  0.00  0.00    +0.000 OA
ATOM     12  H   UNL     1      47.864   3.180   4.494  0.00  0.00    +0.000 HD
ATOM     13  H   UNL     1      46.863   4.273   5.382  0.00  0.00    +0.000 HD
ENDBRANCH   1  10
BRANCH   5  14
ATOM     14  C   UNL     1      44.221   5.198  11.287  0.00  0.00    +0.000 C 
ATOM     15  C   UNL     1      43.378   6.262  10.610  0.00  0.00    +0.000 C 
ATOM     16  C   UNL     1      43.002   5.810  11.982  0.00  0.00    +0.000 C 
BRANCH  14  17
ATOM     17  C   UNL     1      45.576   5.543  11.913  0.00  0.00    +0.000 A 
ATOM     18  C   UNL     1      46.360   6.599  11.405  0.00  0.00    +0.000 A 
ATOM     19  C   UNL     1      47.591   6.934  11.976  0.00  0.00    +0.000 A 
ATOM     20  C   UNL     1      48.059   6.205  13.060  0.00  0.00    +0.000 A 
ATOM     21  F   UNL     1      49.242   6.517  13.603  0.00  0.00    +0.000 F 
ATOM     22  C   UNL     1      47.314   5.164  13.593  0.00  0.00    +0.000 A 
ATOM     23  C   UNL     1      46.076   4.848  13.029  0.00  0.00    +0.000 A 
ENDBRANCH  14  17
BRANCH  16  24
ATOM     24  O   UNL     1      41.830   4.980  12.076  0.00  0.00    +0.000 OA
ATOM     25  H   UNL     1      41.677   4.519  11.231  0.00  0.00    +0.000 HD
ENDBRANCH  16  24
ENDBRANCH   5  14
TORSDOF 4
ENDMDL
MODEL 2
REMARK VINA RESULT:    -7.326      3.472      6.030
REMARK INTER + INTRA:          -9.071
REMARK INTER:                  -9.136
REMARK INTRA:                   0.065
REMARK UNBOUND:                -0.246
REMARK  Name = 
REMARK  4 active torsions:
REMARK  status: ('A' for Active; 'I' for Inactive)
REMARK    1  A    between atoms: C_2  and  C_4
REMARK    2  A    between atoms: N_8  and  C_9
REMARK    3  A    between atoms: C_9  and  C_10
REMARK    4  A    between atoms: C_18  and  O_19
REMARK                            x       y       z     vdW  Elec       q    Type
REMARK                         _______ _______ _______ _____ _____    ______ ____
ROOT
ATOM      1  C   UNL     1      48.325   6.935  13.476  0.00  0.00    +0.000 A 
ATOM      2  C   UNL     1      48.017   7.859  12.482  0.00  0.00    +0.000 A 
ATOM      3  C   UNL     1      46.831   7.714  11.758  0.00  0.00    +0.000 A 
ATOM      4  C   UNL     1      45.994   6.623  12.012  0.00  0.00    +0.000 A 
ATOM      5  N   UNL     1      44.789   6.510  11.276  0.00  0.00    +0.000 N 
ATOM      6  N   UNL     1      46.287   5.726  12.978  0.00  0.00    +0.000 NA
ATOM      7  C   UNL     1      47.442   5.886  13.675  0.00  0.00    +0.000 A 
ATOM      8  H   UNL     1      44.915   6.917  10.355  0.00  0.00    +0.000 HD
ENDROOT
BRANCH   1  10
ATOM      9  N   UNL     1      50.584   7.759  13.838  0.00  0.00    +0.000 N 
ATOM     10  C   UNL     1      49.538   7.018  14.316  0.00  0.00    +0.000 C 
ATOM     11  O   UNL     1      49.595   6.480  15.413  0.00  0.00    +0.000 OA
ATOM     12  H   UNL     1      51.362   7.898  14.470  0.00  0.00    +0.000 HD
ATOM     13  H   UNL     1      50.487   8.410  13.072  0.00  0.00    +0.000 HD
ENDBRANCH   1  10
BRANCH   5  14
ATOM     14  C   UNL     1      44.176   5.147  11.190  0.00  0.00    +0.000 C 
ATOM     15  C   UNL     1      43.611   4.532  12.456  0.00  0.00    +0.000 C 
ATOM     16  C   UNL     1      42.666   5.014  11.406  0.00  0.00    +0.000 C 
BRANCH  14  17
ATOM     17  C   UNL     1      44.759   4.269  10.077  0.00  0.00    +0.000 A 
ATOM     18  C   UNL     1      45.450   4.844   8.990  0.00  0.00    +0.000 A 
ATOM     19  C   UNL     1      46.000   4.054   7.977  0.00  0.00    +0.000 A 
ATOM     20  C   UNL     1      45.854   2.676   8.033  0.00  0.00    +0.000 A 
ATOM     21  F   UNL     1      46.371   1.918   7.058  0.00  0.00    +0.000 F 
ATOM     22  C   UNL     1      45.188   2.072   9.089  0.00  0.00    +0.000 A 
ATOM     23  C   UNL     1      44.658   2.866  10.108  0.00  0.00    +0.000 A 
ENDBRANCH  14  17
BRANCH  16  24
ATOM     24  O   UNL     1      41.951   6.227  11.708  0.00  0.00    +0.000 OA
ATOM     25  H   UNL     1      40.990   6.066  11.676  0.00  0.00    +0.000 HD
ENDBRANCH  16  24
ENDBRANCH   5  14
TORSDOF 4
ENDMDL
MODEL 3
REMARK VINA RESULT:    -7.305      3.473      6.132
REMARK INTER + INTRA:          -9.045
REMARK INTER:                  -9.126
REMARK INTRA:                   0.081
REMARK UNBOUND:                -0.246
REMARK  Name = 
REMARK  4 active torsions:
REMARK  status: ('A' for Active; 'I' for Inactive)
REMARK    1  A    between atoms: C_2  and  C_4
REMARK    2  A    between atoms: N_8  and  C_9
REMARK    3  A    between atoms: C_9  and  C_10
REMARK    4  A    between atoms: C_18  and  O_19
REMARK                            x       y       z     vdW  Elec       q    Type
REMARK                         _______ _______ _______ _____ _____    ______ ____
ROOT
ATOM      1  C   UNL     1      48.329   6.899  13.529  0.00  0.00    +0.000 A 
ATOM      2  C   UNL     1      48.017   7.832  12.544  0.00  0.00    +0.000 A 
ATOM      3  C   UNL     1      46.832   7.687  11.817  0.00  0.00    +0.000 A 
ATOM      4  C   UNL     1      46.002   6.589  12.058  0.00  0.00    +0.000 A 
ATOM      5  N   UNL     1      44.799   6.476  11.320  0.00  0.00    +0.000 N 
ATOM      6  N   UNL     1      46.299   5.684  13.015  0.00  0.00    +0.000 NA
ATOM      7  C   UNL     1      47.453   5.843  13.715  0.00  0.00    +0.000 A 
ATOM      8  H   UNL     1      44.924   6.893  10.404  0.00  0.00    +0.000 HD
ENDROOT
BRANCH   1  10
ATOM      9  N   UNL     1      50.588   7.721  13.894  0.00  0.00    +0.000 N 
ATOM     10  C   UNL     1      49.541   6.981  14.371  0.00  0.00    +0.000 C 
ATOM     11  O   UNL     1      49.596   6.442  15.468  0.00  0.00    +0.000 OA
ATOM     12  H   UNL     1      51.366   7.858  14.528  0.00  0.00    +0.000 HD
ATOM     13  H   UNL     1      50.494   8.371  13.128  0.00  0.00    +0.000 HD
ENDBRANCH   1  10
BRANCH   5  14
ATOM     14  C   UNL     1      44.194   5.110  11.219  0.00  0.00    +0.000 C 
ATOM     15  C   UNL     1      43.631   4.479  12.478  0.00  0.00    +0.000 C 
ATOM     16  C   UNL     1      42.684   4.967  11.431  0.00  0.00    +0.000 C 
BRANCH  14  17
ATOM     17  C   UNL     1      44.784   4.248  10.098  0.00  0.00    +0.000 A 
ATOM     18  C   UNL     1      44.657   2.843  10.123  0.00  0.00    +0.000 A 
ATOM     19  C   UNL     1      45.177   2.047   9.100  0.00  0.00    +0.000 A 
ATOM     20  C   UNL     1      45.845   2.647   8.042  0.00  0.00    +0.000 A 
ATOM     21  F   UNL     1      46.353   1.885   7.065  0.00  0.00    +0.000 F 
ATOM     22  C   UNL     1      45.985   4.025   7.978  0.00  0.00    +0.000 A 
ATOM     23  C   UNL     1      45.445   4.816   8.994  0.00  0.00    +0.000 A 
ENDBRANCH  14  17
BRANCH  16  24
ATOM     24  O   UNL     1      41.961   6.172  11.744  0.00  0.00    +0.000 OA
ATOM     25  H   UNL     1      42.188   6.874  11.107  0.00  0.00    +0.000 HD
ENDBRANCH  16  24
ENDBRANCH   5  14
TORSDOF 4
ENDMDL
MODEL 4
REMARK VINA RESULT:    -7.148      3.411      6.450
REMARK INTER + INTRA:          -8.857
REMARK INTER:                  -9.209
REMARK INTRA:                   0.353
REMARK UNBOUND:                -0.246
REMARK  Name = 
REMARK  4 active torsions:
REMARK  status: ('A' for Active; 'I' for Inactive)
REMARK    1  A    between atoms: C_2  and  C_4
REMARK    2  A    between atoms: N_8  and  C_9
REMARK    3  A    between atoms: C_9  and  C_10
REMARK    4  A    between atoms: C_18  and  O_19
REMARK                            x       y       z     vdW  Elec       q    Type
REMARK                         _______ _______ _______ _____ _____    ______ ____
ROOT
ATOM      1  C   UNL     1      47.646   5.628  14.592  0.00  0.00    +0.000 A 
ATOM      2  C   UNL     1      48.089   6.499  13.602  0.00  0.00    +0.000 A 
ATOM      3  C   UNL     1      47.371   6.595  12.406  0.00  0.00    +0.000 A 
ATOM      4  C   UNL     1      46.249   5.787  12.206  0.00  0.00    +0.000 A 
ATOM      5  N   UNL     1      45.530   5.918  10.993  0.00  0.00    +0.000 N 
ATOM      6  N   UNL     1      45.814   4.943  13.166  0.00  0.00    +0.000 NA
ATOM      7  C   UNL     1      46.521   4.866  14.324  0.00  0.00    +0.000 A 
ATOM      8  H   UNL     1      46.165   6.188  10.250  0.00  0.00    +0.000 HD
ENDROOT
BRANCH   1  10
ATOM      9  N   UNL     1      47.550   5.066  16.956  0.00  0.00    +0.000 N 
ATOM     10  C   UNL     1      48.317   5.476  15.900  0.00  0.00    +0.000 C 
ATOM     11  O   UNL     1      49.518   5.670  16.031  0.00  0.00    +0.000 OA
ATOM     12  H   UNL     1      48.043   4.861  17.816  0.00  0.00    +0.000 HD
ATOM     13  H   UNL     1      46.631   4.662  16.840  0.00  0.00    +0.000 HD
ENDBRANCH   1  10
BRANCH   5  14
ATOM     14  C   UNL     1      44.676   4.757  10.586  0.00  0.00    +0.000 C 
ATOM     15  C   UNL     1      43.738   4.158  11.616  0.00  0.00    +0.000 C 
ATOM     16  C   UNL     1      43.161   4.964  10.499  0.00  0.00    +0.000 C 
BRANCH  14  17
ATOM     17  C   UNL     1      45.285   3.894   9.475  0.00  0.00    +0.000 A 
ATOM     18  C   UNL     1      45.212   2.487   9.530  0.00  0.00    +0.000 A 
ATOM     19  C   UNL     1      45.750   1.690   8.516  0.00  0.00    +0.000 A 
ATOM     20  C   UNL     1      46.380   2.292   7.437  0.00  0.00    +0.000 A 
ATOM     21  F   UNL     1      46.905   1.530   6.470  0.00  0.00    +0.000 F 
ATOM     22  C   UNL     1      46.465   3.673   7.343  0.00  0.00    +0.000 A 
ATOM     23  C   UNL     1      45.908   4.465   8.350  0.00  0.00    +0.000 A 
ENDBRANCH  14  17
BRANCH  16  24
ATOM     24  O   UNL     1      42.669   6.271  10.850  0.00  0.00    +0.000 OA
ATOM     25  H   UNL     1      42.267   6.250  11.738  0.00  0.00    +0.000 HD
ENDBRANCH  16  24
ENDBRANCH   5  14
TORSDOF 4
ENDMDL
MODEL 5
REMARK VINA RESULT:    -5.924      3.769      6.462
REMARK INTER + INTRA:          -7.381
REMARK INTER:                  -8.014
REMARK INTRA:                   0.633
REMARK UNBOUND:                -0.246
REMARK  Name = 
REMARK  4 active torsions:
REMARK  status: ('A' for Active; 'I' for Inactive)
REMARK    1  A    between atoms: C_2  and  C_4
REMARK    2  A    between atoms: N_8  and  C_9
REMARK    3  A    between atoms: C_9  and  C_10
REMARK    4  A    between atoms: C_18  and  O_19
REMARK                            x       y       z     vdW  Elec       q    Type
REMARK                         _______ _______ _______ _____ _____    ______ ____
ROOT
ATOM      1  C   UNL     1      47.386   9.134  12.839  0.00  0.00    +0.000 A 
ATOM      2  C   UNL     1      46.315   9.589  12.075  0.00  0.00    +0.000 A 
ATOM      3  C   UNL     1      45.257   8.719  11.796  0.00  0.00    +0.000 A 
ATOM      4  C   UNL     1      45.308   7.399  12.252  0.00  0.00    +0.000 A 
ATOM      5  N   UNL     1      44.214   6.545  11.971  0.00  0.00    +0.000 N 
ATOM      6  N   UNL     1      46.343   6.955  12.997  0.00  0.00    +0.000 NA
ATOM      7  C   UNL     1      47.361   7.815  13.262  0.00  0.00    +0.000 A 
ATOM      8  H   UNL     1      43.788   6.818  11.092  0.00  0.00    +0.000 HD
ENDROOT
BRANCH   1  10
ATOM      9  N   UNL     1      49.130  10.711  12.217  0.00  0.00    +0.000 N 
ATOM     10  C   UNL     1      48.537   9.983  13.212  0.00  0.00    +0.000 C 
ATOM     11  O   UNL     1      48.923  10.066  14.370  0.00  0.00    +0.000 OA
ATOM     12  H   UNL     1      49.843  11.369  12.506  0.00  0.00    +0.000 HD
ATOM     13  H   UNL     1      48.696  10.861  11.318  0.00  0.00    +0.000 HD
ENDBRANCH   1  10
BRANCH   5  14
ATOM     14  C   UNL     1      44.480   5.071  12.014  0.00  0.00    +0.000 C 
ATOM     15  C   UNL     1      44.988   4.470  13.310  0.00  0.00    +0.000 C 
ATOM     16  C   UNL     1      43.581   4.196  12.891  0.00  0.00    +0.000 C 
BRANCH  14  17
ATOM     17  C   UNL     1      44.862   4.467  10.659  0.00  0.00    +0.000 A 
ATOM     18  C   UNL     1      44.565   3.122  10.356  0.00  0.00    +0.000 A 
ATOM     19  C   UNL     1      44.895   2.563   9.119  0.00  0.00    +0.000 A 
ATOM     20  C   UNL     1      45.540   3.343   8.169  0.00  0.00    +0.000 A 
ATOM     21  F   UNL     1      45.866   2.807   6.987  0.00  0.00    +0.000 F 
ATOM     22  C   UNL     1      45.843   4.672   8.426  0.00  0.00    +0.000 A 
ATOM     23  C   UNL     1      45.492   5.229   9.658  0.00  0.00    +0.000 A 
ENDBRANCH  14  17
BRANCH  16  24
ATOM     24  O   UNL     1      42.555   4.875  13.640  0.00  0.00    +0.000 OA
ATOM     25  H   UNL     1      42.451   4.462  14.517  0.00  0.00    +0.000 HD
ENDBRANCH  16  24
ENDBRANCH   5  14
TORSDOF 4
ENDMDL
MODEL 6
REMARK VINA RESULT:    -5.898      3.752      6.333
REMARK INTER + INTRA:          -7.350
REMARK INTER:                  -8.675
REMARK INTRA:                   1.325
REMARK UNBOUND:                -0.246
REMARK  Name = 
REMARK  4 active torsions:
REMARK  status: ('A' for Active; 'I' for Inactive)
REMARK    1  A    between atoms: C_2  and  C_4
REMARK    2  A    between atoms: N_8  and  C_9
REMARK    3  A    between atoms: C_9  and  C_10
REMARK    4  A    between atoms: C_18  and  O_19
REMARK                            x       y       z     vdW  Elec       q    Type
REMARK                         _______ _______ _______ _____ _____    ______ ____
ROOT
ATOM      1  C   UNL     1      45.154   9.396  12.015  0.00  0.00    +0.000 A 
ATOM      2  C   UNL     1      45.919   8.930  13.080  0.00  0.00    +0.000 A 
ATOM      3  C   UNL     1      46.078   7.552  13.255  0.00  0.00    +0.000 A 
ATOM      4  C   UNL     1      45.436   6.666  12.386  0.00  0.00    +0.000 A 
ATOM      5  N   UNL     1      45.629   5.276  12.575  0.00  0.00    +0.000 N 
ATOM      6  N   UNL     1      44.696   7.114  11.349  0.00  0.00    +0.000 NA
ATOM      7  C   UNL     1      44.556   8.456  11.192  0.00  0.00    +0.000 A 
ATOM      8  H   UNL     1      45.778   5.085  13.561  0.00  0.00    +0.000 HD
ENDROOT
BRANCH   1  10
ATOM      9  N   UNL     1      45.962  11.494  11.088  0.00  0.00    +0.000 N 
ATOM     10  C   UNL     1      44.951  10.832  11.727  0.00  0.00    +0.000 C 
ATOM     11  O   UNL     1      43.906  11.400  12.013  0.00  0.00    +0.000 OA
ATOM     12  H   UNL     1      45.765  12.445  10.800  0.00  0.00    +0.000 HD
ATOM     13  H   UNL     1      46.720  11.016  10.621  0.00  0.00    +0.000 HD
ENDBRANCH   1  10
BRANCH   5  14
ATOM     14  C   UNL     1      44.591   4.365  11.995  0.00  0.00    +0.000 C 
ATOM     15  C   UNL     1      43.813   3.468  12.940  0.00  0.00    +0.000 C 
ATOM     16  C   UNL     1      43.121   4.638  12.321  0.00  0.00    +0.000 C 
BRANCH  14  17
ATOM     17  C   UNL     1      44.875   3.936  10.552  0.00  0.00    +0.000 A 
ATOM     18  C   UNL     1      45.390   4.853   9.612  0.00  0.00    +0.000 A 
ATOM     19  C   UNL     1      45.667   4.470   8.297  0.00  0.00    +0.000 A 
ATOM     20  C   UNL     1      45.420   3.164   7.901  0.00  0.00    +0.000 A 
ATOM     21  F   UNL     1      45.676   2.798   6.639  0.00  0.00    +0.000 F 
ATOM     22  C   UNL     1      44.921   2.230   8.798  0.00  0.00    +0.000 A 
ATOM     23  C   UNL     1      44.665   2.615  10.115  0.00  0.00    +0.000 A 
ENDBRANCH  14  17
BRANCH  16  24
ATOM     24  O   UNL     1      42.851   5.748  13.197  0.00  0.00    +0.000 OA
ATOM     25  H   UNL     1      43.672   6.240  13.378  0.00  0.00    +0.000 HD
ENDBRANCH  16  24
ENDBRANCH   5  14
TORSDOF 4
ENDMDL
MODEL 7
REMARK VINA RESULT:    -5.736      5.709      7.487
REMARK INTER + INTRA:          -7.155
REMARK INTER:                  -6.960
REMARK INTRA:                  -0.196
REMARK UNBOUND:                -0.246
REMARK  Name = 
REMARK  4 active torsions:
REMARK  status: ('A' for Active; 'I' for Inactive)
REMARK    1  A    between atoms: C_2  and  C_4
REMARK    2  A    between atoms: N_8  and  C_9
REMARK    3  A    between atoms: C_9  and  C_10
REMARK    4  A    between atoms: C_18  and  O_19
REMARK                            x       y       z     vdW  Elec       q    Type
REMARK                         _______ _______ _______ _____ _____    ______ ____
ROOT
ATOM      1  C   UNL     1      49.142   7.124  12.942  0.00  0.00    +0.000 A 
ATOM      2  C   UNL     1      48.075   6.248  12.765  0.00  0.00    +0.000 A 
ATOM      3  C   UNL     1      47.506   5.631  13.883  0.00  0.00    +0.000 A 
ATOM      4  C   UNL     1      48.041   5.868  15.152  0.00  0.00    +0.000 A 
ATOM      5  N   UNL     1      47.434   5.245  16.269  0.00  0.00    +0.000 N 
ATOM      6  N   UNL     1      49.074   6.720  15.328  0.00  0.00    +0.000 NA
ATOM      7  C   UNL     1      49.612   7.314  14.231  0.00  0.00    +0.000 A 
ATOM      8  H   UNL     1      47.037   4.355  15.986  0.00  0.00    +0.000 HD
ENDROOT
BRANCH   1  10
ATOM      9  N   UNL     1      50.946   7.314  11.322  0.00  0.00    +0.000 N 
ATOM     10  C   UNL     1      49.793   7.847  11.829  0.00  0.00    +0.000 C 
ATOM     11  O   UNL     1      49.303   8.861  11.352  0.00  0.00    +0.000 OA
ATOM     12  H   UNL     1      51.318   7.758  10.492  0.00  0.00    +0.000 HD
ATOM     13  H   UNL     1      51.241   6.368  11.515  0.00  0.00    +0.000 HD
ENDBRANCH   1  10
BRANCH   5  14
ATOM     14  C   UNL     1      48.273   5.100  17.501  0.00  0.00    +0.000 C 
ATOM     15  C   UNL     1      48.501   6.326  18.363  0.00  0.00    +0.000 C 
ATOM     16  C   UNL     1      47.594   5.251  18.864  0.00  0.00    +0.000 C 
BRANCH  14  17
ATOM     17  C   UNL     1      49.326   3.989  17.412  0.00  0.00    +0.000 A 
ATOM     18  C   UNL     1      50.660   4.224  17.802  0.00  0.00    +0.000 A 
ATOM     19  C   UNL     1      51.626   3.216  17.740  0.00  0.00    +0.000 A 
ATOM     20  C   UNL     1      51.269   1.959  17.273  0.00  0.00    +0.000 A 
ATOM     21  F   UNL     1      52.195   0.995  17.203  0.00  0.00    +0.000 F 
ATOM     22  C   UNL     1      49.966   1.687  16.887  0.00  0.00    +0.000 A 
ATOM     23  C   UNL     1      49.002   2.694  16.970  0.00  0.00    +0.000 A 
ENDBRANCH  14  17
BRANCH  16  24
ATOM     24  O   UNL     1      46.187   5.555  18.852  0.00  0.00    +0.000 OA
ATOM     25  H   UNL     1      45.997   6.291  19.462  0.00  0.00    +0.000 HD
ENDBRANCH  16  24
ENDBRANCH   5  14
TORSDOF 4
ENDMDL
MODEL 8
REMARK VINA RESULT:    -5.310      5.057      7.442
REMARK INTER + INTRA:          -6.642
REMARK INTER:                  -6.441
REMARK INTRA:                  -0.201
REMARK UNBOUND:                -0.246
REMARK  Name = 
REMARK  4 active torsions:
REMARK  status: ('A' for Active; 'I' for Inactive)
REMARK    1  A    between atoms: C_2  and  C_4
REMARK    2  A    between atoms: N_8  and  C_9
REMARK    3  A    between atoms: C_9  and  C_10
REMARK    4  A    between atoms: C_18  and  O_19
REMARK                            x       y       z     vdW  Elec       q    Type
REMARK                         _______ _______ _______ _____ _____    ______ ____
ROOT
ATOM      1  C   UNL     1      46.113   4.995  13.370  0.00  0.00    +0.000 A 
ATOM      2  C   UNL     1      46.504   6.170  12.735  0.00  0.00    +0.000 A 
ATOM      3  C   UNL     1      47.611   6.872  13.219  0.00  0.00    +0.000 A 
ATOM      4  C   UNL     1      48.280   6.410  14.356  0.00  0.00    +0.000 A 
ATOM      5  N   UNL     1      49.409   7.131  14.815  0.00  0.00    +0.000 N 
ATOM      6  N   UNL     1      47.906   5.269  14.973  0.00  0.00    +0.000 NA
ATOM      7  C   UNL     1      46.831   4.596  14.485  0.00  0.00    +0.000 A 
ATOM      8  H   UNL     1      49.297   8.114  14.592  0.00  0.00    +0.000 HD
ENDROOT
BRANCH   1  10
ATOM      9  N   UNL     1      45.250   2.882  12.529  0.00  0.00    +0.000 N 
ATOM     10  C   UNL     1      44.977   4.165  12.917  0.00  0.00    +0.000 C 
ATOM     11  O   UNL     1      43.830   4.592  12.923  0.00  0.00    +0.000 OA
ATOM     12  H   UNL     1      44.451   2.294  12.328  0.00  0.00    +0.000 HD
ATOM     13  H   UNL     1      46.124   2.422  12.742  0.00  0.00    +0.000 HD
ENDBRANCH   1  10
BRANCH   5  14
ATOM     14  C   UNL     1      49.797   6.937  16.248  0.00  0.00    +0.000 C 
ATOM     15  C   UNL     1      50.481   5.641  16.639  0.00  0.00    +0.000 C 
ATOM     16  C   UNL     1      51.287   6.897  16.599  0.00  0.00    +0.000 C 
BRANCH  14  17
ATOM     17  C   UNL     1      48.910   7.694  17.242  0.00  0.00    +0.000 A 
ATOM     18  C   UNL     1      48.624   9.063  17.061  0.00  0.00    +0.000 A 
ATOM     19  C   UNL     1      47.804   9.760  17.951  0.00  0.00    +0.000 A 
ATOM     20  C   UNL     1      47.267   9.097  19.045  0.00  0.00    +0.000 A 
ATOM     21  F   UNL     1      46.489   9.766  19.905  0.00  0.00    +0.000 F 
ATOM     22  C   UNL     1      47.518   7.749  19.254  0.00  0.00    +0.000 A 
ATOM     23  C   UNL     1      48.323   7.054  18.349  0.00  0.00    +0.000 A 
ENDBRANCH  14  17
BRANCH  16  24
ATOM     24  O   UNL     1      52.210   7.021  15.501  0.00  0.00    +0.000 OA
ATOM     25  H   UNL     1      53.121   6.866  15.810  0.00  0.00    +0.000 HD
ENDBRANCH  16  24
ENDBRANCH   5  14
TORSDOF 4
ENDMDL
MODEL 9
REMARK VINA RESULT:    -5.201      2.757      3.829
REMARK INTER + INTRA:          -6.511
REMARK INTER:                  -6.373
REMARK INTRA:                  -0.138
REMARK UNBOUND:                -0.246
REMARK  Name = 
REMARK  4 active torsions:
REMARK  status: ('A' for Active; 'I' for Inactive)
REMARK    1  A    between atoms: C_2  and  C_4
REMARK    2  A    between atoms: N_8  and  C_9
REMARK    3  A    between atoms: C_9  and  C_10
REMARK    4  A    between atoms: C_18  and  O_19
REMARK                            x       y       z     vdW  Elec       q    Type
REMARK                         _______ _______ _______ _____ _____    ______ ____
ROOT
ATOM      1  C   UNL     1      44.880   3.911  10.406  0.00  0.00    +0.000 A 
ATOM      2  C   UNL     1      44.308   3.928  11.674  0.00  0.00    +0.000 A 
ATOM      3  C   UNL     1      44.226   5.138  12.370  0.00  0.00    +0.000 A 
ATOM      4  C   UNL     1      44.755   6.300  11.802  0.00  0.00    +0.000 A 
ATOM      5  N   UNL     1      44.643   7.515  12.520  0.00  0.00    +0.000 N 
ATOM      6  N   UNL     1      45.308   6.288  10.570  0.00  0.00    +0.000 NA
ATOM      7  C   UNL     1      45.376   5.104   9.906  0.00  0.00    +0.000 A 
ATOM      8  H   UNL     1      44.655   7.322  13.516  0.00  0.00    +0.000 HD
ENDROOT
BRANCH   1  10
ATOM      9  N   UNL     1      44.187   1.632   9.914  0.00  0.00    +0.000 N 
ATOM     10  C   UNL     1      44.987   2.690   9.579  0.00  0.00    +0.000 C 
ATOM     11  O   UNL     1      45.730   2.637   8.608  0.00  0.00    +0.000 OA
ATOM     12  H   UNL     1      44.191   0.847   9.276  0.00  0.00    +0.000 HD
ATOM     13  H   UNL     1      43.398   1.720  10.538  0.00  0.00    +0.000 HD
ENDBRANCH   1  10
BRANCH   5  14
ATOM     14  C   UNL     1      45.608   8.603  12.163  0.00  0.00    +0.000 C 
ATOM     15  C   UNL     1      45.366   9.388  10.888  0.00  0.00    +0.000 C 
ATOM     16  C   UNL     1      45.116  10.052  12.202  0.00  0.00    +0.000 C 
BRANCH  14  17
ATOM     17  C   UNL     1      47.027   8.377  12.696  0.00  0.00    +0.000 A 
ATOM     18  C   UNL     1      47.306   8.473  14.075  0.00  0.00    +0.000 A 
ATOM     19  C   UNL     1      48.592   8.255  14.575  0.00  0.00    +0.000 A 
ATOM     20  C   UNL     1      49.622   7.948  13.697  0.00  0.00    +0.000 A 
ATOM     21  F   UNL     1      50.857   7.749  14.172  0.00  0.00    +0.000 F 
ATOM     22  C   UNL     1      49.386   7.838  12.335  0.00  0.00    +0.000 A 
ATOM     23  C   UNL     1      48.094   8.038  11.844  0.00  0.00    +0.000 A 
ENDBRANCH  14  17
BRANCH  16  24
ATOM     24  O   UNL     1      43.735  10.254  12.556  0.00  0.00    +0.000 OA
ATOM     25  H   UNL     1      43.257   9.405  12.537  0.00  0.00    +0.000 HD
ENDBRANCH  16  24
ENDBRANCH   5  14
TORSDOF 4
ENDMDL
