MODEL 1
REMARK VINA RESULT:    -8.092      0.000      0.000
REMARK INTER + INTRA:         -11.948
REMARK INTER:                 -10.930
REMARK INTRA:                  -1.018
REMARK UNBOUND:                -1.018
REMARK  Name = 
REMARK  7 active torsions:
REMARK  status: ('A' for Active; 'I' for Inactive)
REMARK    1  A    between atoms: C_1  and  C_2
REMARK    2  A    between atoms: C_5  and  C_6
REMARK    3  A    between atoms: N_8  and  C_9
REMARK    4  A    between atoms: C_9  and  C_10
REMARK    5  A    between atoms: C_13  and  C_14
REMARK    6  A    between atoms: C_14  and  N_15
REMARK    7  A    between atoms: C_16  and  C_18
REMARK                            x       y       z     vdW  Elec       q    Type
REMARK                         _______ _______ _______ _____ _____    ______ ____
ROOT
ATOM      1  C   UNL     1      45.099   6.368  11.201  0.00  0.00    +0.000 A 
ATOM      2  C   UNL     1      46.300   5.808  11.659  0.00  0.00    +0.000 A 
ATOM      3  C   UNL     1      47.107   6.494  12.576  0.00  0.00    +0.000 A 
ATOM      4  C   UNL     1      46.722   7.750  13.065  0.00  0.00    +0.000 A 
ATOM      5  C   UNL     1      45.540   8.324  12.580  0.00  0.00    +0.000 A 
ATOM      6  C   UNL     1      44.732   7.637  11.668  0.00  0.00    +0.000 A 
ENDROOT
BRANCH   1   7
ATOM      7  C   UNL     1      44.228   5.629  10.219  0.00  0.00    +0.000 C 
BRANCH   7  10
ATOM      8  C   UNL     1      44.787   3.479   9.205  0.00  0.00    +0.000 C 
ATOM      9  O   UNL     1      43.994   2.870   9.913  0.00  0.00    +0.000 OA
ATOM     10  N   UNL     1      44.979   4.838   9.273  0.00  0.00    +0.000 N 
ATOM     11  H   UNL     1      45.674   5.259   8.665  0.00  0.00    +0.000 HD
BRANCH   8  16
ATOM     12  C   UNL     1      47.565   2.535   5.165  0.00  0.00    +0.000 C 
ATOM     13  C   UNL     1      46.824   2.418   6.454  0.00  0.00    +0.000 C 
ATOM     14  C   UNL     1      46.815   1.171   7.238  0.00  0.00    +0.000 C 
ATOM     15  C   UNL     1      46.003   1.498   8.364  0.00  0.00    +0.000 C 
ATOM     16  C   UNL     1      45.641   2.780   8.190  0.00  0.00    +0.000 C 
ATOM     17  N   UNL     1      46.130   3.374   7.025  0.00  0.00    +0.000 NA
ENDBRANCH   8  16
ENDBRANCH   7  10
ENDBRANCH   1   7
BRANCH   4  18
ATOM     18  C   UNL     1      47.570   8.488  14.072  0.00  0.00    +0.000 C 
BRANCH  18  19
ATOM     19  N   UNL     1      47.893   7.652  15.200  0.00  0.00    +0.000 N 
ATOM     20  C   UNL     1      49.111   7.030  15.311  0.00  0.00    +0.000 C 
ATOM     21  O   UNL     1      50.000   7.181  14.478  0.00  0.00    +0.000 OA
ATOM     22  H   UNL     1      47.114   7.319  15.757  0.00  0.00    +0.000 HD
BRANCH  20  23
ATOM     23  C   UNL     1      49.318   6.218  16.517  0.00  0.00    +0.000 A 
ATOM     24  C   UNL     1      50.317   6.563  17.420  0.00  0.00    +0.000 A 
ATOM     25  S   UNL     1      50.379   5.549  18.791  0.00  0.00    +0.000 S 
ATOM     26  C   UNL     1      49.112   4.578  18.200  0.00  0.00    +0.000 A 
ATOM     27  N   UNL     1      48.679   3.494  18.896  0.00  0.00    +0.000 NA
ATOM     28  C   UNL     1      47.731   2.833  18.319  0.00  0.00    +0.000 A 
ATOM     29  N   UNL     1      47.174   3.164  17.109  0.00  0.00    +0.000 N 
ATOM     30  C   UNL     1      47.562   4.264  16.385  0.00  0.00    +0.000 A 
ATOM     31  O   UNL     1      47.015   4.552  15.325  0.00  0.00    +0.000 OA
ATOM     32  C   UNL     1      48.633   5.035  16.985  0.00  0.00    +0.000 A 
ATOM     33  H   UNL     1      46.430   2.609  16.713  0.00  0.00    +0.000 HD
ENDBRANCH  20  23
ENDBRANCH  18  19
ENDBRANCH   4  18
TORSDOF 6
ENDMDL
MODEL 2
REMARK VINA RESULT:    -7.282      2.426      2.839
REMARK INTER + INTRA:         -10.854
REMARK INTER:                 -10.002
REMARK INTRA:                  -0.853
REMARK UNBOUND:                -1.018
REMARK  Name = 
REMARK  7 active torsions:
REMARK  status: ('A' for Active; 'I' for Inactive)
REMARK    1  A    between atoms: C_1  and  C_2
REMARK    2  A    between atoms: C_5  and  C_6
REMARK    3  A    between atoms: N_8  and  C_9
REMARK    4  A    between atoms: C_9  and  C_10
REMARK    5  A    between atoms: C_13  and  C_14
REMARK    6  A    between atoms: C_14  and  N_15
REMARK    7  A    between atoms: C_16  and  C_18
REMARK                            x       y       z     vdW  Elec       q    Type
REMARK                         _______ _______ _______ _____ _____    ______ ____
ROOT
ATOM      1  C   UNL     1      45.473   6.944  11.822  0.00  0.00    +0.000 A 
ATOM      2  C   UNL     1      45.110   8.178  12.381  0.00  0.00    +0.000 A 
ATOM      3  C   UNL     1      45.990   8.867  13.225  0.00  0.00    +0.000 A 
ATOM      4  C   UNL     1      47.258   8.345  13.516  0.00  0.00    +0.000 A 
ATOM      5  C   UNL     1      47.605   7.096  12.985  0.00  0.00    +0.000 A 
ATOM      6  C   UNL     1      46.729   6.409  12.138  0.00  0.00    +0.000 A 
ENDROOT
BRANCH   1   7
ATOM      7  C   UNL     1      44.529   6.204  10.911  0.00  0.00    +0.000 C 
BRANCH   7  10
ATOM      8  C   UNL     1      44.603   4.090   9.691  0.00  0.00    +0.000 C 
ATOM      9  O   UNL     1      43.505   3.740  10.109  0.00  0.00    +0.000 OA
ATOM     10  N   UNL     1      45.198   5.284  10.023  0.00  0.00    +0.000 N 
ATOM     11  H   UNL     1      46.120   5.483   9.649  0.00  0.00    +0.000 HD
BRANCH   8  16
ATOM     12  C   UNL     1      46.798   0.125   7.596  0.00  0.00    +0.000 C 
ATOM     13  C   UNL     1      46.329   1.506   7.906  0.00  0.00    +0.000 C 
ATOM     14  C   UNL     1      46.686   2.658   7.059  0.00  0.00    +0.000 C 
ATOM     15  C   UNL     1      46.044   3.753   7.711  0.00  0.00    +0.000 C 
ATOM     16  C   UNL     1      45.413   3.224   8.773  0.00  0.00    +0.000 C 
ATOM     17  N   UNL     1      45.569   1.845   8.920  0.00  0.00    +0.000 NA
ENDBRANCH   8  16
ENDBRANCH   7  10
ENDBRANCH   1   7
BRANCH   4  18
ATOM     18  C   UNL     1      48.224   9.092  14.403  0.00  0.00    +0.000 C 
BRANCH  18  19
ATOM     19  N   UNL     1      47.890   8.935  15.795  0.00  0.00    +0.000 N 
ATOM     20  C   UNL     1      48.774   9.267  16.790  0.00  0.00    +0.000 C 
ATOM     21  O   UNL     1      49.878   9.748  16.551  0.00  0.00    +0.000 OA
ATOM     22  H   UNL     1      47.109   8.325  16.009  0.00  0.00    +0.000 HD
BRANCH  20  23
ATOM     23  C   UNL     1      48.304   9.073  18.169  0.00  0.00    +0.000 A 
ATOM     24  C   UNL     1      48.092  10.175  18.989  0.00  0.00    +0.000 A 
ATOM     25  S   UNL     1      47.491   9.771  20.533  0.00  0.00    +0.000 S 
ATOM     26  C   UNL     1      47.546   8.107  20.182  0.00  0.00    +0.000 A 
ATOM     27  N   UNL     1      47.180   7.184  21.111  0.00  0.00    +0.000 NA
ATOM     28  C   UNL     1      47.296   5.958  20.719  0.00  0.00    +0.000 A 
ATOM     29  N   UNL     1      47.742   5.574  19.479  0.00  0.00    +0.000 N 
ATOM     30  C   UNL     1      48.097   6.472  18.503  0.00  0.00    +0.000 A 
ATOM     31  O   UNL     1      48.455   6.093  17.392  0.00  0.00    +0.000 OA
ATOM     32  C   UNL     1      47.995   7.863  18.896  0.00  0.00    +0.000 A 
ATOM     33  H   UNL     1      47.805   4.598  19.231  0.00  0.00    +0.000 HD
ENDBRANCH  20  23
ENDBRANCH  18  19
ENDBRANCH   4  18
TORSDOF 6
ENDMDL
MODEL 3
REMARK VINA RESULT:    -7.163      1.869      2.760
REMARK INTER + INTRA:         -10.693
REMARK INTER:                  -9.855
REMARK INTRA:                  -0.838
REMARK UNBOUND:                -1.018
REMARK  Name = 
REMARK  7 active torsions:
REMARK  status: ('A' for Active; 'I' for Inactive)
REMARK    1  A    between atoms: C_1  and  C_2
REMARK    2  A    between atoms: C_5  and  C_6
REMARK    3  A    between atoms: N_8  and  C_9
REMARK    4  A    between atoms: C_9  and  C_10
REMARK    5  A    between atoms: C_13  and  C_14
REMARK    6  A    between atoms: C_14  and  N_15
REMARK    7  A    between atoms: C_16  and  C_18
REMARK                            x       y       z     vdW  Elec       q    Type
REMARK                         _______ _______ _______ _____ _____    ______ ____
ROOT
ATOM      1  C   UNL     1      45.285   6.742  11.713  0.00  0.00    +0.000 A 
ATOM      2  C   UNL     1      45.120   8.099  12.025  0.00  0.00    +0.000 A 
ATOM      3  C   UNL     1      46.000   8.743  12.905  0.00  0.00    +0.000 A 
ATOM      4  C   UNL     1      47.072   8.047  13.480  0.00  0.00    +0.000 A 
ATOM      5  C   UNL     1      47.215   6.683  13.193  0.00  0.00    +0.000 A 
ATOM      6  C   UNL     1      46.340   6.041  12.311  0.00  0.00    +0.000 A 
ENDROOT
BRANCH   1   7
ATOM      7  C   UNL     1      44.342   6.050  10.764  0.00  0.00    +0.000 C 
BRANCH   7  10
ATOM      8  C   UNL     1      44.574   3.849   9.731  0.00  0.00    +0.000 C 
ATOM      9  O   UNL     1      43.626   3.388  10.358  0.00  0.00    +0.000 OA
ATOM     10  N   UNL     1      45.008   5.147   9.855  0.00  0.00    +0.000 N 
ATOM     11  H   UNL     1      45.816   5.440   9.315  0.00  0.00    +0.000 HD
BRANCH   8  16
ATOM     12  C   UNL     1      46.843  -0.011   7.524  0.00  0.00    +0.000 C 
ATOM     13  C   UNL     1      46.315   1.344   7.852  0.00  0.00    +0.000 C 
ATOM     14  C   UNL     1      46.533   2.500   6.965  0.00  0.00    +0.000 C 
ATOM     15  C   UNL     1      45.877   3.566   7.650  0.00  0.00    +0.000 C 
ATOM     16  C   UNL     1      45.363   3.019   8.764  0.00  0.00    +0.000 C 
ATOM     17  N   UNL     1      45.615   1.654   8.917  0.00  0.00    +0.000 NA
ENDBRANCH   8  16
ENDBRANCH   7  10
ENDBRANCH   1   7
BRANCH   4  18
ATOM     18  C   UNL     1      48.042   8.737  14.408  0.00  0.00    +0.000 C 
BRANCH  18  19
ATOM     19  N   UNL     1      48.216   7.997  15.631  0.00  0.00    +0.000 N 
ATOM     20  C   UNL     1      49.280   7.151  15.816  0.00  0.00    +0.000 C 
ATOM     21  O   UNL     1      50.157   7.008  14.968  0.00  0.00    +0.000 OA
ATOM     22  H   UNL     1      47.402   7.907  16.228  0.00  0.00    +0.000 HD
BRANCH  20  23
ATOM     23  C   UNL     1      49.350   6.468  17.115  0.00  0.00    +0.000 A 
ATOM     24  C   UNL     1      49.300   5.081  17.171  0.00  0.00    +0.000 A 
ATOM     25  S   UNL     1      49.453   4.454  18.750  0.00  0.00    +0.000 S 
ATOM     26  C   UNL     1      49.534   6.016  19.422  0.00  0.00    +0.000 A 
ATOM     27  N   UNL     1      49.646   6.194  20.765  0.00  0.00    +0.000 NA
ATOM     28  C   UNL     1      49.671   7.430  21.139  0.00  0.00    +0.000 A 
ATOM     29  N   UNL     1      49.598   8.504  20.288  0.00  0.00    +0.000 N 
ATOM     30  C   UNL     1      49.511   8.371  18.924  0.00  0.00    +0.000 A 
ATOM     31  O   UNL     1      49.487   9.354  18.190  0.00  0.00    +0.000 OA
ATOM     32  C   UNL     1      49.469   7.001  18.453  0.00  0.00    +0.000 A 
ATOM     33  H   UNL     1      49.628   9.448  20.642  0.00  0.00    +0.000 HD
ENDBRANCH  20  23
ENDBRANCH  18  19
ENDBRANCH   4  18
TORSDOF 6
ENDMDL
MODEL 4
REMARK VINA RESULT:    -6.814      4.003      8.688
REMARK INTER + INTRA:         -10.222
REMARK INTER:                  -9.190
REMARK INTRA:                  -1.032
REMARK UNBOUND:                -1.018
REMARK  Name = 
REMARK  7 active torsions:
REMARK  status: ('A' for Active; 'I' for Inactive)
REMARK    1  A    between atoms: C_1  and  C_2
REMARK    2  A    between atoms: C_5  and  C_6
REMARK    3  A    between atoms: N_8  and  C_9
REMARK    4  A    between atoms: C_9  and  C_10
REMARK    5  A    between atoms: C_13  and  C_14
REMARK    6  A    between atoms: C_14  and  N_15
REMARK    7  A    between atoms: C_16  and  C_18
REMARK                            x       y       z     vdW  Elec       q    Type
REMARK                         _______ _______ _______ _____ _____    ______ ____
ROOT
ATOM      1  C   UNL     1      49.694   4.905  17.643  0.00  0.00    +0.000 A 
ATOM      2  C   UNL     1      50.462   5.986  17.188  0.00  0.00    +0.000 A 
ATOM      3  C   UNL     1      50.019   6.781  16.123  0.00  0.00    +0.000 A 
ATOM      4  C   UNL     1      48.790   6.521  15.501  0.00  0.00    +0.000 A 
ATOM      5  C   UNL     1      48.040   5.420  15.934  0.00  0.00    +0.000 A 
ATOM      6  C   UNL     1      48.480   4.628  17.000  0.00  0.00    +0.000 A 
ENDROOT
BRANCH   1   7
ATOM      7  C   UNL     1      50.167   4.052  18.791  0.00  0.00    +0.000 C 
BRANCH   7  10
ATOM      8  C   UNL     1      51.561   2.341  17.746  0.00  0.00    +0.000 C 
ATOM      9  O   UNL     1      50.605   1.819  17.184  0.00  0.00    +0.000 OA
ATOM     10  N   UNL     1      51.455   3.445  18.558  0.00  0.00    +0.000 N 
ATOM     11  H   UNL     1      52.296   3.799  19.003  0.00  0.00    +0.000 HD
BRANCH   8  16
ATOM     12  C   UNL     1      55.418  -0.739  17.001  0.00  0.00    +0.000 C 
ATOM     13  C   UNL     1      54.573   0.458  17.274  0.00  0.00    +0.000 C 
ATOM     14  C   UNL     1      55.160   1.789  17.510  0.00  0.00    +0.000 C 
ATOM     15  C   UNL     1      54.017   2.616  17.726  0.00  0.00    +0.000 C 
ATOM     16  C   UNL     1      52.953   1.804  17.602  0.00  0.00    +0.000 C 
ATOM     17  N   UNL     1      53.262   0.472  17.324  0.00  0.00    +0.000 NA
ENDBRANCH   8  16
ENDBRANCH   7  10
ENDBRANCH   1   7
BRANCH   4  18
ATOM     18  C   UNL     1      48.290   7.387  14.371  0.00  0.00    +0.000 C 
BRANCH  18  19
ATOM     19  N   UNL     1      47.046   6.892  13.839  0.00  0.00    +0.000 N 
ATOM     20  C   UNL     1      46.824   6.805  12.488  0.00  0.00    +0.000 C 
ATOM     21  O   UNL     1      47.682   7.106  11.663  0.00  0.00    +0.000 OA
ATOM     22  H   UNL     1      46.256   6.875  14.474  0.00  0.00    +0.000 HD
BRANCH  20  23
ATOM     23  C   UNL     1      45.519   6.269  12.078  0.00  0.00    +0.000 A 
ATOM     24  C   UNL     1      44.561   7.118  11.538  0.00  0.00    +0.000 A 
ATOM     25  S   UNL     1      43.130   6.320  11.062  0.00  0.00    +0.000 S 
ATOM     26  C   UNL     1      43.717   4.821  11.613  0.00  0.00    +0.000 A 
ATOM     27  N   UNL     1      42.957   3.697  11.523  0.00  0.00    +0.000 NA
ATOM     28  C   UNL     1      43.515   2.635  12.003  0.00  0.00    +0.000 A 
ATOM     29  N   UNL     1      44.769   2.597  12.560  0.00  0.00    +0.000 N 
ATOM     30  C   UNL     1      45.581   3.701  12.647  0.00  0.00    +0.000 A 
ATOM     31  O   UNL     1      46.712   3.622  13.116  0.00  0.00    +0.000 OA
ATOM     32  C   UNL     1      44.996   4.923  12.131  0.00  0.00    +0.000 A 
ATOM     33  H   UNL     1      45.153   1.734  12.913  0.00  0.00    +0.000 HD
ENDBRANCH  20  23
ENDBRANCH  18  19
ENDBRANCH   4  18
TORSDOF 6
ENDMDL
MODEL 5
REMARK VINA RESULT:    -6.790      3.672      5.046
REMARK INTER + INTRA:         -10.190
REMARK INTER:                  -9.071
REMARK INTRA:                  -1.119
REMARK UNBOUND:                -1.018
REMARK  Name = 
REMARK  7 active torsions:
REMARK  status: ('A' for Active; 'I' for Inactive)
REMARK    1  A    between atoms: C_1  and  C_2
REMARK    2  A    between atoms: C_5  and  C_6
REMARK    3  A    between atoms: N_8  and  C_9
REMARK    4  A    between atoms: C_9  and  C_10
REMARK    5  A    between atoms: C_13  and  C_14
REMARK    6  A    between atoms: C_14  and  N_15
REMARK    7  A    between atoms: C_16  and  C_18
REMARK                            x       y       z     vdW  Elec       q    Type
REMARK                         _______ _______ _______ _____ _____    ______ ____
ROOT
ATOM      1  C   UNL     1      45.540   6.906  11.862  0.00  0.00    +0.000 A 
ATOM      2  C   UNL     1      45.253   8.176  12.382  0.00  0.00    +0.000 A 
ATOM      3  C   UNL     1      46.160   8.825  13.230  0.00  0.00    +0.000 A 
ATOM      4  C   UNL     1      47.381   8.223  13.564  0.00  0.00    +0.000 A 
ATOM      5  C   UNL     1      47.652   6.940  13.071  0.00  0.00    +0.000 A 
ATOM      6  C   UNL     1      46.748   6.294  12.221  0.00  0.00    +0.000 A 
ENDROOT
BRANCH   1   7
ATOM      7  C   UNL     1      44.567   6.210  10.947  0.00  0.00    +0.000 C 
BRANCH   7  10
ATOM      8  C   UNL     1      44.615   4.085   9.745  0.00  0.00    +0.000 C 
ATOM      9  O   UNL     1      43.552   3.716  10.232  0.00  0.00    +0.000 OA
ATOM     10  N   UNL     1      45.202   5.295  10.029  0.00  0.00    +0.000 N 
ATOM     11  H   UNL     1      46.096   5.511   9.599  0.00  0.00    +0.000 HD
BRANCH   8  16
ATOM     12  C   UNL     1      46.777   0.149   7.565  0.00  0.00    +0.000 C 
ATOM     13  C   UNL     1      46.293   1.521   7.886  0.00  0.00    +0.000 C 
ATOM     14  C   UNL     1      46.563   2.670   7.003  0.00  0.00    +0.000 C 
ATOM     15  C   UNL     1      45.935   3.757   7.681  0.00  0.00    +0.000 C 
ATOM     16  C   UNL     1      45.387   3.228   8.788  0.00  0.00    +0.000 C 
ATOM     17  N   UNL     1      45.590   1.855   8.942  0.00  0.00    +0.000 NA
ENDBRANCH   8  16
ENDBRANCH   7  10
ENDBRANCH   1   7
BRANCH   4  18
ATOM     18  C   UNL     1      48.378   8.924  14.455  0.00  0.00    +0.000 C 
BRANCH  18  19
ATOM     19  N   UNL     1      49.726   8.739  13.983  0.00  0.00    +0.000 N 
ATOM     20  C   UNL     1      50.449   9.773  13.444  0.00  0.00    +0.000 C 
ATOM     21  O   UNL     1      50.001  10.914  13.369  0.00  0.00    +0.000 OA
ATOM     22  H   UNL     1      50.019   7.785  13.807  0.00  0.00    +0.000 HD
BRANCH  20  23
ATOM     23  C   UNL     1      51.817   9.456  13.015  0.00  0.00    +0.000 A 
ATOM     24  C   UNL     1      52.896  10.099  13.609  0.00  0.00    +0.000 A 
ATOM     25  S   UNL     1      54.411   9.568  13.034  0.00  0.00    +0.000 S 
ATOM     26  C   UNL     1      53.680   8.500  11.929  0.00  0.00    +0.000 A 
ATOM     27  N   UNL     1      54.432   7.740  11.089  0.00  0.00    +0.000 NA
ATOM     28  C   UNL     1      53.747   6.995  10.286  0.00  0.00    +0.000 A 
ATOM     29  N   UNL     1      52.376   6.940  10.252  0.00  0.00    +0.000 N 
ATOM     30  C   UNL     1      51.578   7.669  11.098  0.00  0.00    +0.000 A 
ATOM     31  O   UNL     1      50.355   7.566  11.066  0.00  0.00    +0.000 OA
ATOM     32  C   UNL     1      52.299   8.531  12.014  0.00  0.00    +0.000 A 
ATOM     33  H   UNL     1      51.898   6.331   9.604  0.00  0.00    +0.000 HD
ENDBRANCH  20  23
ENDBRANCH  18  19
ENDBRANCH   4  18
TORSDOF 6
ENDMDL
MODEL 6
REMARK VINA RESULT:    -6.576      4.069      9.044
REMARK INTER + INTRA:          -9.901
REMARK INTER:                  -8.892
REMARK INTRA:                  -1.008
REMARK UNBOUND:                -1.018
REMARK  Name = 
REMARK  7 active torsions:
REMARK  status: ('A' for Active; 'I' for Inactive)
REMARK    1  A    between atoms: C_1  and  C_2
REMARK    2  A    between atoms: C_5  and  C_6
REMARK    3  A    between atoms: N_8  and  C_9
REMARK    4  A    between atoms: C_9  and  C_10
REMARK    5  A    between atoms: C_13  and  C_14
REMARK    6  A    between atoms: C_14  and  N_15
REMARK    7  A    between atoms: C_16  and  C_18
REMARK                            x       y       z     vdW  Elec       q    Type
REMARK                         _______ _______ _______ _____ _____    ______ ____
ROOT
ATOM      1  C   UNL     1      49.539   5.043  17.455  0.00  0.00    +0.000 A 
ATOM      2  C   UNL     1      50.204   6.162  16.935  0.00  0.00    +0.000 A 
ATOM      3  C   UNL     1      49.708   6.830  15.808  0.00  0.00    +0.000 A 
ATOM      4  C   UNL     1      48.527   6.402  15.186  0.00  0.00    +0.000 A 
ATOM      5  C   UNL     1      47.882   5.263  15.686  0.00  0.00    +0.000 A 
ATOM      6  C   UNL     1      48.375   4.599  16.814  0.00  0.00    +0.000 A 
ENDROOT
BRANCH   1   7
ATOM      7  C   UNL     1      50.069   4.327  18.670  0.00  0.00    +0.000 C 
BRANCH   7  10
ATOM      8  C   UNL     1      52.406   3.625  18.601  0.00  0.00    +0.000 C 
ATOM      9  O   UNL     1      52.801   4.681  19.083  0.00  0.00    +0.000 OA
ATOM     10  N   UNL     1      51.082   3.348  18.358  0.00  0.00    +0.000 N 
ATOM     11  H   UNL     1      50.845   2.457  17.935  0.00  0.00    +0.000 HD
BRANCH   8  16
ATOM     12  C   UNL     1      54.455  -0.883  17.966  0.00  0.00    +0.000 C 
ATOM     13  C   UNL     1      54.192   0.584  17.962  0.00  0.00    +0.000 C 
ATOM     14  C   UNL     1      55.129   1.543  17.351  0.00  0.00    +0.000 C 
ATOM     15  C   UNL     1      54.498   2.803  17.574  0.00  0.00    +0.000 C 
ATOM     16  C   UNL     1      53.352   2.527  18.218  0.00  0.00    +0.000 C 
ATOM     17  N   UNL     1      53.135   1.172  18.471  0.00  0.00    +0.000 NA
ENDBRANCH   8  16
ENDBRANCH   7  10
ENDBRANCH   1   7
BRANCH   4  18
ATOM     18  C   UNL     1      47.969   7.130  13.987  0.00  0.00    +0.000 C 
BRANCH  18  19
ATOM     19  N   UNL     1      47.229   6.240  13.129  0.00  0.00    +0.000 N 
ATOM     20  C   UNL     1      46.497   6.707  12.067  0.00  0.00    +0.000 C 
ATOM     21  O   UNL     1      46.463   7.898  11.769  0.00  0.00    +0.000 OA
ATOM     22  H   UNL     1      47.042   5.312  13.490  0.00  0.00    +0.000 HD
BRANCH  20  23
ATOM     23  C   UNL     1      45.802   5.695  11.261  0.00  0.00    +0.000 A 
ATOM     24  C   UNL     1      45.911   5.717   9.876  0.00  0.00    +0.000 A 
ATOM     25  S   UNL     1      45.090   4.436   9.105  0.00  0.00    +0.000 S 
ATOM     26  C   UNL     1      44.512   3.838  10.589  0.00  0.00    +0.000 A 
ATOM     27  N   UNL     1      43.706   2.744  10.636  0.00  0.00    +0.000 NA
ATOM     28  C   UNL     1      43.321   2.416  11.824  0.00  0.00    +0.000 A 
ATOM     29  N   UNL     1      43.673   3.083  12.971  0.00  0.00    +0.000 N 
ATOM     30  C   UNL     1      44.505   4.175  12.973  0.00  0.00    +0.000 A 
ATOM     31  O   UNL     1      44.830   4.724  14.022  0.00  0.00    +0.000 OA
ATOM     32  C   UNL     1      44.958   4.592  11.660  0.00  0.00    +0.000 A 
ATOM     33  H   UNL     1      43.343   2.773  13.872  0.00  0.00    +0.000 HD
ENDBRANCH  20  23
ENDBRANCH  18  19
ENDBRANCH   4  18
TORSDOF 6
ENDMDL
MODEL 7
REMARK VINA RESULT:    -6.559      5.997      8.403
REMARK INTER + INTRA:          -9.878
REMARK INTER:                  -9.147
REMARK INTRA:                  -0.731
REMARK UNBOUND:                -1.018
REMARK  Name = 
REMARK  7 active torsions:
REMARK  status: ('A' for Active; 'I' for Inactive)
REMARK    1  A    between atoms: C_1  and  C_2
REMARK    2  A    between atoms: C_5  and  C_6
REMARK    3  A    between atoms: N_8  and  C_9
REMARK    4  A    between atoms: C_9  and  C_10
REMARK    5  A    between atoms: C_13  and  C_14
REMARK    6  A    between atoms: C_14  and  N_15
REMARK    7  A    between atoms: C_16  and  C_18
REMARK                            x       y       z     vdW  Elec       q    Type
REMARK                         _______ _______ _______ _____ _____    ______ ____
ROOT
ATOM      1  C   UNL     1      48.699   3.363  17.140  0.00  0.00    +0.000 A 
ATOM      2  C   UNL     1      49.290   2.129  16.833  0.00  0.00    +0.000 A 
ATOM      3  C   UNL     1      50.641   1.891  17.120  0.00  0.00    +0.000 A 
ATOM      4  C   UNL     1      51.425   2.877  17.735  0.00  0.00    +0.000 A 
ATOM      5  C   UNL     1      50.841   4.120  18.011  0.00  0.00    +0.000 A 
ATOM      6  C   UNL     1      49.492   4.357  17.728  0.00  0.00    +0.000 A 
ENDROOT
BRANCH   1   7
ATOM      7  C   UNL     1      47.246   3.618  16.836  0.00  0.00    +0.000 C 
BRANCH   7  10
ATOM      8  C   UNL     1      47.051   4.308  14.502  0.00  0.00    +0.000 C 
ATOM      9  O   UNL     1      47.221   3.167  14.087  0.00  0.00    +0.000 OA
ATOM     10  N   UNL     1      47.043   4.639  15.836  0.00  0.00    +0.000 N 
ATOM     11  H   UNL     1      46.918   5.613  16.091  0.00  0.00    +0.000 HD
BRANCH   8  16
ATOM     12  C   UNL     1      44.889   7.795  11.657  0.00  0.00    +0.000 C 
ATOM     13  C   UNL     1      45.881   6.941  12.372  0.00  0.00    +0.000 C 
ATOM     14  C   UNL     1      47.331   7.183  12.273  0.00  0.00    +0.000 C 
ATOM     15  C   UNL     1      47.889   6.156  13.091  0.00  0.00    +0.000 C 
ATOM     16  C   UNL     1      46.842   5.466  13.573  0.00  0.00    +0.000 C 
ATOM     17  N   UNL     1      45.594   5.924  13.148  0.00  0.00    +0.000 NA
ENDBRANCH   8  16
ENDBRANCH   7  10
ENDBRANCH   1   7
BRANCH   4  18
ATOM     18  C   UNL     1      52.873   2.622  18.074  0.00  0.00    +0.000 C 
BRANCH  18  19
ATOM     19  N   UNL     1      53.328   1.369  17.528  0.00  0.00    +0.000 N 
ATOM     20  C   UNL     1      54.187   0.553  18.219  0.00  0.00    +0.000 C 
ATOM     21  O   UNL     1      54.583   0.826  19.349  0.00  0.00    +0.000 OA
ATOM     22  H   UNL     1      53.221   1.243  16.528  0.00  0.00    +0.000 HD
BRANCH  20  23
ATOM     23  C   UNL     1      54.562  -0.704  17.557  0.00  0.00    +0.000 A 
ATOM     24  C   UNL     1      55.125  -0.677  16.287  0.00  0.00    +0.000 A 
ATOM     25  S   UNL     1      55.553  -2.218  15.696  0.00  0.00    +0.000 S 
ATOM     26  C   UNL     1      54.950  -2.983  17.091  0.00  0.00    +0.000 A 
ATOM     27  N   UNL     1      54.987  -4.336  17.218  0.00  0.00    +0.000 NA
ATOM     28  C   UNL     1      54.473  -4.784  18.315  0.00  0.00    +0.000 A 
ATOM     29  N   UNL     1      53.928  -3.997  19.299  0.00  0.00    +0.000 N 
ATOM     30  C   UNL     1      53.894  -2.626  19.225  0.00  0.00    +0.000 A 
ATOM     31  O   UNL     1      53.434  -1.951  20.142  0.00  0.00    +0.000 OA
ATOM     32  C   UNL     1      54.450  -2.073  18.006  0.00  0.00    +0.000 A 
ATOM     33  H   UNL     1      53.546  -4.407  20.138  0.00  0.00    +0.000 HD
ENDBRANCH  20  23
ENDBRANCH  18  19
ENDBRANCH   4  18
TORSDOF 6
ENDMDL
MODEL 8
REMARK VINA RESULT:    -6.022      3.709      9.159
REMARK INTER + INTRA:          -9.152
REMARK INTER:                  -8.254
REMARK INTRA:                  -0.898
REMARK UNBOUND:                -1.018
REMARK  Name = 
REMARK  7 active torsions:
REMARK  status: ('A' for Active; 'I' for Inactive)
REMARK    1  A    between atoms: C_1  and  C_2
REMARK    2  A    between atoms: C_5  and  C_6
REMARK    3  A    between atoms: N_8  and  C_9
REMARK    4  A    between atoms: C_9  and  C_10
REMARK    5  A    between atoms: C_13  and  C_14
REMARK    6  A    between atoms: C_14  and  N_15
REMARK    7  A    between atoms: C_16  and  C_18
REMARK                            x       y       z     vdW  Elec       q    Type
REMARK                         _______ _______ _______ _____ _____    ______ ____
ROOT
ATOM      1  C   UNL     1      51.048   7.875  14.401  0.00  0.00    +0.000 A 
ATOM      2  C   UNL     1      51.180   8.475  13.141  0.00  0.00    +0.000 A 
ATOM      3  C   UNL     1      50.092   8.540  12.262  0.00  0.00    +0.000 A 
ATOM      4  C   UNL     1      48.843   8.020  12.630  0.00  0.00    +0.000 A 
ATOM      5  C   UNL     1      48.722   7.391  13.876  0.00  0.00    +0.000 A 
ATOM      6  C   UNL     1      49.808   7.329  14.756  0.00  0.00    +0.000 A 
ENDROOT
BRANCH   1   7
ATOM      7  C   UNL     1      52.217   7.808  15.349  0.00  0.00    +0.000 C 
BRANCH   7  10
ATOM      8  C   UNL     1      53.479   6.179  16.660  0.00  0.00    +0.000 C 
ATOM      9  O   UNL     1      54.503   6.851  16.620  0.00  0.00    +0.000 OA
ATOM     10  N   UNL     1      52.298   6.560  16.069  0.00  0.00    +0.000 N 
ATOM     11  H   UNL     1      51.503   5.931  16.131  0.00  0.00    +0.000 HD
BRANCH   8  16
ATOM     12  C   UNL     1      54.826   1.910  18.869  0.00  0.00    +0.000 C 
ATOM     13  C   UNL     1      54.042   3.044  18.302  0.00  0.00    +0.000 C 
ATOM     14  C   UNL     1      52.571   3.089  18.375  0.00  0.00    +0.000 C 
ATOM     15  C   UNL     1      52.249   4.316  17.722  0.00  0.00    +0.000 C 
ATOM     16  C   UNL     1      53.426   4.856  17.361  0.00  0.00    +0.000 C 
ATOM     17  N   UNL     1      54.547   4.097  17.704  0.00  0.00    +0.000 NA
ENDBRANCH   8  16
ENDBRANCH   7  10
ENDBRANCH   1   7
BRANCH   4  18
ATOM     18  C   UNL     1      47.657   8.109  11.702  0.00  0.00    +0.000 C 
BRANCH  18  19
ATOM     19  N   UNL     1      46.937   6.863  11.647  0.00  0.00    +0.000 N 
ATOM     20  C   UNL     1      45.566   6.823  11.627  0.00  0.00    +0.000 C 
ATOM     21  O   UNL     1      44.882   7.843  11.617  0.00  0.00    +0.000 OA
ATOM     22  H   UNL     1      47.454   6.028  11.901  0.00  0.00    +0.000 HD
BRANCH  20  23
ATOM     23  C   UNL     1      44.956   5.489  11.555  0.00  0.00    +0.000 A 
ATOM     24  C   UNL     1      44.273   4.980  12.653  0.00  0.00    +0.000 A 
ATOM     25  S   UNL     1      43.578   3.447  12.376  0.00  0.00    +0.000 S 
ATOM     26  C   UNL     1      44.213   3.382  10.798  0.00  0.00    +0.000 A 
ATOM     27  N   UNL     1      44.005   2.298  10.005  0.00  0.00    +0.000 NA
ATOM     28  C   UNL     1      44.565   2.372   8.843  0.00  0.00    +0.000 A 
ATOM     29  N   UNL     1      45.312   3.436   8.403  0.00  0.00    +0.000 N 
ATOM     30  C   UNL     1      45.526   4.561   9.160  0.00  0.00    +0.000 A 
ATOM     31  O   UNL     1      46.166   5.511   8.720  0.00  0.00    +0.000 OA
ATOM     32  C   UNL     1      44.925   4.524  10.479  0.00  0.00    +0.000 A 
ATOM     33  H   UNL     1      45.720   3.436   7.480  0.00  0.00    +0.000 HD
ENDBRANCH  20  23
ENDBRANCH  18  19
ENDBRANCH   4  18
TORSDOF 6
ENDMDL
MODEL 9
REMARK VINA RESULT:    -6.016      5.742      7.844
REMARK INTER + INTRA:          -9.144
REMARK INTER:                  -8.338
REMARK INTRA:                  -0.806
REMARK UNBOUND:                -1.018
REMARK  Name = 
REMARK  7 active torsions:
REMARK  status: ('A' for Active; 'I' for Inactive)
REMARK    1  A    between atoms: C_1  and  C_2
REMARK    2  A    between atoms: C_5  and  C_6
REMARK    3  A    between atoms: N_8  and  C_9
REMARK    4  A    between atoms: C_9  and  C_10
REMARK    5  A    between atoms: C_13  and  C_14
REMARK    6  A    between atoms: C_14  and  N_15
REMARK    7  A    between atoms: C_16  and  C_18
REMARK                            x       y       z     vdW  Elec       q    Type
REMARK                         _______ _______ _______ _____ _____    ______ ____
ROOT
ATOM      1  C   UNL     1      47.814   8.282  12.352  0.00  0.00    +0.000 A 
ATOM      2  C   UNL     1      48.890   7.384  12.291  0.00  0.00    +0.000 A 
ATOM      3  C   UNL     1      50.148   7.804  11.839  0.00  0.00    +0.000 A 
ATOM      4  C   UNL     1      50.361   9.134  11.453  0.00  0.00    +0.000 A 
ATOM      5  C   UNL     1      49.277  10.021  11.482  0.00  0.00    +0.000 A 
ATOM      6  C   UNL     1      48.022   9.604  11.938  0.00  0.00    +0.000 A 
ENDROOT
BRANCH   1   7
ATOM      7  C   UNL     1      46.463   7.833  12.843  0.00  0.00    +0.000 C 
BRANCH   7  10
ATOM      8  C   UNL     1      45.582   5.568  12.610  0.00  0.00    +0.000 C 
ATOM      9  O   UNL     1      45.771   5.307  13.792  0.00  0.00    +0.000 OA
ATOM     10  N   UNL     1      45.885   6.781  12.041  0.00  0.00    +0.000 N 
ATOM     11  H   UNL     1      45.717   6.904  11.047  0.00  0.00    +0.000 HD
BRANCH   8  16
ATOM     12  C   UNL     1      44.542   2.984   8.467  0.00  0.00    +0.000 C 
ATOM     13  C   UNL     1      44.586   3.482   9.871  0.00  0.00    +0.000 C 
ATOM     14  C   UNL     1      43.818   2.839  10.950  0.00  0.00    +0.000 C 
ATOM     15  C   UNL     1      44.145   3.623  12.096  0.00  0.00    +0.000 C 
ATOM     16  C   UNL     1      45.001   4.563  11.661  0.00  0.00    +0.000 C 
ATOM     17  N   UNL     1      45.292   4.503  10.297  0.00  0.00    +0.000 NA
ENDBRANCH   8  16
ENDBRANCH   7  10
ENDBRANCH   1   7
BRANCH   4  18
ATOM     18  C   UNL     1      51.718   9.604  10.990  0.00  0.00    +0.000 C 
BRANCH  18  19
ATOM     19  N   UNL     1      52.062   9.039   9.710  0.00  0.00    +0.000 N 
ATOM     20  C   UNL     1      53.345   8.656   9.413  0.00  0.00    +0.000 C 
ATOM     21  O   UNL     1      54.258   8.738  10.230  0.00  0.00    +0.000 OA
ATOM     22  H   UNL     1      51.401   9.188   8.956  0.00  0.00    +0.000 HD
BRANCH  20  23
ATOM     23  C   UNL     1      53.559   8.080   8.078  0.00  0.00    +0.000 A 
ATOM     24  C   UNL     1      53.629   8.912   6.968  0.00  0.00    +0.000 A 
ATOM     25  S   UNL     1      53.940   8.083   5.510  0.00  0.00    +0.000 S 
ATOM     26  C   UNL     1      53.935   6.576   6.301  0.00  0.00    +0.000 A 
ATOM     27  N   UNL     1      54.122   5.422   5.607  0.00  0.00    +0.000 NA
ATOM     28  C   UNL     1      54.069   4.351   6.328  0.00  0.00    +0.000 A 
ATOM     29  N   UNL     1      53.849   4.333   7.683  0.00  0.00    +0.000 N 
ATOM     30  C   UNL     1      53.681   5.475   8.427  0.00  0.00    +0.000 A 
ATOM     31  O   UNL     1      53.526   5.423   9.643  0.00  0.00    +0.000 OA
ATOM     32  C   UNL     1      53.723   6.706   7.662  0.00  0.00    +0.000 A 
ATOM     33  H   UNL     1      53.824   3.462   8.192  0.00  0.00    +0.000 HD
ENDBRANCH  20  23
ENDBRANCH  18  19
ENDBRANCH   4  18
TORSDOF 6
ENDMDL
