MODEL 1
REMARK VINA RESULT:    -9.186      0.000      0.000
REMARK INTER + INTRA:         -12.252
REMARK INTER:                 -11.870
REMARK INTRA:                  -0.382
REMARK UNBOUND:                -0.382
REMARK  Name = 
REMARK  6 active torsions:
REMARK  status: ('A' for Active; 'I' for Inactive)
REMARK    1  A    between atoms: C_1  and  C_2
REMARK    2  A    between atoms: C_2  and  N_3
REMARK    3  A    between atoms: C_2  and  C_16
REMARK    4  A    between atoms: C_4  and  C_6
REMARK    5  A    between atoms: C_19  and  C_20
REMARK    6  A    between atoms: C_20  and  N_21
REMARK                            x       y       z     vdW  Elec       q    Type
REMARK                         _______ _______ _______ _____ _____    ______ ____
ROOT
ATOM      1  C   UNL     1      48.027   8.868  12.315  0.00  0.00    +0.000 C 
ATOM      2  C   UNL     1      46.907   8.202  13.121  0.00  0.00    +0.000 C 
ENDROOT
BRANCH   2   3
ATOM      3  C   UNL     1      46.242   7.054  12.382  0.00  0.00    +0.000 A 
ATOM      4  C   UNL     1      45.157   6.398  12.983  0.00  0.00    +0.000 A 
ATOM      5  C   UNL     1      44.431   5.433  12.282  0.00  0.00    +0.000 A 
ATOM      6  C   UNL     1      44.794   5.081  10.975  0.00  0.00    +0.000 A 
ATOM      7  C   UNL     1      45.923   5.674  10.402  0.00  0.00    +0.000 A 
ATOM      8  C   UNL     1      46.650   6.635  11.107  0.00  0.00    +0.000 A 
BRANCH   6   9
ATOM      9  C   UNL     1      43.953   4.110  10.185  0.00  0.00    +0.000 C 
BRANCH   9  10
ATOM     10  N   UNL     1      44.179   4.315   8.770  0.00  0.00    +0.000 N 
ATOM     11  C   UNL     1      45.134   3.455   8.248  0.00  0.00    +0.000 A 
ATOM     12  N   UNL     1      45.253   2.215   8.747  0.00  0.00    +0.000 NA
ATOM     13  C   UNL     1      46.201   1.424   8.217  0.00  0.00    +0.000 A 
ATOM     14  C   UNL     1      47.038   1.825   7.208  0.00  0.00    +0.000 A 
ATOM     15  C   UNL     1      46.841   3.108   6.765  0.00  0.00    +0.000 A 
ATOM     16  N   UNL     1      45.909   3.940   7.269  0.00  0.00    +0.000 NA
ATOM     17  H   UNL     1      44.437   5.258   8.502  0.00  0.00    +0.000 HD
ENDBRANCH   9  10
ENDBRANCH   6   9
ENDBRANCH   2   3
BRANCH   2  18
ATOM     18  N   UNL     1      47.406   7.736  14.395  0.00  0.00    +0.000 N 
ATOM     19  C   UNL     1      48.381   6.781  14.509  0.00  0.00    +0.000 C 
ATOM     20  O   UNL     1      49.031   6.369  13.551  0.00  0.00    +0.000 OA
ATOM     21  H   UNL     1      46.796   7.917  15.183  0.00  0.00    +0.000 HD
BRANCH  19  22
ATOM     22  C   UNL     1      48.635   6.295  15.871  0.00  0.00    +0.000 A 
ATOM     23  C   UNL     1      49.418   7.032  16.749  0.00  0.00    +0.000 A 
ATOM     24  S   UNL     1      49.579   6.309  18.287  0.00  0.00    +0.000 S 
ATOM     25  C   UNL     1      48.662   4.956  17.810  0.00  0.00    +0.000 A 
ATOM     26  N   UNL     1      48.448   3.917  18.660  0.00  0.00    +0.000 NA
ATOM     27  C   UNL     1      47.770   2.942  18.151  0.00  0.00    +0.000 A 
ATOM     28  N   UNL     1      47.277   2.917  16.873  0.00  0.00    +0.000 N 
ATOM     29  C   UNL     1      47.420   3.966  15.999  0.00  0.00    +0.000 A 
ATOM     30  O   UNL     1      46.882   3.947  14.897  0.00  0.00    +0.000 OA
ATOM     31  C   UNL     1      48.207   5.072  16.509  0.00  0.00    +0.000 A 
ATOM     32  H   UNL     1      46.731   2.135  16.541  0.00  0.00    +0.000 HD
ENDBRANCH  19  22
ENDBRANCH   2  18
TORSDOF 5
ENDMDL
MODEL 2
REMARK VINA RESULT:    -8.523      4.471      8.711
REMARK INTER + INTRA:         -11.396
REMARK INTER:                 -10.269
REMARK INTRA:                  -1.127
REMARK UNBOUND:                -0.382
REMARK  Name = 
REMARK  6 active torsions:
REMARK  status: ('A' for Active; 'I' for Inactive)
REMARK    1  A    between atoms: C_1  and  C_2
REMARK    2  A    between atoms: C_2  and  N_3
REMARK    3  A    between atoms: C_2  and  C_16
REMARK    4  A    between atoms: C_4  and  C_6
REMARK    5  A    between atoms: C_19  and  C_20
REMARK    6  A    between atoms: C_20  and  N_21
REMARK                            x       y       z     vdW  Elec       q    Type
REMARK                         _______ _______ _______ _____ _____    ______ ____
ROOT
ATOM      1  C   UNL     1      47.918   6.453  18.329  0.00  0.00    +0.000 C 
ATOM      2  C   UNL     1      48.731   6.055  17.093  0.00  0.00    +0.000 C 
ENDROOT
BRANCH   2   3
ATOM      3  C   UNL     1      49.537   4.784  17.292  0.00  0.00    +0.000 A 
ATOM      4  C   UNL     1      48.871   3.549  17.286  0.00  0.00    +0.000 A 
ATOM      5  C   UNL     1      49.588   2.353  17.327  0.00  0.00    +0.000 A 
ATOM      6  C   UNL     1      50.987   2.365  17.406  0.00  0.00    +0.000 A 
ATOM      7  C   UNL     1      51.650   3.593  17.493  0.00  0.00    +0.000 A 
ATOM      8  C   UNL     1      50.931   4.788  17.457  0.00  0.00    +0.000 A 
BRANCH   6   9
ATOM      9  C   UNL     1      51.765   1.074  17.353  0.00  0.00    +0.000 C 
BRANCH   9  10
ATOM     10  N   UNL     1      52.777   1.077  18.389  0.00  0.00    +0.000 N 
ATOM     11  C   UNL     1      53.795   0.165  18.149  0.00  0.00    +0.000 A 
ATOM     12  N   UNL     1      54.166  -0.096  16.886  0.00  0.00    +0.000 NA
ATOM     13  C   UNL     1      55.148  -0.995  16.704  0.00  0.00    +0.000 A 
ATOM     14  C   UNL     1      55.773  -1.646  17.736  0.00  0.00    +0.000 A 
ATOM     15  C   UNL     1      55.325  -1.313  18.990  0.00  0.00    +0.000 A 
ATOM     16  N   UNL     1      54.340  -0.423  19.221  0.00  0.00    +0.000 NA
ATOM     17  H   UNL     1      52.437   0.915  19.330  0.00  0.00    +0.000 HD
ENDBRANCH   9  10
ENDBRANCH   6   9
ENDBRANCH   2   3
BRANCH   2  18
ATOM     18  N   UNL     1      47.868   5.909  15.943  0.00  0.00    +0.000 N 
ATOM     19  C   UNL     1      48.249   6.261  14.676  0.00  0.00    +0.000 C 
ATOM     20  O   UNL     1      49.405   6.563  14.384  0.00  0.00    +0.000 OA
ATOM     21  H   UNL     1      46.881   5.830  16.158  0.00  0.00    +0.000 HD
BRANCH  19  22
ATOM     22  C   UNL     1      47.190   6.220  13.660  0.00  0.00    +0.000 A 
ATOM     23  C   UNL     1      46.716   7.391  13.087  0.00  0.00    +0.000 A 
ATOM     24  S   UNL     1      45.501   7.132  11.916  0.00  0.00    +0.000 S 
ATOM     25  C   UNL     1      45.523   5.451  12.183  0.00  0.00    +0.000 A 
ATOM     26  N   UNL     1      44.674   4.622  11.518  0.00  0.00    +0.000 NA
ATOM     27  C   UNL     1      44.775   3.378  11.849  0.00  0.00    +0.000 A 
ATOM     28  N   UNL     1      45.654   2.885  12.779  0.00  0.00    +0.000 N 
ATOM     29  C   UNL     1      46.566   3.675  13.433  0.00  0.00    +0.000 A 
ATOM     30  O   UNL     1      47.401   3.184  14.185  0.00  0.00    +0.000 OA
ATOM     31  C   UNL     1      46.470   5.089  13.124  0.00  0.00    +0.000 A 
ATOM     32  H   UNL     1      45.702   1.896  12.976  0.00  0.00    +0.000 HD
ENDBRANCH  19  22
ENDBRANCH   2  18
TORSDOF 5
ENDMDL
MODEL 3
REMARK VINA RESULT:    -8.311      2.647      3.607
REMARK INTER + INTRA:         -11.122
REMARK INTER:                 -10.029
REMARK INTRA:                  -1.093
REMARK UNBOUND:                -0.382
REMARK  Name = 
REMARK  6 active torsions:
REMARK  status: ('A' for Active; 'I' for Inactive)
REMARK    1  A    between atoms: C_1  and  C_2
REMARK    2  A    between atoms: C_2  and  N_3
REMARK    3  A    between atoms: C_2  and  C_16
REMARK    4  A    between atoms: C_4  and  C_6
REMARK    5  A    between atoms: C_19  and  C_20
REMARK    6  A    between atoms: C_20  and  N_21
REMARK                            x       y       z     vdW  Elec       q    Type
REMARK                         _______ _______ _______ _____ _____    ______ ____
ROOT
ATOM      1  C   UNL     1      47.472   4.265  16.046  0.00  0.00    +0.000 C 
ATOM      2  C   UNL     1      47.820   5.119  14.822  0.00  0.00    +0.000 C 
ENDROOT
BRANCH   2   3
ATOM      3  C   UNL     1      46.859   4.921  13.663  0.00  0.00    +0.000 A 
ATOM      4  C   UNL     1      46.404   3.627  13.371  0.00  0.00    +0.000 A 
ATOM      5  C   UNL     1      45.416   3.420  12.407  0.00  0.00    +0.000 A 
ATOM      6  C   UNL     1      44.885   4.500  11.691  0.00  0.00    +0.000 A 
ATOM      7  C   UNL     1      45.393   5.782  11.921  0.00  0.00    +0.000 A 
ATOM      8  C   UNL     1      46.384   5.987  12.883  0.00  0.00    +0.000 A 
BRANCH   6   9
ATOM      9  C   UNL     1      43.751   4.287  10.719  0.00  0.00    +0.000 C 
BRANCH   9  10
ATOM     10  N   UNL     1      44.142   4.765   9.408  0.00  0.00    +0.000 N 
ATOM     11  C   UNL     1      45.010   3.898   8.758  0.00  0.00    +0.000 A 
ATOM     12  N   UNL     1      44.898   2.576   8.955  0.00  0.00    +0.000 NA
ATOM     13  C   UNL     1      45.768   1.780   8.311  0.00  0.00    +0.000 A 
ATOM     14  C   UNL     1      46.749   2.254   7.480  0.00  0.00    +0.000 A 
ATOM     15  C   UNL     1      46.785   3.619   7.342  0.00  0.00    +0.000 A 
ATOM     16  N   UNL     1      45.938   4.457   7.971  0.00  0.00    +0.000 NA
ATOM     17  H   UNL     1      44.559   5.688   9.388  0.00  0.00    +0.000 HD
ENDBRANCH   9  10
ENDBRANCH   6   9
ENDBRANCH   2   3
BRANCH   2  18
ATOM     18  N   UNL     1      47.873   6.518  15.177  0.00  0.00    +0.000 N 
ATOM     19  C   UNL     1      49.032   7.150  15.544  0.00  0.00    +0.000 C 
ATOM     20  O   UNL     1      50.141   6.632  15.435  0.00  0.00    +0.000 OA
ATOM     21  H   UNL     1      46.984   6.925  15.440  0.00  0.00    +0.000 HD
BRANCH  19  22
ATOM     22  C   UNL     1      48.874   8.519  16.050  0.00  0.00    +0.000 A 
ATOM     23  C   UNL     1      49.302   9.604  15.297  0.00  0.00    +0.000 A 
ATOM     24  S   UNL     1      49.013  11.110  16.047  0.00  0.00    +0.000 S 
ATOM     25  C   UNL     1      48.366  10.359  17.432  0.00  0.00    +0.000 A 
ATOM     26  N   UNL     1      47.953  11.092  18.501  0.00  0.00    +0.000 NA
ATOM     27  C   UNL     1      47.522  10.389  19.494  0.00  0.00    +0.000 A 
ATOM     28  N   UNL     1      47.456   9.020  19.513  0.00  0.00    +0.000 N 
ATOM     29  C   UNL     1      47.808   8.243  18.438  0.00  0.00    +0.000 A 
ATOM     30  O   UNL     1      47.643   7.028  18.457  0.00  0.00    +0.000 OA
ATOM     31  C   UNL     1      48.335   8.982  17.307  0.00  0.00    +0.000 A 
ATOM     32  H   UNL     1      47.084   8.529  20.313  0.00  0.00    +0.000 HD
ENDBRANCH  19  22
ENDBRANCH   2  18
TORSDOF 5
ENDMDL
MODEL 4
REMARK VINA RESULT:    -7.701      1.783      2.317
REMARK INTER + INTRA:         -10.334
REMARK INTER:                  -9.632
REMARK INTRA:                  -0.702
REMARK UNBOUND:                -0.382
REMARK  Name = 
REMARK  6 active torsions:
REMARK  status: ('A' for Active; 'I' for Inactive)
REMARK    1  A    between atoms: C_1  and  C_2
REMARK    2  A    between atoms: C_2  and  N_3
REMARK    3  A    between atoms: C_2  and  C_16
REMARK    4  A    between atoms: C_4  and  C_6
REMARK    5  A    between atoms: C_19  and  C_20
REMARK    6  A    between atoms: C_20  and  N_21
REMARK                            x       y       z     vdW  Elec       q    Type
REMARK                         _______ _______ _______ _____ _____    ______ ____
ROOT
ATOM      1  C   UNL     1      49.023   9.376  13.264  0.00  0.00    +0.000 C 
ATOM      2  C   UNL     1      47.584   9.145  13.735  0.00  0.00    +0.000 C 
ENDROOT
BRANCH   2   3
ATOM      3  C   UNL     1      46.817   8.174  12.855  0.00  0.00    +0.000 A 
ATOM      4  C   UNL     1      47.530   7.221  12.112  0.00  0.00    +0.000 A 
ATOM      5  C   UNL     1      46.858   6.225  11.401  0.00  0.00    +0.000 A 
ATOM      6  C   UNL     1      45.458   6.179  11.392  0.00  0.00    +0.000 A 
ATOM      7  C   UNL     1      44.743   7.174  12.065  0.00  0.00    +0.000 A 
ATOM      8  C   UNL     1      45.416   8.172  12.772  0.00  0.00    +0.000 A 
BRANCH   6   9
ATOM      9  C   UNL     1      44.737   5.047  10.703  0.00  0.00    +0.000 C 
BRANCH   9  10
ATOM     10  N   UNL     1      44.896   5.175   9.269  0.00  0.00    +0.000 N 
ATOM     11  C   UNL     1      45.461   4.047   8.690  0.00  0.00    +0.000 A 
ATOM     12  N   UNL     1      45.200   2.835   9.204  0.00  0.00    +0.000 NA
ATOM     13  C   UNL     1      45.780   1.777   8.614  0.00  0.00    +0.000 A 
ATOM     14  C   UNL     1      46.613   1.881   7.531  0.00  0.00    +0.000 A 
ATOM     15  C   UNL     1      46.819   3.159   7.077  0.00  0.00    +0.000 A 
ATOM     16  N   UNL     1      46.265   4.252   7.639  0.00  0.00    +0.000 NA
ATOM     17  H   UNL     1      45.431   5.978   8.960  0.00  0.00    +0.000 HD
ENDBRANCH   9  10
ENDBRANCH   6   9
ENDBRANCH   2   3
BRANCH   2  18
ATOM     18  N   UNL     1      47.566   8.680  15.103  0.00  0.00    +0.000 N 
ATOM     19  C   UNL     1      48.242   9.311  16.114  0.00  0.00    +0.000 C 
ATOM     20  O   UNL     1      48.771  10.413  15.979  0.00  0.00    +0.000 OA
ATOM     21  H   UNL     1      47.295   7.711  15.221  0.00  0.00    +0.000 HD
BRANCH  19  22
ATOM     22  C   UNL     1      48.267   8.603  17.399  0.00  0.00    +0.000 A 
ATOM     23  C   UNL     1      47.876   9.244  18.566  0.00  0.00    +0.000 A 
ATOM     24  S   UNL     1      47.956   8.248  19.950  0.00  0.00    +0.000 S 
ATOM     25  C   UNL     1      48.578   6.946  19.046  0.00  0.00    +0.000 A 
ATOM     26  N   UNL     1      48.914   5.772  19.643  0.00  0.00    +0.000 NA
ATOM     27  C   UNL     1      49.410   4.888  18.842  0.00  0.00    +0.000 A 
ATOM     28  N   UNL     1      49.591   5.069  17.495  0.00  0.00    +0.000 N 
ATOM     29  C   UNL     1      49.215   6.215  16.840  0.00  0.00    +0.000 A 
ATOM     30  O   UNL     1      49.303   6.301  15.620  0.00  0.00    +0.000 OA
ATOM     31  C   UNL     1      48.686   7.255  17.701  0.00  0.00    +0.000 A 
ATOM     32  H   UNL     1      49.961   4.328  16.917  0.00  0.00    +0.000 HD
ENDBRANCH  19  22
ENDBRANCH   2  18
TORSDOF 5
ENDMDL
MODEL 5
REMARK VINA RESULT:    -7.518      2.592      3.321
REMARK INTER + INTRA:         -10.097
REMARK INTER:                  -8.894
REMARK INTRA:                  -1.203
REMARK UNBOUND:                -0.382
REMARK  Name = 
REMARK  6 active torsions:
REMARK  status: ('A' for Active; 'I' for Inactive)
REMARK    1  A    between atoms: C_1  and  C_2
REMARK    2  A    between atoms: C_2  and  N_3
REMARK    3  A    between atoms: C_2  and  C_16
REMARK    4  A    between atoms: C_4  and  C_6
REMARK    5  A    between atoms: C_19  and  C_20
REMARK    6  A    between atoms: C_20  and  N_21
REMARK                            x       y       z     vdW  Elec       q    Type
REMARK                         _______ _______ _______ _____ _____    ______ ____
ROOT
ATOM      1  C   UNL     1      49.355   8.871  13.546  0.00  0.00    +0.000 C 
ATOM      2  C   UNL     1      48.408   7.944  14.316  0.00  0.00    +0.000 C 
ENDROOT
BRANCH   2   3
ATOM      3  C   UNL     1      47.390   7.256  13.423  0.00  0.00    +0.000 A 
ATOM      4  C   UNL     1      47.447   5.862  13.276  0.00  0.00    +0.000 A 
ATOM      5  C   UNL     1      46.450   5.178  12.578  0.00  0.00    +0.000 A 
ATOM      6  C   UNL     1      45.391   5.877  11.986  0.00  0.00    +0.000 A 
ATOM      7  C   UNL     1      45.372   7.273  12.061  0.00  0.00    +0.000 A 
ATOM      8  C   UNL     1      46.373   7.955  12.755  0.00  0.00    +0.000 A 
BRANCH   6   9
ATOM      9  C   UNL     1      44.265   5.129  11.315  0.00  0.00    +0.000 C 
BRANCH   9  10
ATOM     10  N   UNL     1      44.346   5.318   9.882  0.00  0.00    +0.000 N 
ATOM     11  C   UNL     1      44.921   4.237   9.229  0.00  0.00    +0.000 A 
ATOM     12  N   UNL     1      44.732   2.996   9.707  0.00  0.00    +0.000 NA
ATOM     13  C   UNL     1      45.320   1.985   9.047  0.00  0.00    +0.000 A 
ATOM     14  C   UNL     1      46.092   2.163   7.928  0.00  0.00    +0.000 A 
ATOM     15  C   UNL     1      46.227   3.465   7.517  0.00  0.00    +0.000 A 
ATOM     16  N   UNL     1      45.663   4.512   8.149  0.00  0.00    +0.000 NA
ATOM     17  H   UNL     1      44.834   6.153   9.579  0.00  0.00    +0.000 HD
ENDBRANCH   9  10
ENDBRANCH   6   9
ENDBRANCH   2   3
BRANCH   2  18
ATOM     18  N   UNL     1      49.156   6.953  15.053  0.00  0.00    +0.000 N 
ATOM     19  C   UNL     1      49.251   6.956  16.420  0.00  0.00    +0.000 C 
ATOM     20  O   UNL     1      48.573   7.689  17.137  0.00  0.00    +0.000 OA
ATOM     21  H   UNL     1      49.849   6.450  14.511  0.00  0.00    +0.000 HD
BRANCH  19  22
ATOM     22  C   UNL     1      50.198   5.991  16.992  0.00  0.00    +0.000 A 
ATOM     23  C   UNL     1      49.756   4.985  17.840  0.00  0.00    +0.000 A 
ATOM     24  S   UNL     1      51.004   3.955  18.383  0.00  0.00    +0.000 S 
ATOM     25  C   UNL     1      52.187   4.859  17.555  0.00  0.00    +0.000 A 
ATOM     26  N   UNL     1      53.505   4.533  17.635  0.00  0.00    +0.000 NA
ATOM     27  C   UNL     1      54.291   5.328  16.989  0.00  0.00    +0.000 A 
ATOM     28  N   UNL     1      53.879   6.414  16.262  0.00  0.00    +0.000 N 
ATOM     29  C   UNL     1      52.556   6.748  16.107  0.00  0.00    +0.000 A 
ATOM     30  O   UNL     1      52.221   7.668  15.369  0.00  0.00    +0.000 OA
ATOM     31  C   UNL     1      51.632   5.907  16.844  0.00  0.00    +0.000 A 
ATOM     32  H   UNL     1      54.542   6.983  15.756  0.00  0.00    +0.000 HD
ENDBRANCH  19  22
ENDBRANCH   2  18
TORSDOF 5
ENDMDL
MODEL 6
REMARK VINA RESULT:    -7.461      3.033      4.412
REMARK INTER + INTRA:         -10.023
REMARK INTER:                  -8.956
REMARK INTRA:                  -1.068
REMARK UNBOUND:                -0.382
REMARK  Name = 
REMARK  6 active torsions:
REMARK  status: ('A' for Active; 'I' for Inactive)
REMARK    1  A    between atoms: C_1  and  C_2
REMARK    2  A    between atoms: C_2  and  N_3
REMARK    3  A    between atoms: C_2  and  C_16
REMARK    4  A    between atoms: C_4  and  C_6
REMARK    5  A    between atoms: C_19  and  C_20
REMARK    6  A    between atoms: C_20  and  N_21
REMARK                            x       y       z     vdW  Elec       q    Type
REMARK                         _______ _______ _______ _____ _____    ______ ____
ROOT
ATOM      1  C   UNL     1      45.636   9.158  12.463  0.00  0.00    +0.000 C 
ATOM      2  C   UNL     1      46.013   7.852  13.171  0.00  0.00    +0.000 C 
ENDROOT
BRANCH   2   3
ATOM      3  C   UNL     1      45.455   6.618  12.484  0.00  0.00    +0.000 A 
ATOM      4  C   UNL     1      44.410   6.768  11.561  0.00  0.00    +0.000 A 
ATOM      5  C   UNL     1      43.963   5.681  10.807  0.00  0.00    +0.000 A 
ATOM      6  C   UNL     1      44.532   4.414  10.983  0.00  0.00    +0.000 A 
ATOM      7  C   UNL     1      45.519   4.242  11.958  0.00  0.00    +0.000 A 
ATOM      8  C   UNL     1      45.961   5.329  12.714  0.00  0.00    +0.000 A 
BRANCH   6   9
ATOM      9  C   UNL     1      44.116   3.263  10.101  0.00  0.00    +0.000 C 
BRANCH   9  10
ATOM     10  N   UNL     1      45.207   2.315   9.997  0.00  0.00    +0.000 N 
ATOM     11  C   UNL     1      45.836   2.352   8.761  0.00  0.00    +0.000 A 
ATOM     12  N   UNL     1      45.928   3.516   8.099  0.00  0.00    +0.000 NA
ATOM     13  C   UNL     1      46.536   3.498   6.901  0.00  0.00    +0.000 A 
ATOM     14  C   UNL     1      47.053   2.361   6.336  0.00  0.00    +0.000 A 
ATOM     15  C   UNL     1      46.909   1.222   7.087  0.00  0.00    +0.000 A 
ATOM     16  N   UNL     1      46.303   1.189   8.290  0.00  0.00    +0.000 NA
ATOM     17  H   UNL     1      44.964   1.349  10.188  0.00  0.00    +0.000 HD
ENDBRANCH   9  10
ENDBRANCH   6   9
ENDBRANCH   2   3
BRANCH   2  18
ATOM     18  N   UNL     1      47.448   7.736  13.292  0.00  0.00    +0.000 N 
ATOM     19  C   UNL     1      48.172   8.402  14.245  0.00  0.00    +0.000 C 
ATOM     20  O   UNL     1      47.651   9.011  15.178  0.00  0.00    +0.000 OA
ATOM     21  H   UNL     1      47.919   7.393  12.463  0.00  0.00    +0.000 HD
BRANCH  19  22
ATOM     22  C   UNL     1      49.631   8.315  14.109  0.00  0.00    +0.000 A 
ATOM     23  C   UNL     1      50.411   7.846  15.156  0.00  0.00    +0.000 A 
ATOM     24  S   UNL     1      52.079   7.803  14.795  0.00  0.00    +0.000 S 
ATOM     25  C   UNL     1      51.820   8.471  13.250  0.00  0.00    +0.000 A 
ATOM     26  N   UNL     1      52.860   8.740  12.416  0.00  0.00    +0.000 NA
ATOM     27  C   UNL     1      52.518   9.282  11.295  0.00  0.00    +0.000 A 
ATOM     28  N   UNL     1      51.230   9.569  10.926  0.00  0.00    +0.000 N 
ATOM     29  C   UNL     1      50.145   9.264  11.710  0.00  0.00    +0.000 A 
ATOM     30  O   UNL     1      49.002   9.447  11.305  0.00  0.00    +0.000 OA
ATOM     31  C   UNL     1      50.477   8.688  13.000  0.00  0.00    +0.000 A 
ATOM     32  H   UNL     1      51.025   9.970  10.022  0.00  0.00    +0.000 HD
ENDBRANCH  19  22
ENDBRANCH   2  18
TORSDOF 5
ENDMDL
MODEL 7
REMARK VINA RESULT:    -7.151      2.338      3.916
REMARK INTER + INTRA:          -9.624
REMARK INTER:                  -8.639
REMARK INTRA:                  -0.985
REMARK UNBOUND:                -0.382
REMARK  Name = 
REMARK  6 active torsions:
REMARK  status: ('A' for Active; 'I' for Inactive)
REMARK    1  A    between atoms: C_1  and  C_2
REMARK    2  A    between atoms: C_2  and  N_3
REMARK    3  A    between atoms: C_2  and  C_16
REMARK    4  A    between atoms: C_4  and  C_6
REMARK    5  A    between atoms: C_19  and  C_20
REMARK    6  A    between atoms: C_20  and  N_21
REMARK                            x       y       z     vdW  Elec       q    Type
REMARK                         _______ _______ _______ _____ _____    ______ ____
ROOT
ATOM      1  C   UNL     1      47.863   3.244  15.974  0.00  0.00    +0.000 C 
ATOM      2  C   UNL     1      47.823   4.474  15.062  0.00  0.00    +0.000 C 
ENDROOT
BRANCH   2   3
ATOM      3  C   UNL     1      46.698   4.426  14.043  0.00  0.00    +0.000 A 
ATOM      4  C   UNL     1      46.050   5.619  13.689  0.00  0.00    +0.000 A 
ATOM      5  C   UNL     1      45.109   5.639  12.659  0.00  0.00    +0.000 A 
ATOM      6  C   UNL     1      44.772   4.461  11.980  0.00  0.00    +0.000 A 
ATOM      7  C   UNL     1      45.356   3.256  12.382  0.00  0.00    +0.000 A 
ATOM      8  C   UNL     1      46.294   3.237  13.416  0.00  0.00    +0.000 A 
BRANCH   6   9
ATOM      9  C   UNL     1      43.828   4.502  10.804  0.00  0.00    +0.000 C 
BRANCH   9  10
ATOM     10  N   UNL     1      44.444   5.230   9.714  0.00  0.00    +0.000 N 
ATOM     11  C   UNL     1      45.108   4.400   8.822  0.00  0.00    +0.000 A 
ATOM     12  N   UNL     1      44.637   3.166   8.588  0.00  0.00    +0.000 NA
ATOM     13  C   UNL     1      45.323   2.397   7.725  0.00  0.00    +0.000 A 
ATOM     14  C   UNL     1      46.463   2.813   7.088  0.00  0.00    +0.000 A 
ATOM     15  C   UNL     1      46.866   4.089   7.391  0.00  0.00    +0.000 A 
ATOM     16  N   UNL     1      46.216   4.894   8.254  0.00  0.00    +0.000 NA
ATOM     17  H   UNL     1      45.088   5.962   9.989  0.00  0.00    +0.000 HD
ENDBRANCH   9  10
ENDBRANCH   6   9
ENDBRANCH   2   3
BRANCH   2  18
ATOM     18  N   UNL     1      47.718   5.684  15.845  0.00  0.00    +0.000 N 
ATOM     19  C   UNL     1      48.791   6.262  16.469  0.00  0.00    +0.000 C 
ATOM     20  O   UNL     1      49.952   5.905  16.275  0.00  0.00    +0.000 OA
ATOM     21  H   UNL     1      46.782   5.906  16.164  0.00  0.00    +0.000 HD
BRANCH  19  22
ATOM     22  C   UNL     1      48.475   7.377  17.371  0.00  0.00    +0.000 A 
ATOM     23  C   UNL     1      48.057   7.137  18.672  0.00  0.00    +0.000 A 
ATOM     24  S   UNL     1      47.758   8.560  19.565  0.00  0.00    +0.000 S 
ATOM     25  C   UNL     1      48.116   9.545  18.223  0.00  0.00    +0.000 A 
ATOM     26  N   UNL     1      48.013  10.899  18.296  0.00  0.00    +0.000 NA
ATOM     27  C   UNL     1      48.277  11.515  17.192  0.00  0.00    +0.000 A 
ATOM     28  N   UNL     1      48.644  10.900  16.023  0.00  0.00    +0.000 N 
ATOM     29  C   UNL     1      48.815   9.542  15.917  0.00  0.00    +0.000 A 
ATOM     30  O   UNL     1      49.239   9.039  14.882  0.00  0.00    +0.000 OA
ATOM     31  C   UNL     1      48.495   8.799  17.121  0.00  0.00    +0.000 A 
ATOM     32  H   UNL     1      48.863  11.440  15.198  0.00  0.00    +0.000 HD
ENDBRANCH  19  22
ENDBRANCH   2  18
TORSDOF 5
ENDMDL
MODEL 8
REMARK VINA RESULT:    -7.001      3.281      4.677
REMARK INTER + INTRA:          -9.429
REMARK INTER:                  -8.355
REMARK INTRA:                  -1.074
REMARK UNBOUND:                -0.382
REMARK  Name = 
REMARK  6 active torsions:
REMARK  status: ('A' for Active; 'I' for Inactive)
REMARK    1  A    between atoms: C_1  and  C_2
REMARK    2  A    between atoms: C_2  and  N_3
REMARK    3  A    between atoms: C_2  and  C_16
REMARK    4  A    between atoms: C_4  and  C_6
REMARK    5  A    between atoms: C_19  and  C_20
REMARK    6  A    between atoms: C_20  and  N_21
REMARK                            x       y       z     vdW  Elec       q    Type
REMARK                         _______ _______ _______ _____ _____    ______ ____
ROOT
ATOM      1  C   UNL     1      51.646   8.638  15.868  0.00  0.00    +0.000 C 
ATOM      2  C   UNL     1      50.598   7.559  16.157  0.00  0.00    +0.000 C 
ENDROOT
BRANCH   2   3
ATOM      3  C   UNL     1      49.736   7.227  14.952  0.00  0.00    +0.000 A 
ATOM      4  C   UNL     1      48.602   6.420  15.130  0.00  0.00    +0.000 A 
ATOM      5  C   UNL     1      47.709   6.205  14.079  0.00  0.00    +0.000 A 
ATOM      6  C   UNL     1      47.947   6.767  12.818  0.00  0.00    +0.000 A 
ATOM      7  C   UNL     1      49.117   7.505  12.614  0.00  0.00    +0.000 A 
ATOM      8  C   UNL     1      50.011   7.715  13.665  0.00  0.00    +0.000 A 
BRANCH   6   9
ATOM      9  C   UNL     1      46.933   6.614  11.711  0.00  0.00    +0.000 C 
BRANCH   9  10
ATOM     10  N   UNL     1      45.598   6.717  12.262  0.00  0.00    +0.000 N 
ATOM     11  C   UNL     1      44.828   5.589  12.018  0.00  0.00    +0.000 A 
ATOM     12  N   UNL     1      45.415   4.383  11.971  0.00  0.00    +0.000 NA
ATOM     13  C   UNL     1      44.629   3.322  11.720  0.00  0.00    +0.000 A 
ATOM     14  C   UNL     1      43.278   3.420  11.511  0.00  0.00    +0.000 A 
ATOM     15  C   UNL     1      42.769   4.693  11.577  0.00  0.00    +0.000 A 
ATOM     16  N   UNL     1      43.518   5.786  11.820  0.00  0.00    +0.000 NA
ATOM     17  H   UNL     1      45.063   7.524  11.960  0.00  0.00    +0.000 HD
ENDBRANCH   9  10
ENDBRANCH   6   9
ENDBRANCH   2   3
BRANCH   2  18
ATOM     18  N   UNL     1      51.229   6.357  16.650  0.00  0.00    +0.000 N 
ATOM     19  C   UNL     1      51.277   6.032  17.980  0.00  0.00    +0.000 C 
ATOM     20  O   UNL     1      50.643   6.639  18.841  0.00  0.00    +0.000 OA
ATOM     21  H   UNL     1      51.893   5.931  16.014  0.00  0.00    +0.000 HD
BRANCH  19  22
ATOM     22  C   UNL     1      52.114   4.875  18.321  0.00  0.00    +0.000 A 
ATOM     23  C   UNL     1      53.318   5.047  18.989  0.00  0.00    +0.000 A 
ATOM     24  S   UNL     1      54.133   3.581  19.311  0.00  0.00    +0.000 S 
ATOM     25  C   UNL     1      52.934   2.674  18.510  0.00  0.00    +0.000 A 
ATOM     26  N   UNL     1      53.042   1.324  18.382  0.00  0.00    +0.000 NA
ATOM     27  C   UNL     1      52.081   0.773  17.719  0.00  0.00    +0.000 A 
ATOM     28  N   UNL     1      51.016   1.447  17.180  0.00  0.00    +0.000 N 
ATOM     29  C   UNL     1      50.837   2.800  17.332  0.00  0.00    +0.000 A 
ATOM     30  O   UNL     1      49.822   3.352  16.920  0.00  0.00    +0.000 OA
ATOM     31  C   UNL     1      51.909   3.474  18.039  0.00  0.00    +0.000 A 
ATOM     32  H   UNL     1      50.282   0.955  16.693  0.00  0.00    +0.000 HD
ENDBRANCH  19  22
ENDBRANCH   2  18
TORSDOF 5
ENDMDL
MODEL 9
REMARK VINA RESULT:    -6.951      4.816      9.208
REMARK INTER + INTRA:          -9.365
REMARK INTER:                  -8.386
REMARK INTRA:                  -0.979
REMARK UNBOUND:                -0.382
REMARK  Name = 
REMARK  6 active torsions:
REMARK  status: ('A' for Active; 'I' for Inactive)
REMARK    1  A    between atoms: C_1  and  C_2
REMARK    2  A    between atoms: C_2  and  N_3
REMARK    3  A    between atoms: C_2  and  C_16
REMARK    4  A    between atoms: C_4  and  C_6
REMARK    5  A    between atoms: C_19  and  C_20
REMARK    6  A    between atoms: C_20  and  N_21
REMARK                            x       y       z     vdW  Elec       q    Type
REMARK                         _______ _______ _______ _____ _____    ______ ____
ROOT
ATOM      1  C   UNL     1      47.326   3.321  17.509  0.00  0.00    +0.000 C 
ATOM      2  C   UNL     1      48.521   4.226  17.192  0.00  0.00    +0.000 C 
ENDROOT
BRANCH   2   3
ATOM      3  C   UNL     1      49.859   3.526  17.354  0.00  0.00    +0.000 A 
ATOM      4  C   UNL     1      50.964   4.268  17.797  0.00  0.00    +0.000 A 
ATOM      5  C   UNL     1      52.174   3.636  18.091  0.00  0.00    +0.000 A 
ATOM      6  C   UNL     1      52.314   2.253  17.918  0.00  0.00    +0.000 A 
ATOM      7  C   UNL     1      51.241   1.522  17.400  0.00  0.00    +0.000 A 
ATOM      8  C   UNL     1      50.033   2.156  17.102  0.00  0.00    +0.000 A 
BRANCH   6   9
ATOM      9  C   UNL     1      53.590   1.559  18.326  0.00  0.00    +0.000 C 
BRANCH   9  10
ATOM     10  N   UNL     1      53.963   0.597  17.310  0.00  0.00    +0.000 N 
ATOM     11  C   UNL     1      54.268  -0.650  17.837  0.00  0.00    +0.000 A 
ATOM     12  N   UNL     1      53.620  -1.085  18.930  0.00  0.00    +0.000 NA
ATOM     13  C   UNL     1      53.960  -2.294  19.408  0.00  0.00    +0.000 A 
ATOM     14  C   UNL     1      54.923  -3.085  18.839  0.00  0.00    +0.000 A 
ATOM     15  C   UNL     1      55.529  -2.556  17.728  0.00  0.00    +0.000 A 
ATOM     16  N   UNL     1      55.227  -1.347  17.215  0.00  0.00    +0.000 NA
ATOM     17  H   UNL     1      54.733   0.872  16.711  0.00  0.00    +0.000 HD
ENDBRANCH   9  10
ENDBRANCH   6   9
ENDBRANCH   2   3
BRANCH   2  18
ATOM     18  N   UNL     1      48.412   4.763  15.855  0.00  0.00    +0.000 N 
ATOM     19  C   UNL     1      48.397   6.107  15.590  0.00  0.00    +0.000 C 
ATOM     20  O   UNL     1      48.648   6.959  16.440  0.00  0.00    +0.000 OA
ATOM     21  H   UNL     1      48.039   4.119  15.166  0.00  0.00    +0.000 HD
BRANCH  19  22
ATOM     22  C   UNL     1      48.094   6.476  14.202  0.00  0.00    +0.000 A 
ATOM     23  C   UNL     1      48.790   7.501  13.577  0.00  0.00    +0.000 A 
ATOM     24  S   UNL     1      48.306   7.765  11.961  0.00  0.00    +0.000 S 
ATOM     25  C   UNL     1      47.105   6.562  12.065  0.00  0.00    +0.000 A 
ATOM     26  N   UNL     1      46.279   6.300  11.016  0.00  0.00    +0.000 NA
ATOM     27  C   UNL     1      45.392   5.392  11.250  0.00  0.00    +0.000 A 
ATOM     28  N   UNL     1      45.262   4.713  12.434  0.00  0.00    +0.000 N 
ATOM     29  C   UNL     1      46.107   4.904  13.499  0.00  0.00    +0.000 A 
ATOM     30  O   UNL     1      46.020   4.209  14.506  0.00  0.00    +0.000 OA
ATOM     31  C   UNL     1      47.100   5.942  13.302  0.00  0.00    +0.000 A 
ATOM     32  H   UNL     1      44.562   3.993  12.547  0.00  0.00    +0.000 HD
ENDBRANCH  19  22
ENDBRANCH   2  18
TORSDOF 5
ENDMDL
