MODEL 1
REMARK VINA RESULT:    -8.092      0.000      0.000
REMARK INTER + INTRA:         -13.478
REMARK INTER:                 -12.586
REMARK INTRA:                  -0.892
REMARK UNBOUND:                -0.892
REMARK  Name = 
REMARK  10 active torsions:
REMARK  status: ('A' for Active; 'I' for Inactive)
REMARK    1  A    between atoms: N_1  and  C_2
REMARK    2  A    between atoms: C_2  and  C_3
REMARK    3  A    between atoms: C_3  and  N_4
REMARK    4  A    between atoms: C_3  and  C_20
REMARK    5  A    between atoms: N_4  and  C_5
REMARK    6  A    between atoms: C_5  and  C_6
REMARK    7  A    between atoms: C_9  and  C_10
REMARK    8  A    between atoms: C_10  and  N_11
REMARK    9  A    between atoms: N_11  and  C_12
REMARK   10  A    between atoms: C_12  and  C_13
REMARK                            x       y       z     vdW  Elec       q    Type
REMARK                         _______ _______ _______ _____ _____    ______ ____
ROOT
ATOM      1  N   UNL     1      48.085   6.066  16.168  0.00  0.00    +0.000 NA
ATOM      2  H   UNL     1      48.596   6.691  16.791  0.00  0.00    +0.000 HD
ENDROOT
BRANCH   1   3
ATOM      3  C   UNL     1      48.217   4.701  16.714  0.00  0.00    +0.000 C 
BRANCH   3   4
ATOM      4  C   UNL     1      49.583   4.614  17.386  0.00  0.00    +0.000 A 
ATOM      5  C   UNL     1      50.183   5.627  18.123  0.00  0.00    +0.000 A 
ATOM      6  S   UNL     1      51.705   5.195  18.760  0.00  0.00    +0.000 S 
ATOM      7  C   UNL     1      51.596   3.626  18.103  0.00  0.00    +0.000 A 
ATOM      8  N   UNL     1      52.581   2.708  18.299  0.00  0.00    +0.000 NA
ATOM      9  C   UNL     1      52.345   1.560  17.761  0.00  0.00    +0.000 A 
ATOM     10  N   UNL     1      51.222   1.242  17.038  0.00  0.00    +0.000 N 
ATOM     11  C   UNL     1      50.200   2.137  16.813  0.00  0.00    +0.000 A 
ATOM     12  O   UNL     1      49.198   1.824  16.180  0.00  0.00    +0.000 OA
ATOM     13  C   UNL     1      50.424   3.444  17.402  0.00  0.00    +0.000 A 
ATOM     14  H   UNL     1      51.097   0.321  16.651  0.00  0.00    +0.000 HD
ENDBRANCH   3   4
BRANCH   3  15
ATOM     15  C   UNL     1      47.082   4.302  17.708  0.00  0.00    +0.000 C 
BRANCH  15  16
ATOM     16  N   UNL     1      46.691   2.886  17.635  0.00  0.00    +0.000 NA
ATOM     17  H   UNL     1      46.782   2.451  18.549  0.00  0.00    +0.000 HD
ATOM     18  H   UNL     1      47.330   2.412  16.994  0.00  0.00    +0.000 HD
ENDBRANCH  15  16
ENDBRANCH   3  15
ENDBRANCH   1   3
BRANCH   1  19
ATOM     19  C   UNL     1      48.645   6.209  14.825  0.00  0.00    +0.000 C 
BRANCH  19  20
ATOM     20  C   UNL     1      47.581   5.975  13.778  0.00  0.00    +0.000 A 
ATOM     21  C   UNL     1      46.698   4.889  13.880  0.00  0.00    +0.000 A 
ATOM     22  C   UNL     1      45.728   4.669  12.903  0.00  0.00    +0.000 A 
ATOM     23  C   UNL     1      45.598   5.543  11.815  0.00  0.00    +0.000 A 
ATOM     24  C   UNL     1      46.471   6.632  11.716  0.00  0.00    +0.000 A 
ATOM     25  C   UNL     1      47.454   6.845  12.686  0.00  0.00    +0.000 A 
BRANCH  23  26
ATOM     26  C   UNL     1      44.541   5.302  10.764  0.00  0.00    +0.000 C 
BRANCH  26  27
ATOM     27  N   UNL     1      45.146   5.168   9.443  0.00  0.00    +0.000 NA
ATOM     28  H   UNL     1      46.141   4.964   9.547  0.00  0.00    +0.000 HD
BRANCH  27  29
ATOM     29  C   UNL     1      44.542   4.064   8.699  0.00  0.00    +0.000 C 
BRANCH  29  30
ATOM     30  C   UNL     1      45.646   3.265   8.091  0.00  0.00    +0.000 A 
ATOM     31  C   UNL     1      45.985   1.946   8.315  0.00  0.00    +0.000 A 
ATOM     32  N   UNL     1      47.036   1.696   7.479  0.00  0.00    +0.000 N 
ATOM     33  C   UNL     1      47.298   2.847   6.791  0.00  0.00    +0.000 A 
ATOM     34  N   UNL     1      46.480   3.813   7.139  0.00  0.00    +0.000 NA
ATOM     35  H   UNL     1      47.524   0.819   7.374  0.00  0.00    +0.000 HD
ENDBRANCH  29  30
ENDBRANCH  27  29
ENDBRANCH  26  27
ENDBRANCH  23  26
ENDBRANCH  19  20
ENDBRANCH   1  19
TORSDOF 10
ENDMDL
MODEL 2
REMARK VINA RESULT:    -7.458      1.871      2.367
REMARK INTER + INTRA:         -12.493
REMARK INTER:                 -11.454
REMARK INTRA:                  -1.039
REMARK UNBOUND:                -0.892
REMARK  Name = 
REMARK  10 active torsions:
REMARK  status: ('A' for Active; 'I' for Inactive)
REMARK    1  A    between atoms: N_1  and  C_2
REMARK    2  A    between atoms: C_2  and  C_3
REMARK    3  A    between atoms: C_3  and  N_4
REMARK    4  A    between atoms: C_3  and  C_20
REMARK    5  A    between atoms: N_4  and  C_5
REMARK    6  A    between atoms: C_5  and  C_6
REMARK    7  A    between atoms: C_9  and  C_10
REMARK    8  A    between atoms: C_10  and  N_11
REMARK    9  A    between atoms: N_11  and  C_12
REMARK   10  A    between atoms: C_12  and  C_13
REMARK                            x       y       z     vdW  Elec       q    Type
REMARK                         _______ _______ _______ _____ _____    ______ ____
ROOT
ATOM      1  N   UNL     1      47.175   4.938  15.739  0.00  0.00    +0.000 NA
ATOM      2  H   UNL     1      46.854   5.700  16.335  0.00  0.00    +0.000 HD
ENDROOT
BRANCH   1   3
ATOM      3  C   UNL     1      48.232   4.220  16.479  0.00  0.00    +0.000 C 
BRANCH   3   4
ATOM      4  C   UNL     1      48.263   4.794  17.891  0.00  0.00    +0.000 A 
ATOM      5  C   UNL     1      47.185   5.374  18.548  0.00  0.00    +0.000 A 
ATOM      6  S   UNL     1      47.551   5.894  20.130  0.00  0.00    +0.000 S 
ATOM      7  C   UNL     1      49.154   5.329  20.004  0.00  0.00    +0.000 A 
ATOM      8  N   UNL     1      50.026   5.441  21.042  0.00  0.00    +0.000 NA
ATOM      9  C   UNL     1      51.194   4.947  20.804  0.00  0.00    +0.000 A 
ATOM     10  N   UNL     1      51.576   4.356  19.625  0.00  0.00    +0.000 N 
ATOM     11  C   UNL     1      50.729   4.221  18.548  0.00  0.00    +0.000 A 
ATOM     12  O   UNL     1      51.089   3.674  17.511  0.00  0.00    +0.000 OA
ATOM     13  C   UNL     1      49.403   4.765  18.772  0.00  0.00    +0.000 A 
ATOM     14  H   UNL     1      52.504   3.983  19.509  0.00  0.00    +0.000 HD
ENDBRANCH   3   4
BRANCH   3  15
ATOM     15  C   UNL     1      48.045   2.671  16.512  0.00  0.00    +0.000 C 
BRANCH  15  16
ATOM     16  N   UNL     1      49.242   1.914  16.115  0.00  0.00    +0.000 NA
ATOM     17  H   UNL     1      50.076   2.360  16.485  0.00  0.00    +0.000 HD
ATOM     18  H   UNL     1      49.302   1.925  15.095  0.00  0.00    +0.000 HD
ENDBRANCH  15  16
ENDBRANCH   3  15
ENDBRANCH   1   3
BRANCH   1  19
ATOM     19  C   UNL     1      47.641   5.515  14.479  0.00  0.00    +0.000 C 
BRANCH  19  20
ATOM     20  C   UNL     1      46.648   5.246  13.372  0.00  0.00    +0.000 A 
ATOM     21  C   UNL     1      46.061   3.980  13.225  0.00  0.00    +0.000 A 
ATOM     22  C   UNL     1      45.157   3.733  12.193  0.00  0.00    +0.000 A 
ATOM     23  C   UNL     1      44.797   4.750  11.298  0.00  0.00    +0.000 A 
ATOM     24  C   UNL     1      45.374   6.017  11.449  0.00  0.00    +0.000 A 
ATOM     25  C   UNL     1      46.293   6.261  12.474  0.00  0.00    +0.000 A 
BRANCH  23  26
ATOM     26  C   UNL     1      43.814   4.477  10.187  0.00  0.00    +0.000 C 
BRANCH  26  27
ATOM     27  N   UNL     1      44.270   3.372   9.350  0.00  0.00    +0.000 NA
ATOM     28  H   UNL     1      43.460   2.862   8.995  0.00  0.00    +0.000 HD
BRANCH  27  29
ATOM     29  C   UNL     1      45.027   3.862   8.200  0.00  0.00    +0.000 C 
BRANCH  29  30
ATOM     30  C   UNL     1      46.041   2.826   7.845  0.00  0.00    +0.000 A 
ATOM     31  C   UNL     1      46.077   1.492   8.198  0.00  0.00    +0.000 A 
ATOM     32  N   UNL     1      47.184   0.984   7.579  0.00  0.00    +0.000 N 
ATOM     33  C   UNL     1      47.775   2.004   6.889  0.00  0.00    +0.000 A 
ATOM     34  N   UNL     1      47.112   3.130   7.031  0.00  0.00    +0.000 NA
ATOM     35  H   UNL     1      47.504   0.028   7.612  0.00  0.00    +0.000 HD
ENDBRANCH  29  30
ENDBRANCH  27  29
ENDBRANCH  26  27
ENDBRANCH  23  26
ENDBRANCH  19  20
ENDBRANCH   1  19
TORSDOF 10
ENDMDL
MODEL 3
REMARK VINA RESULT:    -7.428      1.908      2.376
REMARK INTER + INTRA:         -12.446
REMARK INTER:                 -11.162
REMARK INTRA:                  -1.284
REMARK UNBOUND:                -0.892
REMARK  Name = 
REMARK  10 active torsions:
REMARK  status: ('A' for Active; 'I' for Inactive)
REMARK    1  A    between atoms: N_1  and  C_2
REMARK    2  A    between atoms: C_2  and  C_3
REMARK    3  A    between atoms: C_3  and  N_4
REMARK    4  A    between atoms: C_3  and  C_20
REMARK    5  A    between atoms: N_4  and  C_5
REMARK    6  A    between atoms: C_5  and  C_6
REMARK    7  A    between atoms: C_9  and  C_10
REMARK    8  A    between atoms: C_10  and  N_11
REMARK    9  A    between atoms: N_11  and  C_12
REMARK   10  A    between atoms: C_12  and  C_13
REMARK                            x       y       z     vdW  Elec       q    Type
REMARK                         _______ _______ _______ _____ _____    ______ ____
ROOT
ATOM      1  N   UNL     1      48.754   6.280  16.698  0.00  0.00    +0.000 NA
ATOM      2  H   UNL     1      49.380   6.728  17.366  0.00  0.00    +0.000 HD
ENDROOT
BRANCH   1   3
ATOM      3  C   UNL     1      48.732   4.839  17.017  0.00  0.00    +0.000 C 
BRANCH   3   4
ATOM      4  C   UNL     1      50.068   4.502  17.671  0.00  0.00    +0.000 A 
ATOM      5  C   UNL     1      50.796   5.350  18.496  0.00  0.00    +0.000 A 
ATOM      6  S   UNL     1      52.238   4.655  19.084  0.00  0.00    +0.000 S 
ATOM      7  C   UNL     1      51.919   3.184  18.285  0.00  0.00    +0.000 A 
ATOM      8  N   UNL     1      52.767   2.124  18.390  0.00  0.00    +0.000 NA
ATOM      9  C   UNL     1      52.379   1.074  17.748  0.00  0.00    +0.000 A 
ATOM     10  N   UNL     1      51.229   0.983  17.005  0.00  0.00    +0.000 N 
ATOM     11  C   UNL     1      50.342   2.028  16.868  0.00  0.00    +0.000 A 
ATOM     12  O   UNL     1      49.312   1.916  16.213  0.00  0.00    +0.000 OA
ATOM     13  C   UNL     1      50.739   3.231  17.574  0.00  0.00    +0.000 A 
ATOM     14  H   UNL     1      50.982   0.128  16.534  0.00  0.00    +0.000 HD
ENDBRANCH   3   4
BRANCH   3  15
ATOM     15  C   UNL     1      47.541   4.407  17.928  0.00  0.00    +0.000 C 
BRANCH  15  16
ATOM     16  N   UNL     1      46.759   3.280  17.399  0.00  0.00    +0.000 NA
ATOM     17  H   UNL     1      47.218   2.889  16.581  0.00  0.00    +0.000 HD
ATOM     18  H   UNL     1      45.845   3.633  17.112  0.00  0.00    +0.000 HD
ENDBRANCH  15  16
ENDBRANCH   3  15
ENDBRANCH   1   3
BRANCH   1  19
ATOM     19  C   UNL     1      49.246   6.568  15.352  0.00  0.00    +0.000 C 
BRANCH  19  20
ATOM     20  C   UNL     1      48.093   6.791  14.400  0.00  0.00    +0.000 A 
ATOM     21  C   UNL     1      47.434   5.706  13.803  0.00  0.00    +0.000 A 
ATOM     22  C   UNL     1      46.381   5.918  12.913  0.00  0.00    +0.000 A 
ATOM     23  C   UNL     1      45.944   7.217  12.620  0.00  0.00    +0.000 A 
ATOM     24  C   UNL     1      46.594   8.301  13.223  0.00  0.00    +0.000 A 
ATOM     25  C   UNL     1      47.660   8.090  14.102  0.00  0.00    +0.000 A 
BRANCH  23  26
ATOM     26  C   UNL     1      44.800   7.439  11.661  0.00  0.00    +0.000 C 
BRANCH  26  27
ATOM     27  N   UNL     1      43.607   6.723  12.102  0.00  0.00    +0.000 NA
ATOM     28  H   UNL     1      42.908   7.395  12.419  0.00  0.00    +0.000 HD
BRANCH  27  29
ATOM     29  C   UNL     1      43.021   5.955  11.006  0.00  0.00    +0.000 C 
BRANCH  29  30
ATOM     30  C   UNL     1      43.424   4.528  11.180  0.00  0.00    +0.000 A 
ATOM     31  C   UNL     1      43.375   3.747  12.317  0.00  0.00    +0.000 A 
ATOM     32  N   UNL     1      43.813   2.514  11.928  0.00  0.00    +0.000 N 
ATOM     33  C   UNL     1      44.112   2.584  10.596  0.00  0.00    +0.000 A 
ATOM     34  N   UNL     1      43.891   3.786  10.115  0.00  0.00    +0.000 NA
ATOM     35  H   UNL     1      43.891   1.693  12.510  0.00  0.00    +0.000 HD
ENDBRANCH  29  30
ENDBRANCH  27  29
ENDBRANCH  26  27
ENDBRANCH  23  26
ENDBRANCH  19  20
ENDBRANCH   1  19
TORSDOF 10
ENDMDL
MODEL 4
REMARK VINA RESULT:    -7.301      1.674      2.552
REMARK INTER + INTRA:         -12.247
REMARK INTER:                 -11.101
REMARK INTRA:                  -1.146
REMARK UNBOUND:                -0.892
REMARK  Name = 
REMARK  10 active torsions:
REMARK  status: ('A' for Active; 'I' for Inactive)
REMARK    1  A    between atoms: N_1  and  C_2
REMARK    2  A    between atoms: C_2  and  C_3
REMARK    3  A    between atoms: C_3  and  N_4
REMARK    4  A    between atoms: C_3  and  C_20
REMARK    5  A    between atoms: N_4  and  C_5
REMARK    6  A    between atoms: C_5  and  C_6
REMARK    7  A    between atoms: C_9  and  C_10
REMARK    8  A    between atoms: C_10  and  N_11
REMARK    9  A    between atoms: N_11  and  C_12
REMARK   10  A    between atoms: C_12  and  C_13
REMARK                            x       y       z     vdW  Elec       q    Type
REMARK                         _______ _______ _______ _____ _____    ______ ____
ROOT
ATOM      1  N   UNL     1      48.210   6.098  14.916  0.00  0.00    +0.000 NA
ATOM      2  H   UNL     1      47.241   5.912  15.173  0.00  0.00    +0.000 HD
ENDROOT
BRANCH   1   3
ATOM      3  C   UNL     1      48.754   7.040  15.914  0.00  0.00    +0.000 C 
BRANCH   3   4
ATOM      4  C   UNL     1      50.189   6.612  16.201  0.00  0.00    +0.000 A 
ATOM      5  C   UNL     1      51.328   7.319  15.836  0.00  0.00    +0.000 A 
ATOM      6  S   UNL     1      52.780   6.575  16.333  0.00  0.00    +0.000 S 
ATOM      7  C   UNL     1      51.934   5.301  17.085  0.00  0.00    +0.000 A 
ATOM      8  N   UNL     1      52.591   4.305  17.739  0.00  0.00    +0.000 NA
ATOM      9  C   UNL     1      51.814   3.427  18.277  0.00  0.00    +0.000 A 
ATOM     10  N   UNL     1      50.443   3.443  18.219  0.00  0.00    +0.000 N 
ATOM     11  C   UNL     1      49.735   4.429  17.569  0.00  0.00    +0.000 A 
ATOM     12  O   UNL     1      48.508   4.432  17.545  0.00  0.00    +0.000 OA
ATOM     13  C   UNL     1      50.569   5.440  16.947  0.00  0.00    +0.000 A 
ATOM     14  H   UNL     1      49.896   2.729  18.669  0.00  0.00    +0.000 HD
ENDBRANCH   3   4
BRANCH   3  15
ATOM     15  C   UNL     1      48.697   8.536  15.474  0.00  0.00    +0.000 C 
BRANCH  15  16
ATOM     16  N   UNL     1      47.472   9.236  15.889  0.00  0.00    +0.000 NA
ATOM     17  H   UNL     1      47.152   8.880  16.785  0.00  0.00    +0.000 HD
ATOM     18  H   UNL     1      46.747   9.048  15.195  0.00  0.00    +0.000 HD
ENDBRANCH  15  16
ENDBRANCH   3  15
ENDBRANCH   1   3
BRANCH   1  19
ATOM     19  C   UNL     1      48.223   6.627  13.553  0.00  0.00    +0.000 C 
BRANCH  19  20
ATOM     20  C   UNL     1      47.062   6.076  12.758  0.00  0.00    +0.000 A 
ATOM     21  C   UNL     1      46.834   6.492  11.438  0.00  0.00    +0.000 A 
ATOM     22  C   UNL     1      45.752   5.992  10.713  0.00  0.00    +0.000 A 
ATOM     23  C   UNL     1      44.888   5.045  11.280  0.00  0.00    +0.000 A 
ATOM     24  C   UNL     1      45.120   4.621  12.594  0.00  0.00    +0.000 A 
ATOM     25  C   UNL     1      46.194   5.134  13.326  0.00  0.00    +0.000 A 
BRANCH  23  26
ATOM     26  C   UNL     1      43.723   4.504  10.488  0.00  0.00    +0.000 C 
BRANCH  26  27
ATOM     27  N   UNL     1      44.116   4.227   9.111  0.00  0.00    +0.000 NA
ATOM     28  H   UNL     1      44.902   4.828   8.858  0.00  0.00    +0.000 HD
BRANCH  27  29
ATOM     29  C   UNL     1      44.550   2.840   8.958  0.00  0.00    +0.000 C 
BRANCH  29  30
ATOM     30  C   UNL     1      45.779   2.837   8.110  0.00  0.00    +0.000 A 
ATOM     31  C   UNL     1      46.406   3.898   7.489  0.00  0.00    +0.000 A 
ATOM     32  N   UNL     1      47.505   3.363   6.880  0.00  0.00    +0.000 N 
ATOM     33  C   UNL     1      47.508   2.022   7.140  0.00  0.00    +0.000 A 
ATOM     34  N   UNL     1      46.479   1.671   7.877  0.00  0.00    +0.000 NA
ATOM     35  H   UNL     1      48.199   3.864   6.345  0.00  0.00    +0.000 HD
ENDBRANCH  29  30
ENDBRANCH  27  29
ENDBRANCH  26  27
ENDBRANCH  23  26
ENDBRANCH  19  20
ENDBRANCH   1  19
TORSDOF 10
ENDMDL
MODEL 5
REMARK VINA RESULT:    -7.105      2.787      3.925
REMARK INTER + INTRA:         -11.942
REMARK INTER:                 -10.739
REMARK INTRA:                  -1.204
REMARK UNBOUND:                -0.892
REMARK  Name = 
REMARK  10 active torsions:
REMARK  status: ('A' for Active; 'I' for Inactive)
REMARK    1  A    between atoms: N_1  and  C_2
REMARK    2  A    between atoms: C_2  and  C_3
REMARK    3  A    between atoms: C_3  and  N_4
REMARK    4  A    between atoms: C_3  and  C_20
REMARK    5  A    between atoms: N_4  and  C_5
REMARK    6  A    between atoms: C_5  and  C_6
REMARK    7  A    between atoms: C_9  and  C_10
REMARK    8  A    between atoms: C_10  and  N_11
REMARK    9  A    between atoms: N_11  and  C_12
REMARK   10  A    between atoms: C_12  and  C_13
REMARK                            x       y       z     vdW  Elec       q    Type
REMARK                         _______ _______ _______ _____ _____    ______ ____
ROOT
ATOM      1  N   UNL     1      48.410   5.937  14.520  0.00  0.00    +0.000 NA
ATOM      2  H   UNL     1      47.719   5.264  14.850  0.00  0.00    +0.000 HD
ENDROOT
BRANCH   1   3
ATOM      3  C   UNL     1      48.812   6.755  15.681  0.00  0.00    +0.000 C 
BRANCH   3   4
ATOM      4  C   UNL     1      48.623   5.896  16.926  0.00  0.00    +0.000 A 
ATOM      5  C   UNL     1      48.815   4.521  16.991  0.00  0.00    +0.000 A 
ATOM      6  S   UNL     1      48.542   3.869  18.543  0.00  0.00    +0.000 S 
ATOM      7  C   UNL     1      48.193   5.407  19.189  0.00  0.00    +0.000 A 
ATOM      8  N   UNL     1      47.892   5.569  20.505  0.00  0.00    +0.000 NA
ATOM      9  C   UNL     1      47.675   6.793  20.849  0.00  0.00    +0.000 A 
ATOM     10  N   UNL     1      47.723   7.872  20.001  0.00  0.00    +0.000 N 
ATOM     11  C   UNL     1      48.022   7.757  18.662  0.00  0.00    +0.000 A 
ATOM     12  O   UNL     1      48.077   8.739  17.928  0.00  0.00    +0.000 OA
ATOM     13  C   UNL     1      48.274   6.395  18.231  0.00  0.00    +0.000 A 
ATOM     14  H   UNL     1      47.550   8.805  20.338  0.00  0.00    +0.000 HD
ENDBRANCH   3   4
BRANCH   3  15
ATOM     15  C   UNL     1      50.272   7.302  15.599  0.00  0.00    +0.000 C 
BRANCH  15  16
ATOM     16  N   UNL     1      50.375   8.761  15.751  0.00  0.00    +0.000 NA
ATOM     17  H   UNL     1      50.326   9.015  16.733  0.00  0.00    +0.000 HD
ATOM     18  H   UNL     1      49.580   9.188  15.272  0.00  0.00    +0.000 HD
ENDBRANCH  15  16
ENDBRANCH   3  15
ENDBRANCH   1   3
BRANCH   1  19
ATOM     19  C   UNL     1      47.804   6.718  13.444  0.00  0.00    +0.000 C 
BRANCH  19  20
ATOM     20  C   UNL     1      46.782   5.891  12.698  0.00  0.00    +0.000 A 
ATOM     21  C   UNL     1      46.386   6.239  11.398  0.00  0.00    +0.000 A 
ATOM     22  C   UNL     1      45.431   5.481  10.720  0.00  0.00    +0.000 A 
ATOM     23  C   UNL     1      44.868   4.343  11.314  0.00  0.00    +0.000 A 
ATOM     24  C   UNL     1      45.269   3.989  12.608  0.00  0.00    +0.000 A 
ATOM     25  C   UNL     1      46.213   4.756  13.294  0.00  0.00    +0.000 A 
BRANCH  23  26
ATOM     26  C   UNL     1      43.839   3.524  10.573  0.00  0.00    +0.000 C 
BRANCH  26  27
ATOM     27  N   UNL     1      44.224   3.351   9.176  0.00  0.00    +0.000 NA
ATOM     28  H   UNL     1      44.850   4.110   8.902  0.00  0.00    +0.000 HD
BRANCH  27  29
ATOM     29  C   UNL     1      44.940   2.092   8.981  0.00  0.00    +0.000 C 
BRANCH  29  30
ATOM     30  C   UNL     1      46.067   2.349   8.037  0.00  0.00    +0.000 A 
ATOM     31  C   UNL     1      46.459   3.540   7.459  0.00  0.00    +0.000 A 
ATOM     32  N   UNL     1      47.565   3.235   6.718  0.00  0.00    +0.000 N 
ATOM     33  C   UNL     1      47.803   1.897   6.863  0.00  0.00    +0.000 A 
ATOM     34  N   UNL     1      46.916   1.333   7.650  0.00  0.00    +0.000 NA
ATOM     35  H   UNL     1      48.118   3.879   6.172  0.00  0.00    +0.000 HD
ENDBRANCH  29  30
ENDBRANCH  27  29
ENDBRANCH  26  27
ENDBRANCH  23  26
ENDBRANCH  19  20
ENDBRANCH   1  19
TORSDOF 10
ENDMDL
MODEL 6
REMARK VINA RESULT:    -7.099      2.444      3.373
REMARK INTER + INTRA:         -11.934
REMARK INTER:                 -10.808
REMARK INTRA:                  -1.126
REMARK UNBOUND:                -0.892
REMARK  Name = 
REMARK  10 active torsions:
REMARK  status: ('A' for Active; 'I' for Inactive)
REMARK    1  A    between atoms: N_1  and  C_2
REMARK    2  A    between atoms: C_2  and  C_3
REMARK    3  A    between atoms: C_3  and  N_4
REMARK    4  A    between atoms: C_3  and  C_20
REMARK    5  A    between atoms: N_4  and  C_5
REMARK    6  A    between atoms: C_5  and  C_6
REMARK    7  A    between atoms: C_9  and  C_10
REMARK    8  A    between atoms: C_10  and  N_11
REMARK    9  A    between atoms: N_11  and  C_12
REMARK   10  A    between atoms: C_12  and  C_13
REMARK                            x       y       z     vdW  Elec       q    Type
REMARK                         _______ _______ _______ _____ _____    ______ ____
ROOT
ATOM      1  N   UNL     1      47.535   5.935  15.268  0.00  0.00    +0.000 NA
ATOM      2  H   UNL     1      47.643   6.890  15.609  0.00  0.00    +0.000 HD
ENDROOT
BRANCH   1   3
ATOM      3  C   UNL     1      48.274   5.054  16.193  0.00  0.00    +0.000 C 
BRANCH   3   4
ATOM      4  C   UNL     1      48.320   5.757  17.545  0.00  0.00    +0.000 A 
ATOM      5  C   UNL     1      47.511   5.460  18.635  0.00  0.00    +0.000 A 
ATOM      6  S   UNL     1      47.836   6.419  20.006  0.00  0.00    +0.000 S 
ATOM      7  C   UNL     1      49.095   7.240  19.202  0.00  0.00    +0.000 A 
ATOM      8  N   UNL     1      49.826   8.201  19.828  0.00  0.00    +0.000 NA
ATOM      9  C   UNL     1      50.757   8.714  19.098  0.00  0.00    +0.000 A 
ATOM     10  N   UNL     1      51.024   8.364  17.798  0.00  0.00    +0.000 N 
ATOM     11  C   UNL     1      50.312   7.399  17.123  0.00  0.00    +0.000 A 
ATOM     12  O   UNL     1      50.581   7.091  15.966  0.00  0.00    +0.000 OA
ATOM     13  C   UNL     1      49.252   6.794  17.907  0.00  0.00    +0.000 A 
ATOM     14  H   UNL     1      51.774   8.800  17.287  0.00  0.00    +0.000 HD
ENDBRANCH   3   4
BRANCH   3  15
ATOM     15  C   UNL     1      47.666   3.623  16.330  0.00  0.00    +0.000 C 
BRANCH  15  16
ATOM     16  N   UNL     1      48.500   2.559  15.752  0.00  0.00    +0.000 NA
ATOM     17  H   UNL     1      48.985   2.055  16.488  0.00  0.00    +0.000 HD
ATOM     18  H   UNL     1      49.201   2.996  15.151  0.00  0.00    +0.000 HD
ENDBRANCH  15  16
ENDBRANCH   3  15
ENDBRANCH   1   3
BRANCH   1  19
ATOM     19  C   UNL     1      48.038   5.886  13.896  0.00  0.00    +0.000 C 
BRANCH  19  20
ATOM     20  C   UNL     1      46.923   5.548  12.933  0.00  0.00    +0.000 A 
ATOM     21  C   UNL     1      46.709   6.320  11.782  0.00  0.00    +0.000 A 
ATOM     22  C   UNL     1      45.669   6.012  10.904  0.00  0.00    +0.000 A 
ATOM     23  C   UNL     1      44.834   4.912  11.142  0.00  0.00    +0.000 A 
ATOM     24  C   UNL     1      45.052   4.135  12.286  0.00  0.00    +0.000 A 
ATOM     25  C   UNL     1      46.083   4.451  13.174  0.00  0.00    +0.000 A 
BRANCH  23  26
ATOM     26  C   UNL     1      43.715   4.582  10.186  0.00  0.00    +0.000 C 
BRANCH  26  27
ATOM     27  N   UNL     1      44.240   4.264   8.862  0.00  0.00    +0.000 NA
ATOM     28  H   UNL     1      45.076   4.825   8.688  0.00  0.00    +0.000 HD
BRANCH  27  29
ATOM     29  C   UNL     1      44.624   2.857   8.774  0.00  0.00    +0.000 C 
BRANCH  29  30
ATOM     30  C   UNL     1      45.881   2.775   7.974  0.00  0.00    +0.000 A 
ATOM     31  C   UNL     1      46.578   3.790   7.350  0.00  0.00    +0.000 A 
ATOM     32  N   UNL     1      47.673   3.189   6.797  0.00  0.00    +0.000 N 
ATOM     33  C   UNL     1      47.606   1.857   7.093  0.00  0.00    +0.000 A 
ATOM     34  N   UNL     1      46.535   1.573   7.799  0.00  0.00    +0.000 NA
ATOM     35  H   UNL     1      48.409   3.643   6.276  0.00  0.00    +0.000 HD
ENDBRANCH  29  30
ENDBRANCH  27  29
ENDBRANCH  26  27
ENDBRANCH  23  26
ENDBRANCH  19  20
ENDBRANCH   1  19
TORSDOF 10
ENDMDL
MODEL 7
REMARK VINA RESULT:    -6.796      2.748      3.811
REMARK INTER + INTRA:         -11.462
REMARK INTER:                 -10.668
REMARK INTRA:                  -0.794
REMARK UNBOUND:                -0.892
REMARK  Name = 
REMARK  10 active torsions:
REMARK  status: ('A' for Active; 'I' for Inactive)
REMARK    1  A    between atoms: N_1  and  C_2
REMARK    2  A    between atoms: C_2  and  C_3
REMARK    3  A    between atoms: C_3  and  N_4
REMARK    4  A    between atoms: C_3  and  C_20
REMARK    5  A    between atoms: N_4  and  C_5
REMARK    6  A    between atoms: C_5  and  C_6
REMARK    7  A    between atoms: C_9  and  C_10
REMARK    8  A    between atoms: C_10  and  N_11
REMARK    9  A    between atoms: N_11  and  C_12
REMARK   10  A    between atoms: C_12  and  C_13
REMARK                            x       y       z     vdW  Elec       q    Type
REMARK                         _______ _______ _______ _____ _____    ______ ____
ROOT
ATOM      1  N   UNL     1      47.280   7.572  14.287  0.00  0.00    +0.000 NA
ATOM      2  H   UNL     1      46.732   7.734  15.132  0.00  0.00    +0.000 HD
ENDROOT
BRANCH   1   3
ATOM      3  C   UNL     1      48.485   8.420  14.377  0.00  0.00    +0.000 C 
BRANCH   3   4
ATOM      4  C   UNL     1      48.760   8.657  15.859  0.00  0.00    +0.000 A 
ATOM      5  C   UNL     1      48.806   9.898  16.480  0.00  0.00    +0.000 A 
ATOM      6  S   UNL     1      49.112   9.809  18.156  0.00  0.00    +0.000 S 
ATOM      7  C   UNL     1      49.158   8.106  18.113  0.00  0.00    +0.000 A 
ATOM      8  N   UNL     1      49.363   7.376  19.242  0.00  0.00    +0.000 NA
ATOM      9  C   UNL     1      49.347   6.100  19.055  0.00  0.00    +0.000 A 
ATOM     10  N   UNL     1      49.154   5.482  17.844  0.00  0.00    +0.000 N 
ATOM     11  C   UNL     1      48.944   6.178  16.675  0.00  0.00    +0.000 A 
ATOM     12  O   UNL     1      48.756   5.603  15.608  0.00  0.00    +0.000 OA
ATOM     13  C   UNL     1      48.954   7.620  16.839  0.00  0.00    +0.000 A 
ATOM     14  H   UNL     1      49.145   4.478  17.770  0.00  0.00    +0.000 HD
ENDBRANCH   3   4
BRANCH   3  15
ATOM     15  C   UNL     1      49.739   7.822  13.667  0.00  0.00    +0.000 C 
BRANCH  15  16
ATOM     16  N   UNL     1      49.479   6.563  12.952  0.00  0.00    +0.000 NA
ATOM     17  H   UNL     1      48.491   6.333  12.997  0.00  0.00    +0.000 HD
ATOM     18  H   UNL     1      50.000   5.819  13.419  0.00  0.00    +0.000 HD
ENDBRANCH  15  16
ENDBRANCH   3  15
ENDBRANCH   1   3
BRANCH   1  19
ATOM     19  C   UNL     1      46.437   7.884  13.135  0.00  0.00    +0.000 C 
BRANCH  19  20
ATOM     20  C   UNL     1      45.828   6.623  12.565  0.00  0.00    +0.000 A 
ATOM     21  C   UNL     1      45.047   6.666  11.400  0.00  0.00    +0.000 A 
ATOM     22  C   UNL     1      44.475   5.502  10.887  0.00  0.00    +0.000 A 
ATOM     23  C   UNL     1      44.690   4.265  11.509  0.00  0.00    +0.000 A 
ATOM     24  C   UNL     1      45.477   4.219  12.666  0.00  0.00    +0.000 A 
ATOM     25  C   UNL     1      46.038   5.387  13.190  0.00  0.00    +0.000 A 
BRANCH  23  26
ATOM     26  C   UNL     1      44.072   3.008  10.945  0.00  0.00    +0.000 C 
BRANCH  26  27
ATOM     27  N   UNL     1      44.991   2.348  10.023  0.00  0.00    +0.000 NA
ATOM     28  H   UNL     1      44.885   1.337  10.110  0.00  0.00    +0.000 HD
BRANCH  27  29
ATOM     29  C   UNL     1      44.693   2.709   8.639  0.00  0.00    +0.000 C 
BRANCH  29  30
ATOM     30  C   UNL     1      45.967   2.637   7.864  0.00  0.00    +0.000 A 
ATOM     31  C   UNL     1      46.640   3.648   7.208  0.00  0.00    +0.000 A 
ATOM     32  N   UNL     1      47.765   3.063   6.700  0.00  0.00    +0.000 N 
ATOM     33  C   UNL     1      47.739   1.743   7.053  0.00  0.00    +0.000 A 
ATOM     34  N   UNL     1      46.666   1.453   7.753  0.00  0.00    +0.000 NA
ATOM     35  H   UNL     1      48.494   3.520   6.172  0.00  0.00    +0.000 HD
ENDBRANCH  29  30
ENDBRANCH  27  29
ENDBRANCH  26  27
ENDBRANCH  23  26
ENDBRANCH  19  20
ENDBRANCH   1  19
TORSDOF 10
ENDMDL
MODEL 8
REMARK VINA RESULT:    -6.128      2.794      4.002
REMARK INTER + INTRA:         -10.423
REMARK INTER:                  -9.063
REMARK INTRA:                  -1.361
REMARK UNBOUND:                -0.892
REMARK  Name = 
REMARK  10 active torsions:
REMARK  status: ('A' for Active; 'I' for Inactive)
REMARK    1  A    between atoms: N_1  and  C_2
REMARK    2  A    between atoms: C_2  and  C_3
REMARK    3  A    between atoms: C_3  and  N_4
REMARK    4  A    between atoms: C_3  and  C_20
REMARK    5  A    between atoms: N_4  and  C_5
REMARK    6  A    between atoms: C_5  and  C_6
REMARK    7  A    between atoms: C_9  and  C_10
REMARK    8  A    between atoms: C_10  and  N_11
REMARK    9  A    between atoms: N_11  and  C_12
REMARK   10  A    between atoms: C_12  and  C_13
REMARK                            x       y       z     vdW  Elec       q    Type
REMARK                         _______ _______ _______ _____ _____    ______ ____
ROOT
ATOM      1  N   UNL     1      50.033   6.843  14.820  0.00  0.00    +0.000 NA
ATOM      2  H   UNL     1      49.473   6.004  14.675  0.00  0.00    +0.000 HD
ENDROOT
BRANCH   1   3
ATOM      3  C   UNL     1      50.409   6.876  16.247  0.00  0.00    +0.000 C 
BRANCH   3   4
ATOM      4  C   UNL     1      49.260   6.252  17.031  0.00  0.00    +0.000 A 
ATOM      5  C   UNL     1      48.545   5.124  16.649  0.00  0.00    +0.000 A 
ATOM      6  S   UNL     1      47.337   4.674  17.766  0.00  0.00    +0.000 S 
ATOM      7  C   UNL     1      47.754   5.950  18.815  0.00  0.00    +0.000 A 
ATOM      8  N   UNL     1      47.109   6.131  20.000  0.00  0.00    +0.000 NA
ATOM      9  C   UNL     1      47.552   7.123  20.695  0.00  0.00    +0.000 A 
ATOM     10  N   UNL     1      48.574   7.958  20.316  0.00  0.00    +0.000 N 
ATOM     11  C   UNL     1      49.255   7.816  19.128  0.00  0.00    +0.000 A 
ATOM     12  O   UNL     1      50.176   8.564  18.820  0.00  0.00    +0.000 OA
ATOM     13  C   UNL     1      48.788   6.710  18.313  0.00  0.00    +0.000 A 
ATOM     14  H   UNL     1      48.876   8.711  20.912  0.00  0.00    +0.000 HD
ENDBRANCH   3   4
BRANCH   3  15
ATOM     15  C   UNL     1      51.757   6.156  16.566  0.00  0.00    +0.000 C 
BRANCH  15  16
ATOM     16  N   UNL     1      52.355   6.546  17.851  0.00  0.00    +0.000 NA
ATOM     17  H   UNL     1      52.617   7.527  17.832  0.00  0.00    +0.000 HD
ATOM     18  H   UNL     1      53.202   5.993  17.989  0.00  0.00    +0.000 HD
ENDBRANCH  15  16
ENDBRANCH   3  15
ENDBRANCH   1   3
BRANCH   1  19
ATOM     19  C   UNL     1      49.236   7.996  14.404  0.00  0.00    +0.000 C 
BRANCH  19  20
ATOM     20  C   UNL     1      48.001   7.547  13.657  0.00  0.00    +0.000 A 
ATOM     21  C   UNL     1      46.892   8.396  13.526  0.00  0.00    +0.000 A 
ATOM     22  C   UNL     1      45.749   7.971  12.849  0.00  0.00    +0.000 A 
ATOM     23  C   UNL     1      45.696   6.698  12.263  0.00  0.00    +0.000 A 
ATOM     24  C   UNL     1      46.806   5.853  12.385  0.00  0.00    +0.000 A 
ATOM     25  C   UNL     1      47.945   6.272  13.077  0.00  0.00    +0.000 A 
BRANCH  23  26
ATOM     26  C   UNL     1      44.459   6.247  11.527  0.00  0.00    +0.000 C 
BRANCH  26  27
ATOM     27  N   UNL     1      44.496   4.809  11.284  0.00  0.00    +0.000 NA
ATOM     28  H   UNL     1      44.017   4.326  12.046  0.00  0.00    +0.000 HD
BRANCH  27  29
ATOM     29  C   UNL     1      43.808   4.469  10.041  0.00  0.00    +0.000 C 
BRANCH  29  30
ATOM     30  C   UNL     1      44.789   3.784   9.148  0.00  0.00    +0.000 A 
ATOM     31  C   UNL     1      45.088   2.440   9.059  0.00  0.00    +0.000 A 
ATOM     32  N   UNL     1      46.015   2.341   8.061  0.00  0.00    +0.000 N 
ATOM     33  C   UNL     1      46.248   3.601   7.588  0.00  0.00    +0.000 A 
ATOM     34  N   UNL     1      45.527   4.496   8.224  0.00  0.00    +0.000 NA
ATOM     35  H   UNL     1      46.443   1.492   7.721  0.00  0.00    +0.000 HD
ENDBRANCH  29  30
ENDBRANCH  27  29
ENDBRANCH  26  27
ENDBRANCH  23  26
ENDBRANCH  19  20
ENDBRANCH   1  19
TORSDOF 10
ENDMDL
MODEL 9
REMARK VINA RESULT:    -5.771      3.011      4.122
REMARK INTER + INTRA:          -9.868
REMARK INTER:                  -8.577
REMARK INTRA:                  -1.292
REMARK UNBOUND:                -0.892
REMARK  Name = 
REMARK  10 active torsions:
REMARK  status: ('A' for Active; 'I' for Inactive)
REMARK    1  A    between atoms: N_1  and  C_2
REMARK    2  A    between atoms: C_2  and  C_3
REMARK    3  A    between atoms: C_3  and  N_4
REMARK    4  A    between atoms: C_3  and  C_20
REMARK    5  A    between atoms: N_4  and  C_5
REMARK    6  A    between atoms: C_5  and  C_6
REMARK    7  A    between atoms: C_9  and  C_10
REMARK    8  A    between atoms: C_10  and  N_11
REMARK    9  A    between atoms: N_11  and  C_12
REMARK   10  A    between atoms: C_12  and  C_13
REMARK                            x       y       z     vdW  Elec       q    Type
REMARK                         _______ _______ _______ _____ _____    ______ ____
ROOT
ATOM      1  N   UNL     1      50.257   7.067  17.978  0.00  0.00    +0.000 NA
ATOM      2  H   UNL     1      50.463   6.417  17.220  0.00  0.00    +0.000 HD
ENDROOT
BRANCH   1   3
ATOM      3  C   UNL     1      49.195   6.456  18.801  0.00  0.00    +0.000 C 
BRANCH   3   4
ATOM      4  C   UNL     1      48.800   5.146  18.128  0.00  0.00    +0.000 A 
ATOM      5  C   UNL     1      47.531   4.833  17.659  0.00  0.00    +0.000 A 
ATOM      6  S   UNL     1      47.434   3.292  16.934  0.00  0.00    +0.000 S 
ATOM      7  C   UNL     1      49.094   3.006  17.190  0.00  0.00    +0.000 A 
ATOM      8  N   UNL     1      49.685   1.853  16.776  0.00  0.00    +0.000 NA
ATOM      9  C   UNL     1      50.951   1.793  17.018  0.00  0.00    +0.000 A 
ATOM     10  N   UNL     1      51.682   2.772  17.643  0.00  0.00    +0.000 N 
ATOM     11  C   UNL     1      51.129   3.955  18.080  0.00  0.00    +0.000 A 
ATOM     12  O   UNL     1      51.807   4.823  18.619  0.00  0.00    +0.000 OA
ATOM     13  C   UNL     1      49.704   4.065  17.827  0.00  0.00    +0.000 A 
ATOM     14  H   UNL     1      52.672   2.664  17.794  0.00  0.00    +0.000 HD
ENDBRANCH   3   4
BRANCH   3  15
ATOM     15  C   UNL     1      49.601   6.216  20.289  0.00  0.00    +0.000 C 
BRANCH  15  16
ATOM     16  N   UNL     1      50.899   6.800  20.657  0.00  0.00    +0.000 NA
ATOM     17  H   UNL     1      51.489   6.887  19.835  0.00  0.00    +0.000 HD
ATOM     18  H   UNL     1      51.360   6.165  21.312  0.00  0.00    +0.000 HD
ENDBRANCH  15  16
ENDBRANCH   3  15
ENDBRANCH   1   3
BRANCH   1  19
ATOM     19  C   UNL     1      49.867   8.345  17.386  0.00  0.00    +0.000 C 
BRANCH  19  20
ATOM     20  C   UNL     1      49.220   8.129  16.037  0.00  0.00    +0.000 A 
ATOM     21  C   UNL     1      49.610   7.062  15.215  0.00  0.00    +0.000 A 
ATOM     22  C   UNL     1      49.020   6.877  13.964  0.00  0.00    +0.000 A 
ATOM     23  C   UNL     1      48.008   7.737  13.517  0.00  0.00    +0.000 A 
ATOM     24  C   UNL     1      47.610   8.797  14.340  0.00  0.00    +0.000 A 
ATOM     25  C   UNL     1      48.212   8.993  15.586  0.00  0.00    +0.000 A 
BRANCH  23  26
ATOM     26  C   UNL     1      47.370   7.527  12.165  0.00  0.00    +0.000 C 
BRANCH  26  27
ATOM     27  N   UNL     1      46.711   6.227  12.099  0.00  0.00    +0.000 NA
ATOM     28  H   UNL     1      46.189   6.070  12.962  0.00  0.00    +0.000 HD
BRANCH  27  29
ATOM     29  C   UNL     1      45.762   6.176  10.990  0.00  0.00    +0.000 C 
BRANCH  29  30
ATOM     30  C   UNL     1      44.461   5.677  11.525  0.00  0.00    +0.000 A 
ATOM     31  C   UNL     1      43.383   5.159  10.836  0.00  0.00    +0.000 A 
ATOM     32  N   UNL     1      42.473   4.814  11.795  0.00  0.00    +0.000 N 
ATOM     33  C   UNL     1      43.014   5.130  13.009  0.00  0.00    +0.000 A 
ATOM     34  N   UNL     1      44.211   5.655  12.881  0.00  0.00    +0.000 NA
ATOM     35  H   UNL     1      41.570   4.390  11.641  0.00  0.00    +0.000 HD
ENDBRANCH  29  30
ENDBRANCH  27  29
ENDBRANCH  26  27
ENDBRANCH  23  26
ENDBRANCH  19  20
ENDBRANCH   1  19
TORSDOF 10
ENDMDL
