MODEL 1
REMARK VINA RESULT:    -7.945      0.000      0.000
REMARK INTER + INTRA:         -12.257
REMARK INTER:                 -11.197
REMARK INTRA:                  -1.060
REMARK UNBOUND:                -1.060
REMARK  Name = 
REMARK  9 active torsions:
REMARK  status: ('A' for Active; 'I' for Inactive)
REMARK    1  A    between atoms: C_1  and  O_2
REMARK    2  A    between atoms: O_2  and  C_3
REMARK    3  A    between atoms: C_5  and  C_6
REMARK    4  A    between atoms: C_11  and  C_12
REMARK    5  A    between atoms: N_14  and  C_15
REMARK    6  A    between atoms: C_15  and  C_16
REMARK    7  A    between atoms: N_20  and  C_21
REMARK    8  A    between atoms: C_21  and  C_22
REMARK    9  A    between atoms: C_22  and  N_23
REMARK                            x       y       z     vdW  Elec       q    Type
REMARK                         _______ _______ _______ _____ _____    ______ ____
ROOT
ATOM      1  C   UNL     1      47.586   7.643  12.860  0.00  0.00    +0.000 C 
ENDROOT
BRANCH   1   2
ATOM      2  C   UNL     1      46.716   6.457  12.572  0.00  0.00    +0.000 A 
ATOM      3  C   UNL     1      46.716   5.337  13.398  0.00  0.00    +0.000 A 
ATOM      4  C   UNL     1      45.914   4.244  13.073  0.00  0.00    +0.000 A 
ATOM      5  C   UNL     1      45.167   4.259  11.899  0.00  0.00    +0.000 A 
ATOM      6  N   UNL     1      44.498   3.087  11.550  0.00  0.00    +0.000 N 
ATOM      7  N   UNL     1      45.161   5.331  11.082  0.00  0.00    +0.000 NA
ATOM      8  C   UNL     1      45.911   6.403  11.441  0.00  0.00    +0.000 A 
ATOM      9  H   UNL     1      43.818   2.804  12.251  0.00  0.00    +0.000 HD
BRANCH   6  10
ATOM     10  C   UNL     1      43.952   3.007  10.202  0.00  0.00    +0.000 C 
BRANCH  10  11
ATOM     11  C   UNL     1      44.631   1.827   9.464  0.00  0.00    +0.000 C 
BRANCH  11  12
ATOM     12  N   UNL     1      45.784   2.225   8.622  0.00  0.00    +0.000 NA
ATOM     13  C   UNL     1      46.345   1.074   7.897  0.00  0.00    +0.000 C 
ATOM     14  C   UNL     1      47.587   1.487   7.115  0.00  0.00    +0.000 C 
ATOM     15  C   UNL     1      47.278   2.614   6.138  0.00  0.00    +0.000 C 
ATOM     16  C   UNL     1      46.581   3.766   6.855  0.00  0.00    +0.000 C 
ATOM     17  C   UNL     1      45.382   3.278   7.674  0.00  0.00    +0.000 C 
ENDBRANCH  11  12
ENDBRANCH  10  11
ENDBRANCH   6  10
ENDBRANCH   1   2
BRANCH   1  20
ATOM     18  C   UNL     1      48.855   7.471  14.950  0.00  0.00    +0.000 C 
ATOM     19  O   UNL     1      49.845   7.044  14.364  0.00  0.00    +0.000 OA
ATOM     20  N   UNL     1      47.726   7.868  14.278  0.00  0.00    +0.000 N 
ATOM     21  H   UNL     1      46.893   8.101  14.805  0.00  0.00    +0.000 HD
BRANCH  18  30
ATOM     22  C   UNL     1      48.755   5.233  17.482  0.00  0.00    +0.000 A 
ATOM     23  N   UNL     1      48.648   4.564  18.646  0.00  0.00    +0.000 NA
ATOM     24  C   UNL     1      48.568   5.264  19.789  0.00  0.00    +0.000 A 
ATOM     25  C   UNL     1      48.446   4.481  21.060  0.00  0.00    +0.000 C 
ATOM     26  N   UNL     1      48.604   6.595  19.894  0.00  0.00    +0.000 NA
ATOM     27  C   UNL     1      48.710   7.224  18.712  0.00  0.00    +0.000 A 
ATOM     28  S   UNL     1      48.813   8.920  18.656  0.00  0.00    +0.000 S 
ATOM     29  C   UNL     1      48.926   8.910  16.956  0.00  0.00    +0.000 A 
ATOM     30  C   UNL     1      48.837   7.639  16.409  0.00  0.00    +0.000 A 
ATOM     31  C   UNL     1      48.763   6.635  17.457  0.00  0.00    +0.000 A 
BRANCH  22  33
ATOM     32  C   UNL     1      48.004   3.363  16.282  0.00  0.00    +0.000 C 
ATOM     33  O   UNL     1      48.838   4.518  16.304  0.00  0.00    +0.000 OA
ENDBRANCH  22  33
ENDBRANCH  18  30
ENDBRANCH   1  20
TORSDOF 7
ENDMDL
MODEL 2
REMARK VINA RESULT:    -7.597      2.239      2.371
REMARK INTER + INTRA:         -11.766
REMARK INTER:                 -10.811
REMARK INTRA:                  -0.955
REMARK UNBOUND:                -1.060
REMARK  Name = 
REMARK  9 active torsions:
REMARK  status: ('A' for Active; 'I' for Inactive)
REMARK    1  A    between atoms: C_1  and  O_2
REMARK    2  A    between atoms: O_2  and  C_3
REMARK    3  A    between atoms: C_5  and  C_6
REMARK    4  A    between atoms: C_11  and  C_12
REMARK    5  A    between atoms: N_14  and  C_15
REMARK    6  A    between atoms: C_15  and  C_16
REMARK    7  A    between atoms: N_20  and  C_21
REMARK    8  A    between atoms: C_21  and  C_22
REMARK    9  A    between atoms: C_22  and  N_23
REMARK                            x       y       z     vdW  Elec       q    Type
REMARK                         _______ _______ _______ _____ _____    ______ ____
ROOT
ATOM      1  C   UNL     1      47.700   7.399  13.662  0.00  0.00    +0.000 C 
ENDROOT
BRANCH   1   2
ATOM      2  C   UNL     1      46.887   6.229  13.198  0.00  0.00    +0.000 A 
ATOM      3  C   UNL     1      47.075   4.955  13.727  0.00  0.00    +0.000 A 
ATOM      4  C   UNL     1      46.317   3.891  13.242  0.00  0.00    +0.000 A 
ATOM      5  C   UNL     1      45.423   4.098  12.195  0.00  0.00    +0.000 A 
ATOM      6  N   UNL     1      44.800   2.976  11.653  0.00  0.00    +0.000 N 
ATOM      7  N   UNL     1      45.233   5.322  11.664  0.00  0.00    +0.000 NA
ATOM      8  C   UNL     1      45.946   6.353  12.183  0.00  0.00    +0.000 A 
ATOM      9  H   UNL     1      44.240   2.474  12.338  0.00  0.00    +0.000 HD
BRANCH   6  10
ATOM     10  C   UNL     1      44.089   3.151  10.394  0.00  0.00    +0.000 C 
BRANCH  10  11
ATOM     11  C   UNL     1      44.500   2.009   9.432  0.00  0.00    +0.000 C 
BRANCH  11  12
ATOM     12  N   UNL     1      45.708   2.305   8.626  0.00  0.00    +0.000 NA
ATOM     13  C   UNL     1      46.235   1.092   7.981  0.00  0.00    +0.000 C 
ATOM     14  C   UNL     1      47.531   1.402   7.237  0.00  0.00    +0.000 C 
ATOM     15  C   UNL     1      47.326   2.496   6.198  0.00  0.00    +0.000 C 
ATOM     16  C   UNL     1      46.664   3.715   6.829  0.00  0.00    +0.000 C 
ATOM     17  C   UNL     1      45.406   3.332   7.614  0.00  0.00    +0.000 C 
ENDBRANCH  11  12
ENDBRANCH  10  11
ENDBRANCH   6  10
ENDBRANCH   1   2
BRANCH   1  20
ATOM     18  C   UNL     1      49.323   7.306  15.496  0.00  0.00    +0.000 C 
ATOM     19  O   UNL     1      48.535   7.832  16.277  0.00  0.00    +0.000 OA
ATOM     20  N   UNL     1      48.967   6.982  14.211  0.00  0.00    +0.000 N 
ATOM     21  H   UNL     1      49.680   6.660  13.567  0.00  0.00    +0.000 HD
BRANCH  18  30
ATOM     22  C   UNL     1      50.499   4.787  17.420  0.00  0.00    +0.000 A 
ATOM     23  N   UNL     1      51.201   3.935  18.191  0.00  0.00    +0.000 NA
ATOM     24  C   UNL     1      52.527   4.115  18.310  0.00  0.00    +0.000 A 
ATOM     25  C   UNL     1      53.269   3.147  19.180  0.00  0.00    +0.000 C 
ATOM     26  N   UNL     1      53.243   5.067  17.707  0.00  0.00    +0.000 NA
ATOM     27  C   UNL     1      52.506   5.895  16.949  0.00  0.00    +0.000 A 
ATOM     28  S   UNL     1      53.257   7.143  16.074  0.00  0.00    +0.000 S 
ATOM     29  C   UNL     1      51.766   7.663  15.432  0.00  0.00    +0.000 A 
ATOM     30  C   UNL     1      50.683   6.938  15.908  0.00  0.00    +0.000 A 
ATOM     31  C   UNL     1      51.131   5.854  16.766  0.00  0.00    +0.000 A 
BRANCH  22  33
ATOM     32  C   UNL     1      48.688   3.333  17.750  0.00  0.00    +0.000 C 
ATOM     33  O   UNL     1      49.136   4.607  17.295  0.00  0.00    +0.000 OA
ENDBRANCH  22  33
ENDBRANCH  18  30
ENDBRANCH   1  20
TORSDOF 7
ENDMDL
MODEL 3
REMARK VINA RESULT:    -7.468      1.567      2.605
REMARK INTER + INTRA:         -11.584
REMARK INTER:                 -10.425
REMARK INTRA:                  -1.159
REMARK UNBOUND:                -1.060
REMARK  Name = 
REMARK  9 active torsions:
REMARK  status: ('A' for Active; 'I' for Inactive)
REMARK    1  A    between atoms: C_1  and  O_2
REMARK    2  A    between atoms: O_2  and  C_3
REMARK    3  A    between atoms: C_5  and  C_6
REMARK    4  A    between atoms: C_11  and  C_12
REMARK    5  A    between atoms: N_14  and  C_15
REMARK    6  A    between atoms: C_15  and  C_16
REMARK    7  A    between atoms: N_20  and  C_21
REMARK    8  A    between atoms: C_21  and  C_22
REMARK    9  A    between atoms: C_22  and  N_23
REMARK                            x       y       z     vdW  Elec       q    Type
REMARK                         _______ _______ _______ _____ _____    ______ ____
ROOT
ATOM      1  C   UNL     1      47.651   7.180  13.243  0.00  0.00    +0.000 C 
ENDROOT
BRANCH   1   2
ATOM      2  C   UNL     1      46.749   6.086  12.758  0.00  0.00    +0.000 A 
ATOM      3  C   UNL     1      46.507   4.949  13.523  0.00  0.00    +0.000 A 
ATOM      4  C   UNL     1      45.687   3.943  13.017  0.00  0.00    +0.000 A 
ATOM      5  C   UNL     1      45.164   4.056  11.732  0.00  0.00    +0.000 A 
ATOM      6  N   UNL     1      44.472   2.959  11.223  0.00  0.00    +0.000 N 
ATOM      7  N   UNL     1      45.394   5.146  10.973  0.00  0.00    +0.000 NA
ATOM      8  C   UNL     1      46.156   6.135  11.503  0.00  0.00    +0.000 A 
ATOM      9  H   UNL     1      43.656   2.721  11.783  0.00  0.00    +0.000 HD
BRANCH   6  10
ATOM     10  C   UNL     1      44.169   2.964   9.799  0.00  0.00    +0.000 C 
BRANCH  10  11
ATOM     11  C   UNL     1      44.927   1.792   9.129  0.00  0.00    +0.000 C 
BRANCH  11  12
ATOM     12  N   UNL     1      46.060   2.217   8.274  0.00  0.00    +0.000 NA
ATOM     13  C   UNL     1      46.699   1.067   7.614  0.00  0.00    +0.000 C 
ATOM     14  C   UNL     1      47.921   1.516   6.818  0.00  0.00    +0.000 C 
ATOM     15  C   UNL     1      47.551   2.570   5.783  0.00  0.00    +0.000 C 
ATOM     16  C   UNL     1      46.777   3.711   6.433  0.00  0.00    +0.000 C 
ATOM     17  C   UNL     1      45.603   3.193   7.269  0.00  0.00    +0.000 C 
ENDBRANCH  11  12
ENDBRANCH  10  11
ENDBRANCH   6  10
ENDBRANCH   1   2
BRANCH   1  20
ATOM     18  C   UNL     1      48.865   6.874  15.350  0.00  0.00    +0.000 C 
ATOM     19  O   UNL     1      49.920   6.662  14.760  0.00  0.00    +0.000 OA
ATOM     20  N   UNL     1      47.715   7.218  14.684  0.00  0.00    +0.000 N 
ATOM     21  H   UNL     1      46.843   7.266  15.196  0.00  0.00    +0.000 HD
BRANCH  18  30
ATOM     22  C   UNL     1      48.073   9.229  17.642  0.00  0.00    +0.000 A 
ATOM     23  N   UNL     1      47.868   9.986  18.737  0.00  0.00    +0.000 NA
ATOM     24  C   UNL     1      48.025   9.427  19.948  0.00  0.00    +0.000 A 
ATOM     25  C   UNL     1      47.791  10.305  21.139  0.00  0.00    +0.000 C 
ATOM     26  N   UNL     1      48.353   8.154  20.184  0.00  0.00    +0.000 NA
ATOM     27  C   UNL     1      48.549   7.434  19.067  0.00  0.00    +0.000 A 
ATOM     28  S   UNL     1      48.933   5.782  19.176  0.00  0.00    +0.000 S 
ATOM     29  C   UNL     1      48.996   5.630  17.480  0.00  0.00    +0.000 A 
ATOM     30  C   UNL     1      48.780   6.828  16.815  0.00  0.00    +0.000 A 
ATOM     31  C   UNL     1      48.461   7.887  17.758  0.00  0.00    +0.000 A 
BRANCH  22  33
ATOM     32  C   UNL     1      49.067  10.498  15.939  0.00  0.00    +0.000 C 
ATOM     33  O   UNL     1      47.913   9.799  16.395  0.00  0.00    +0.000 OA
ENDBRANCH  22  33
ENDBRANCH  18  30
ENDBRANCH   1  20
TORSDOF 7
ENDMDL
MODEL 4
REMARK VINA RESULT:    -7.421      1.414      1.889
REMARK INTER + INTRA:         -11.517
REMARK INTER:                 -10.545
REMARK INTRA:                  -0.972
REMARK UNBOUND:                -1.060
REMARK  Name = 
REMARK  9 active torsions:
REMARK  status: ('A' for Active; 'I' for Inactive)
REMARK    1  A    between atoms: C_1  and  O_2
REMARK    2  A    between atoms: O_2  and  C_3
REMARK    3  A    between atoms: C_5  and  C_6
REMARK    4  A    between atoms: C_11  and  C_12
REMARK    5  A    between atoms: N_14  and  C_15
REMARK    6  A    between atoms: C_15  and  C_16
REMARK    7  A    between atoms: N_20  and  C_21
REMARK    8  A    between atoms: C_21  and  C_22
REMARK    9  A    between atoms: C_22  and  N_23
REMARK                            x       y       z     vdW  Elec       q    Type
REMARK                         _______ _______ _______ _____ _____    ______ ____
ROOT
ATOM      1  C   UNL     1      46.268   8.456  12.456  0.00  0.00    +0.000 C 
ENDROOT
BRANCH   1   2
ATOM      2  C   UNL     1      45.530   7.242  11.980  0.00  0.00    +0.000 A 
ATOM      3  C   UNL     1      44.351   6.822  12.589  0.00  0.00    +0.000 A 
ATOM      4  C   UNL     1      43.716   5.668  12.132  0.00  0.00    +0.000 A 
ATOM      5  C   UNL     1      44.294   4.916  11.113  0.00  0.00    +0.000 A 
ATOM      6  N   UNL     1      43.695   3.699  10.796  0.00  0.00    +0.000 N 
ATOM      7  N   UNL     1      45.440   5.303  10.517  0.00  0.00    +0.000 NA
ATOM      8  C   UNL     1      46.016   6.454  10.944  0.00  0.00    +0.000 A 
ATOM      9  H   UNL     1      42.733   3.810  10.482  0.00  0.00    +0.000 HD
BRANCH   6  10
ATOM     10  C   UNL     1      44.443   2.791   9.938  0.00  0.00    +0.000 C 
BRANCH  10  11
ATOM     11  C   UNL     1      44.447   3.362   8.499  0.00  0.00    +0.000 C 
BRANCH  11  12
ATOM     12  N   UNL     1      45.370   2.662   7.575  0.00  0.00    +0.000 NA
ATOM     13  C   UNL     1      46.272   3.606   6.896  0.00  0.00    +0.000 C 
ATOM     14  C   UNL     1      47.145   2.876   5.880  0.00  0.00    +0.000 C 
ATOM     15  C   UNL     1      47.955   1.768   6.540  0.00  0.00    +0.000 C 
ATOM     16  C   UNL     1      47.046   0.852   7.352  0.00  0.00    +0.000 C 
ATOM     17  C   UNL     1      46.150   1.647   8.305  0.00  0.00    +0.000 C 
ENDBRANCH  11  12
ENDBRANCH  10  11
ENDBRANCH   6  10
ENDBRANCH   1   2
BRANCH   1  20
ATOM     18  C   UNL     1      48.170   8.535  14.001  0.00  0.00    +0.000 C 
ATOM     19  O   UNL     1      48.872   9.109  13.174  0.00  0.00    +0.000 OA
ATOM     20  N   UNL     1      46.849   8.248  13.760  0.00  0.00    +0.000 N 
ATOM     21  H   UNL     1      46.342   7.669  14.419  0.00  0.00    +0.000 HD
BRANCH  18  30
ATOM     22  C   UNL     1      48.330   5.574  15.625  0.00  0.00    +0.000 A 
ATOM     23  N   UNL     1      48.444   4.554  16.497  0.00  0.00    +0.000 NA
ATOM     24  C   UNL     1      48.938   4.801  17.721  0.00  0.00    +0.000 A 
ATOM     25  C   UNL     1      49.044   3.638  18.660  0.00  0.00    +0.000 C 
ATOM     26  N   UNL     1      49.359   5.987  18.168  0.00  0.00    +0.000 NA
ATOM     27  C   UNL     1      49.228   6.977  17.270  0.00  0.00    +0.000 A 
ATOM     28  S   UNL     1      49.751   8.548  17.652  0.00  0.00    +0.000 S 
ATOM     29  C   UNL     1      49.285   9.134  16.122  0.00  0.00    +0.000 A 
ATOM     30  C   UNL     1      48.684   8.169  15.326  0.00  0.00    +0.000 A 
ATOM     31  C   UNL     1      48.701   6.876  15.990  0.00  0.00    +0.000 A 
BRANCH  22  33
ATOM     32  C   UNL     1      46.658   4.505  14.376  0.00  0.00    +0.000 C 
ATOM     33  O   UNL     1      47.823   5.325  14.366  0.00  0.00    +0.000 OA
ENDBRANCH  22  33
ENDBRANCH  18  30
ENDBRANCH   1  20
TORSDOF 7
ENDMDL
MODEL 5
REMARK VINA RESULT:    -7.034      1.667      3.340
REMARK INTER + INTRA:         -10.972
REMARK INTER:                  -9.801
REMARK INTRA:                  -1.172
REMARK UNBOUND:                -1.060
REMARK  Name = 
REMARK  9 active torsions:
REMARK  status: ('A' for Active; 'I' for Inactive)
REMARK    1  A    between atoms: C_1  and  O_2
REMARK    2  A    between atoms: O_2  and  C_3
REMARK    3  A    between atoms: C_5  and  C_6
REMARK    4  A    between atoms: C_11  and  C_12
REMARK    5  A    between atoms: N_14  and  C_15
REMARK    6  A    between atoms: C_15  and  C_16
REMARK    7  A    between atoms: N_20  and  C_21
REMARK    8  A    between atoms: C_21  and  C_22
REMARK    9  A    between atoms: C_22  and  N_23
REMARK                            x       y       z     vdW  Elec       q    Type
REMARK                         _______ _______ _______ _____ _____    ______ ____
ROOT
ATOM      1  C   UNL     1      47.278   4.073  15.619  0.00  0.00    +0.000 C 
ENDROOT
BRANCH   1   2
ATOM      2  C   UNL     1      46.741   4.341  14.246  0.00  0.00    +0.000 A 
ATOM      3  C   UNL     1      46.544   5.638  13.781  0.00  0.00    +0.000 A 
ATOM      4  C   UNL     1      46.012   5.838  12.508  0.00  0.00    +0.000 A 
ATOM      5  C   UNL     1      45.630   4.744  11.738  0.00  0.00    +0.000 A 
ATOM      6  N   UNL     1      44.972   5.004  10.537  0.00  0.00    +0.000 N 
ATOM      7  N   UNL     1      45.805   3.480  12.174  0.00  0.00    +0.000 NA
ATOM      8  C   UNL     1      46.368   3.307  13.396  0.00  0.00    +0.000 A 
ATOM      9  H   UNL     1      45.539   5.551   9.894  0.00  0.00    +0.000 HD
BRANCH   6  10
ATOM     10  C   UNL     1      44.329   3.879   9.872  0.00  0.00    +0.000 C 
BRANCH  10  11
ATOM     11  C   UNL     1      44.446   4.079   8.341  0.00  0.00    +0.000 C 
BRANCH  11  12
ATOM     12  N   UNL     1      45.246   3.036   7.656  0.00  0.00    +0.000 NA
ATOM     13  C   UNL     1      46.402   3.617   6.955  0.00  0.00    +0.000 C 
ATOM     14  C   UNL     1      47.154   2.540   6.178  0.00  0.00    +0.000 C 
ATOM     15  C   UNL     1      47.614   1.414   7.095  0.00  0.00    +0.000 C 
ATOM     16  C   UNL     1      46.446   0.886   7.921  0.00  0.00    +0.000 C 
ATOM     17  C   UNL     1      45.693   2.019   8.624  0.00  0.00    +0.000 C 
ENDBRANCH  11  12
ENDBRANCH  10  11
ENDBRANCH   6  10
ENDBRANCH   1   2
BRANCH   1  20
ATOM     18  C   UNL     1      48.191   5.273  17.551  0.00  0.00    +0.000 C 
ATOM     19  O   UNL     1      48.368   4.228  18.170  0.00  0.00    +0.000 OA
ATOM     20  N   UNL     1      47.734   5.284  16.257  0.00  0.00    +0.000 N 
ATOM     21  H   UNL     1      47.489   6.168  15.827  0.00  0.00    +0.000 HD
BRANCH  18  30
ATOM     22  C   UNL     1      50.110   7.833  16.460  0.00  0.00    +0.000 A 
ATOM     23  N   UNL     1      50.856   8.942  16.290  0.00  0.00    +0.000 NA
ATOM     24  C   UNL     1      50.869   9.868  17.262  0.00  0.00    +0.000 A 
ATOM     25  C   UNL     1      51.715  11.083  17.033  0.00  0.00    +0.000 C 
ATOM     26  N   UNL     1      50.180   9.810  18.405  0.00  0.00    +0.000 NA
ATOM     27  C   UNL     1      49.451   8.690  18.536  0.00  0.00    +0.000 A 
ATOM     28  S   UNL     1      48.477   8.464  19.911  0.00  0.00    +0.000 S 
ATOM     29  C   UNL     1      47.931   6.954  19.342  0.00  0.00    +0.000 A 
ATOM     30  C   UNL     1      48.512   6.579  18.139  0.00  0.00    +0.000 A 
ATOM     31  C   UNL     1      49.373   7.637  17.636  0.00  0.00    +0.000 A 
BRANCH  22  33
ATOM     32  C   UNL     1      49.821   7.412  14.171  0.00  0.00    +0.000 C 
ATOM     33  O   UNL     1      50.094   6.878  15.463  0.00  0.00    +0.000 OA
ENDBRANCH  22  33
ENDBRANCH  18  30
ENDBRANCH   1  20
TORSDOF 7
ENDMDL
MODEL 6
REMARK VINA RESULT:    -6.769      3.010      4.176
REMARK INTER + INTRA:         -10.600
REMARK INTER:                  -9.531
REMARK INTRA:                  -1.069
REMARK UNBOUND:                -1.060
REMARK  Name = 
REMARK  9 active torsions:
REMARK  status: ('A' for Active; 'I' for Inactive)
REMARK    1  A    between atoms: C_1  and  O_2
REMARK    2  A    between atoms: O_2  and  C_3
REMARK    3  A    between atoms: C_5  and  C_6
REMARK    4  A    between atoms: C_11  and  C_12
REMARK    5  A    between atoms: N_14  and  C_15
REMARK    6  A    between atoms: C_15  and  C_16
REMARK    7  A    between atoms: N_20  and  C_21
REMARK    8  A    between atoms: C_21  and  C_22
REMARK    9  A    between atoms: C_22  and  N_23
REMARK                            x       y       z     vdW  Elec       q    Type
REMARK                         _______ _______ _______ _____ _____    ______ ____
ROOT
ATOM      1  C   UNL     1      47.181   4.729  16.027  0.00  0.00    +0.000 C 
ENDROOT
BRANCH   1   2
ATOM      2  C   UNL     1      46.828   4.805  14.573  0.00  0.00    +0.000 A 
ATOM      3  C   UNL     1      47.025   5.969  13.835  0.00  0.00    +0.000 A 
ATOM      4  C   UNL     1      46.652   6.002  12.493  0.00  0.00    +0.000 A 
ATOM      5  C   UNL     1      46.035   4.895  11.917  0.00  0.00    +0.000 A 
ATOM      6  N   UNL     1      45.553   5.033  10.618  0.00  0.00    +0.000 N 
ATOM      7  N   UNL     1      45.829   3.762  12.618  0.00  0.00    +0.000 NA
ATOM      8  C   UNL     1      46.242   3.734  13.910  0.00  0.00    +0.000 A 
ATOM      9  H   UNL     1      46.290   5.257   9.952  0.00  0.00    +0.000 HD
BRANCH   6  10
ATOM     10  C   UNL     1      44.672   3.987  10.118  0.00  0.00    +0.000 C 
BRANCH  10  11
ATOM     11  C   UNL     1      44.537   4.145   8.584  0.00  0.00    +0.000 C 
BRANCH  11  12
ATOM     12  N   UNL     1      45.286   3.131   7.805  0.00  0.00    +0.000 NA
ATOM     13  C   UNL     1      46.448   3.723   7.124  0.00  0.00    +0.000 C 
ATOM     14  C   UNL     1      47.146   2.684   6.252  0.00  0.00    +0.000 C 
ATOM     15  C   UNL     1      47.584   1.477   7.072  0.00  0.00    +0.000 C 
ATOM     16  C   UNL     1      46.415   0.928   7.881  0.00  0.00    +0.000 C 
ATOM     17  C   UNL     1      45.716   2.029   8.684  0.00  0.00    +0.000 C 
ENDBRANCH  11  12
ENDBRANCH  10  11
ENDBRANCH   6  10
ENDBRANCH   1   2
BRANCH   1  20
ATOM     18  C   UNL     1      48.774   3.330  17.256  0.00  0.00    +0.000 C 
ATOM     19  O   UNL     1      47.884   2.859  17.958  0.00  0.00    +0.000 OA
ATOM     20  N   UNL     1      48.506   4.197  16.226  0.00  0.00    +0.000 N 
ATOM     21  H   UNL     1      49.276   4.652  15.751  0.00  0.00    +0.000 HD
BRANCH  18  30
ATOM     22  C   UNL     1      51.531   5.145  17.988  0.00  0.00    +0.000 A 
ATOM     23  N   UNL     1      52.766   5.639  18.196  0.00  0.00    +0.000 NA
ATOM     24  C   UNL     1      53.812   4.798  18.166  0.00  0.00    +0.000 A 
ATOM     25  C   UNL     1      55.169   5.390  18.399  0.00  0.00    +0.000 C 
ATOM     26  N   UNL     1      53.749   3.479  17.964  0.00  0.00    +0.000 NA
ATOM     27  C   UNL     1      52.501   3.027  17.759  0.00  0.00    +0.000 A 
ATOM     28  S   UNL     1      52.225   1.366  17.526  0.00  0.00    +0.000 S 
ATOM     29  C   UNL     1      50.546   1.613  17.368  0.00  0.00    +0.000 A 
ATOM     30  C   UNL     1      50.181   2.949  17.438  0.00  0.00    +0.000 A 
ATOM     31  C   UNL     1      51.337   3.782  17.724  0.00  0.00    +0.000 A 
BRANCH  22  33
ATOM     32  C   UNL     1      50.551   7.072  17.079  0.00  0.00    +0.000 C 
ATOM     33  O   UNL     1      50.452   6.006  18.018  0.00  0.00    +0.000 OA
ENDBRANCH  22  33
ENDBRANCH  18  30
ENDBRANCH   1  20
TORSDOF 7
ENDMDL
MODEL 7
REMARK VINA RESULT:    -6.618      3.141      4.271
REMARK INTER + INTRA:         -10.386
REMARK INTER:                  -9.235
REMARK INTRA:                  -1.150
REMARK UNBOUND:                -1.060
REMARK  Name = 
REMARK  9 active torsions:
REMARK  status: ('A' for Active; 'I' for Inactive)
REMARK    1  A    between atoms: C_1  and  O_2
REMARK    2  A    between atoms: O_2  and  C_3
REMARK    3  A    between atoms: C_5  and  C_6
REMARK    4  A    between atoms: C_11  and  C_12
REMARK    5  A    between atoms: N_14  and  C_15
REMARK    6  A    between atoms: C_15  and  C_16
REMARK    7  A    between atoms: N_20  and  C_21
REMARK    8  A    between atoms: C_21  and  C_22
REMARK    9  A    between atoms: C_22  and  N_23
REMARK                            x       y       z     vdW  Elec       q    Type
REMARK                         _______ _______ _______ _____ _____    ______ ____
ROOT
ATOM      1  C   UNL     1      46.947   8.492  12.499  0.00  0.00    +0.000 C 
ENDROOT
BRANCH   1   2
ATOM      2  C   UNL     1      46.331   7.140  12.311  0.00  0.00    +0.000 A 
ATOM      3  C   UNL     1      46.785   6.029  13.016  0.00  0.00    +0.000 A 
ATOM      4  C   UNL     1      46.203   4.784  12.785  0.00  0.00    +0.000 A 
ATOM      5  C   UNL     1      45.215   4.650  11.814  0.00  0.00    +0.000 A 
ATOM      6  N   UNL     1      44.772   3.362  11.523  0.00  0.00    +0.000 N 
ATOM      7  N   UNL     1      44.768   5.713  11.115  0.00  0.00    +0.000 NA
ATOM      8  C   UNL     1      45.315   6.924  11.389  0.00  0.00    +0.000 A 
ATOM      9  H   UNL     1      44.362   2.901  12.332  0.00  0.00    +0.000 HD
BRANCH   6  10
ATOM     10  C   UNL     1      43.955   3.191  10.329  0.00  0.00    +0.000 C 
BRANCH  10  11
ATOM     11  C   UNL     1      44.498   1.984   9.527  0.00  0.00    +0.000 C 
BRANCH  11  12
ATOM     12  N   UNL     1      45.688   2.295   8.701  0.00  0.00    +0.000 NA
ATOM     13  C   UNL     1      46.189   1.099   8.005  0.00  0.00    +0.000 C 
ATOM     14  C   UNL     1      47.469   1.422   7.240  0.00  0.00    +0.000 C 
ATOM     15  C   UNL     1      47.247   2.549   6.240  0.00  0.00    +0.000 C 
ATOM     16  C   UNL     1      46.611   3.753   6.925  0.00  0.00    +0.000 C 
ATOM     17  C   UNL     1      45.370   3.355   7.729  0.00  0.00    +0.000 C 
ENDBRANCH  11  12
ENDBRANCH  10  11
ENDBRANCH   6  10
ENDBRANCH   1   2
BRANCH   1  20
ATOM     18  C   UNL     1      49.167   9.501  12.259  0.00  0.00    +0.000 C 
ATOM     19  O   UNL     1      48.687  10.611  12.049  0.00  0.00    +0.000 OA
ATOM     20  N   UNL     1      48.385   8.417  12.570  0.00  0.00    +0.000 N 
ATOM     21  H   UNL     1      48.810   7.499  12.618  0.00  0.00    +0.000 HD
BRANCH  18  30
ATOM     22  C   UNL     1      51.257   8.094  14.514  0.00  0.00    +0.000 A 
ATOM     23  N   UNL     1      52.289   7.654  15.259  0.00  0.00    +0.000 NA
ATOM     24  C   UNL     1      53.535   7.778  14.774  0.00  0.00    +0.000 A 
ATOM     25  C   UNL     1      54.654   7.279  15.636  0.00  0.00    +0.000 C 
ATOM     26  N   UNL     1      53.863   8.290  13.584  0.00  0.00    +0.000 NA
ATOM     27  C   UNL     1      52.806   8.717  12.874  0.00  0.00    +0.000 A 
ATOM     28  S   UNL     1      53.031   9.360  11.317  0.00  0.00    +0.000 S 
ATOM     29  C   UNL     1      51.358   9.621  11.125  0.00  0.00    +0.000 A 
ATOM     30  C   UNL     1      50.618   9.275  12.246  0.00  0.00    +0.000 A 
ATOM     31  C   UNL     1      51.474   8.688  13.263  0.00  0.00    +0.000 A 
BRANCH  22  33
ATOM     32  C   UNL     1      49.633   8.971  15.962  0.00  0.00    +0.000 C 
ATOM     33  O   UNL     1      49.974   7.969  15.009  0.00  0.00    +0.000 OA
ENDBRANCH  22  33
ENDBRANCH  18  30
ENDBRANCH   1  20
TORSDOF 7
ENDMDL
MODEL 8
REMARK VINA RESULT:    -6.544      2.564      3.989
REMARK INTER + INTRA:         -10.282
REMARK INTER:                  -9.139
REMARK INTRA:                  -1.144
REMARK UNBOUND:                -1.060
REMARK  Name = 
REMARK  9 active torsions:
REMARK  status: ('A' for Active; 'I' for Inactive)
REMARK    1  A    between atoms: C_1  and  O_2
REMARK    2  A    between atoms: O_2  and  C_3
REMARK    3  A    between atoms: C_5  and  C_6
REMARK    4  A    between atoms: C_11  and  C_12
REMARK    5  A    between atoms: N_14  and  C_15
REMARK    6  A    between atoms: C_15  and  C_16
REMARK    7  A    between atoms: N_20  and  C_21
REMARK    8  A    between atoms: C_21  and  C_22
REMARK    9  A    between atoms: C_22  and  N_23
REMARK                            x       y       z     vdW  Elec       q    Type
REMARK                         _______ _______ _______ _____ _____    ______ ____
ROOT
ATOM      1  C   UNL     1      47.184   4.429  15.907  0.00  0.00    +0.000 C 
ENDROOT
BRANCH   1   2
ATOM      2  C   UNL     1      46.740   4.622  14.489  0.00  0.00    +0.000 A 
ATOM      3  C   UNL     1      46.689   5.886  13.908  0.00  0.00    +0.000 A 
ATOM      4  C   UNL     1      46.239   6.020  12.596  0.00  0.00    +0.000 A 
ATOM      5  C   UNL     1      45.790   4.902  11.899  0.00  0.00    +0.000 A 
ATOM      6  N   UNL     1      45.217   5.114  10.647  0.00  0.00    +0.000 N 
ATOM      7  N   UNL     1      45.824   3.671  12.448  0.00  0.00    +0.000 NA
ATOM      8  C   UNL     1      46.310   3.556  13.709  0.00  0.00    +0.000 A 
ATOM      9  H   UNL     1      45.864   5.548   9.992  0.00  0.00    +0.000 HD
BRANCH   6  10
ATOM     10  C   UNL     1      44.502   3.998  10.043  0.00  0.00    +0.000 C 
BRANCH  10  11
ATOM     11  C   UNL     1      44.524   4.172   8.505  0.00  0.00    +0.000 C 
BRANCH  11  12
ATOM     12  N   UNL     1      45.224   3.083   7.785  0.00  0.00    +0.000 NA
ATOM     13  C   UNL     1      46.354   3.598   6.995  0.00  0.00    +0.000 C 
ATOM     14  C   UNL     1      46.999   2.476   6.187  0.00  0.00    +0.000 C 
ATOM     15  C   UNL     1      47.470   1.343   7.090  0.00  0.00    +0.000 C 
ATOM     16  C   UNL     1      46.340   0.883   8.004  0.00  0.00    +0.000 C 
ATOM     17  C   UNL     1      45.691   2.060   8.737  0.00  0.00    +0.000 C 
ENDBRANCH  11  12
ENDBRANCH  10  11
ENDBRANCH   6  10
ENDBRANCH   1   2
BRANCH   1  20
ATOM     18  C   UNL     1      49.168   4.767  17.306  0.00  0.00    +0.000 C 
ATOM     19  O   UNL     1      48.546   4.493  18.328  0.00  0.00    +0.000 OA
ATOM     20  N   UNL     1      48.596   4.682  16.061  0.00  0.00    +0.000 N 
ATOM     21  H   UNL     1      49.106   5.031  15.258  0.00  0.00    +0.000 HD
BRANCH  18  30
ATOM     22  C   UNL     1      50.921   7.125  15.634  0.00  0.00    +0.000 A 
ATOM     23  N   UNL     1      51.842   7.923  15.060  0.00  0.00    +0.000 NA
ATOM     24  C   UNL     1      53.128   7.790  15.423  0.00  0.00    +0.000 A 
ATOM     25  C   UNL     1      54.120   8.695  14.758  0.00  0.00    +0.000 C 
ATOM     26  N   UNL     1      53.598   6.936  16.336  0.00  0.00    +0.000 NA
ATOM     27  C   UNL     1      52.649   6.159  16.883  0.00  0.00    +0.000 A 
ATOM     28  S   UNL     1      53.058   5.041  18.095  0.00  0.00    +0.000 S 
ATOM     29  C   UNL     1      51.441   4.525  18.241  0.00  0.00    +0.000 A 
ATOM     30  C   UNL     1      50.585   5.151  17.346  0.00  0.00    +0.000 A 
ATOM     31  C   UNL     1      51.295   6.159  16.578  0.00  0.00    +0.000 A 
BRANCH  22  33
ATOM     32  C   UNL     1      48.944   8.361  15.884  0.00  0.00    +0.000 C 
ATOM     33  O   UNL     1      49.598   7.258  15.264  0.00  0.00    +0.000 OA
ENDBRANCH  22  33
ENDBRANCH  18  30
ENDBRANCH   1  20
TORSDOF 7
ENDMDL
MODEL 9
REMARK VINA RESULT:    -6.019      2.752      3.595
REMARK INTER + INTRA:          -9.542
REMARK INTER:                  -9.147
REMARK INTRA:                  -0.395
REMARK UNBOUND:                -1.060
REMARK  Name = 
REMARK  9 active torsions:
REMARK  status: ('A' for Active; 'I' for Inactive)
REMARK    1  A    between atoms: C_1  and  O_2
REMARK    2  A    between atoms: O_2  and  C_3
REMARK    3  A    between atoms: C_5  and  C_6
REMARK    4  A    between atoms: C_11  and  C_12
REMARK    5  A    between atoms: N_14  and  C_15
REMARK    6  A    between atoms: C_15  and  C_16
REMARK    7  A    between atoms: N_20  and  C_21
REMARK    8  A    between atoms: C_21  and  C_22
REMARK    9  A    between atoms: C_22  and  N_23
REMARK                            x       y       z     vdW  Elec       q    Type
REMARK                         _______ _______ _______ _____ _____    ______ ____
ROOT
ATOM      1  C   UNL     1      44.774   8.636  11.643  0.00  0.00    +0.000 C 
ENDROOT
BRANCH   1   2
ATOM      2  C   UNL     1      44.401   7.205  11.405  0.00  0.00    +0.000 A 
ATOM      3  C   UNL     1      43.192   6.682  11.855  0.00  0.00    +0.000 A 
ATOM      4  C   UNL     1      42.902   5.337  11.638  0.00  0.00    +0.000 A 
ATOM      5  C   UNL     1      43.844   4.514  11.027  0.00  0.00    +0.000 A 
ATOM      6  N   UNL     1      43.562   3.152  10.966  0.00  0.00    +0.000 N 
ATOM      7  N   UNL     1      45.024   5.000  10.592  0.00  0.00    +0.000 NA
ATOM      8  C   UNL     1      45.267   6.323  10.770  0.00  0.00    +0.000 A 
ATOM      9  H   UNL     1      42.712   2.954  10.443  0.00  0.00    +0.000 HD
BRANCH   6  10
ATOM     10  C   UNL     1      44.651   2.262  10.587  0.00  0.00    +0.000 C 
BRANCH  10  11
ATOM     11  C   UNL     1      44.555   1.984   9.066  0.00  0.00    +0.000 C 
BRANCH  11  12
ATOM     12  N   UNL     1      45.817   2.225   8.328  0.00  0.00    +0.000 NA
ATOM     13  C   UNL     1      46.388   0.970   7.814  0.00  0.00    +0.000 C 
ATOM     14  C   UNL     1      47.734   1.230   7.144  0.00  0.00    +0.000 C 
ATOM     15  C   UNL     1      47.604   2.243   6.014  0.00  0.00    +0.000 C 
ATOM     16  C   UNL     1      46.900   3.503   6.504  0.00  0.00    +0.000 C 
ATOM     17  C   UNL     1      45.589   3.172   7.224  0.00  0.00    +0.000 C 
ENDBRANCH  11  12
ENDBRANCH  10  11
ENDBRANCH   6  10
ENDBRANCH   1   2
BRANCH   1  20
ATOM     18  C   UNL     1      46.841   9.860  12.130  0.00  0.00    +0.000 C 
ATOM     19  O   UNL     1      46.441  10.856  11.535  0.00  0.00    +0.000 OA
ATOM     20  N   UNL     1      46.053   8.749  12.302  0.00  0.00    +0.000 N 
ATOM     21  H   UNL     1      46.462   7.909  12.692  0.00  0.00    +0.000 HD
BRANCH  18  30
ATOM     22  C   UNL     1      48.368   7.529  14.044  0.00  0.00    +0.000 A 
ATOM     23  N   UNL     1      49.156   6.806  14.863  0.00  0.00    +0.000 NA
ATOM     24  C   UNL     1      50.347   7.311  15.225  0.00  0.00    +0.000 A 
ATOM     25  C   UNL     1      51.190   6.477  16.141  0.00  0.00    +0.000 C 
ATOM     26  N   UNL     1      50.853   8.482  14.828  0.00  0.00    +0.000 NA
ATOM     27  C   UNL     1      50.036   9.170  14.014  0.00  0.00    +0.000 A 
ATOM     28  S   UNL     1      50.533  10.666  13.376  0.00  0.00    +0.000 S 
ATOM     29  C   UNL     1      49.070  10.848  12.522  0.00  0.00    +0.000 A 
ATOM     30  C   UNL     1      48.173   9.814  12.746  0.00  0.00    +0.000 A 
ATOM     31  C   UNL     1      48.770   8.792  13.590  0.00  0.00    +0.000 A 
BRANCH  22  33
ATOM     32  C   UNL     1      47.136   5.594  13.556  0.00  0.00    +0.000 C 
ATOM     33  O   UNL     1      47.144   7.014  13.668  0.00  0.00    +0.000 OA
ENDBRANCH  22  33
ENDBRANCH  18  30
ENDBRANCH   1  20
TORSDOF 7
ENDMDL
