MODEL 1
REMARK VINA RESULT:    -8.199      0.000      0.000
REMARK INTER + INTRA:         -12.582
REMARK INTER:                 -11.554
REMARK INTRA:                  -1.028
REMARK UNBOUND:                -1.028
REMARK  Name = 
REMARK  7 active torsions:
REMARK  status: ('A' for Active; 'I' for Inactive)
REMARK    1  A    between atoms: C_2  and  C_19
REMARK    2  A    between atoms: N_3  and  C_4
REMARK    3  A    between atoms: C_4  and  C_5
REMARK    4  A    between atoms: C_8  and  C_9
REMARK    5  A    between atoms: C_9  and  N_10
REMARK    6  A    between atoms: N_10  and  C_11
REMARK    7  A    between atoms: C_11  and  C_12
REMARK                            x       y       z     vdW  Elec       q    Type
REMARK                         _______ _______ _______ _____ _____    ______ ____
ROOT
ATOM      1  C   UNL     1      46.796   7.967  13.048  0.00  0.00    +0.000 C 
ENDROOT
BRANCH   1   2
ATOM      2  C   UNL     1      45.997   6.954  12.271  0.00  0.00    +0.000 A 
ATOM      3  C   UNL     1      46.393   6.600  10.976  0.00  0.00    +0.000 A 
ATOM      4  C   UNL     1      45.688   5.632  10.258  0.00  0.00    +0.000 A 
ATOM      5  C   UNL     1      44.575   4.984  10.817  0.00  0.00    +0.000 A 
ATOM      6  C   UNL     1      44.156   5.375  12.097  0.00  0.00    +0.000 A 
ATOM      7  C   UNL     1      44.854   6.354  12.815  0.00  0.00    +0.000 A 
BRANCH   5   8
ATOM      8  C   UNL     1      43.797   3.933  10.049  0.00  0.00    +0.000 C 
BRANCH   8   9
ATOM      9  N   UNL     1      44.289   2.584  10.321  0.00  0.00    +0.000 NA
ATOM     10  H   UNL     1      43.622   2.106  10.925  0.00  0.00    +0.000 HD
BRANCH   9  11
ATOM     11  C   UNL     1      44.514   1.801   9.103  0.00  0.00    +0.000 C 
BRANCH  11  12
ATOM     12  C   UNL     1      45.924   2.085   8.543  0.00  0.00    +0.000 C 
ATOM     13  C   UNL     1      45.925   3.076   7.386  0.00  0.00    +0.000 C 
ATOM     14  C   UNL     1      47.304   2.882   6.787  0.00  0.00    +0.000 C 
ATOM     15  C   UNL     1      47.636   1.422   7.069  0.00  0.00    +0.000 C 
ATOM     16  N   UNL     1      46.570   0.911   7.938  0.00  0.00    +0.000 NA
ATOM     17  H   UNL     1      46.953   0.295   8.652  0.00  0.00    +0.000 HD
ENDBRANCH  11  12
ENDBRANCH   9  11
ENDBRANCH   8   9
ENDBRANCH   5   8
ENDBRANCH   1   2
BRANCH   1  20
ATOM     18  O   UNL     1      49.038   6.309  13.426  0.00  0.00    +0.000 OA
ATOM     19  C   UNL     1      48.394   6.672  14.406  0.00  0.00    +0.000 C 
ATOM     20  N   UNL     1      47.263   7.443  14.305  0.00  0.00    +0.000 N 
ATOM     21  H   UNL     1      46.871   7.864  15.138  0.00  0.00    +0.000 HD
BRANCH  19  22
ATOM     22  C   UNL     1      48.763   6.249  15.760  0.00  0.00    +0.000 A 
ATOM     23  C   UNL     1      49.547   7.070  16.559  0.00  0.00    +0.000 A 
ATOM     24  S   UNL     1      49.856   6.423  18.106  0.00  0.00    +0.000 S 
ATOM     25  C   UNL     1      48.925   5.037  17.771  0.00  0.00    +0.000 A 
ATOM     26  N   UNL     1      48.741   4.069  18.709  0.00  0.00    +0.000 NA
ATOM     27  C   UNL     1      47.979   3.099  18.330  0.00  0.00    +0.000 A 
ATOM     28  N   UNL     1      47.396   2.997  17.094  0.00  0.00    +0.000 N 
ATOM     29  C   UNL     1      47.628   3.901  16.085  0.00  0.00    +0.000 A 
ATOM     30  O   UNL     1      47.228   3.693  14.946  0.00  0.00    +0.000 OA
ATOM     31  C   UNL     1      48.420   5.049  16.483  0.00  0.00    +0.000 A 
ATOM     32  H   UNL     1      46.847   2.190  16.843  0.00  0.00    +0.000 HD
ENDBRANCH  19  22
ENDBRANCH   1  20
TORSDOF 7
ENDMDL
MODEL 2
REMARK VINA RESULT:    -7.451      2.342      3.013
REMARK INTER + INTRA:         -11.529
REMARK INTER:                 -10.558
REMARK INTRA:                  -0.971
REMARK UNBOUND:                -1.028
REMARK  Name = 
REMARK  7 active torsions:
REMARK  status: ('A' for Active; 'I' for Inactive)
REMARK    1  A    between atoms: C_2  and  C_19
REMARK    2  A    between atoms: N_3  and  C_4
REMARK    3  A    between atoms: C_4  and  C_5
REMARK    4  A    between atoms: C_8  and  C_9
REMARK    5  A    between atoms: C_9  and  N_10
REMARK    6  A    between atoms: N_10  and  C_11
REMARK    7  A    between atoms: C_11  and  C_12
REMARK                            x       y       z     vdW  Elec       q    Type
REMARK                         _______ _______ _______ _____ _____    ______ ____
ROOT
ATOM      1  C   UNL     1      48.328   6.773  13.833  0.00  0.00    +0.000 C 
ENDROOT
BRANCH   1   2
ATOM      2  C   UNL     1      47.210   6.205  12.999  0.00  0.00    +0.000 A 
ATOM      3  C   UNL     1      46.444   5.143  13.492  0.00  0.00    +0.000 A 
ATOM      4  C   UNL     1      45.378   4.632  12.750  0.00  0.00    +0.000 A 
ATOM      5  C   UNL     1      45.041   5.175  11.499  0.00  0.00    +0.000 A 
ATOM      6  C   UNL     1      45.840   6.209  10.990  0.00  0.00    +0.000 A 
ATOM      7  C   UNL     1      46.918   6.715  11.728  0.00  0.00    +0.000 A 
BRANCH   5   8
ATOM      8  C   UNL     1      43.888   4.630  10.679  0.00  0.00    +0.000 C 
BRANCH   8   9
ATOM      9  N   UNL     1      44.314   4.234   9.338  0.00  0.00    +0.000 NA
ATOM     10  H   UNL     1      45.164   4.742   9.099  0.00  0.00    +0.000 HD
BRANCH   9  11
ATOM     11  C   UNL     1      44.540   2.791   9.213  0.00  0.00    +0.000 C 
BRANCH  11  12
ATOM     12  C   UNL     1      45.922   2.525   8.579  0.00  0.00    +0.000 C 
ATOM     13  C   UNL     1      46.102   3.194   7.223  0.00  0.00    +0.000 C 
ATOM     14  C   UNL     1      47.318   2.484   6.663  0.00  0.00    +0.000 C 
ATOM     15  C   UNL     1      47.254   1.088   7.272  0.00  0.00    +0.000 C 
ATOM     16  N   UNL     1      46.164   1.111   8.254  0.00  0.00    +0.000 NA
ATOM     17  H   UNL     1      46.419   0.582   9.086  0.00  0.00    +0.000 HD
ENDBRANCH  11  12
ENDBRANCH   9  11
ENDBRANCH   8   9
ENDBRANCH   5   8
ENDBRANCH   1   2
BRANCH   1  20
ATOM     18  O   UNL     1      50.275   6.293  15.808  0.00  0.00    +0.000 OA
ATOM     19  C   UNL     1      49.103   6.425  16.147  0.00  0.00    +0.000 C 
ATOM     20  N   UNL     1      48.087   6.617  15.244  0.00  0.00    +0.000 N 
ATOM     21  H   UNL     1      47.173   6.898  15.575  0.00  0.00    +0.000 HD
BRANCH  19  22
ATOM     22  C   UNL     1      48.701   6.327  17.553  0.00  0.00    +0.000 A 
ATOM     23  C   UNL     1      48.836   5.126  18.237  0.00  0.00    +0.000 A 
ATOM     24  S   UNL     1      48.337   5.208  19.865  0.00  0.00    +0.000 S 
ATOM     25  C   UNL     1      47.953   6.861  19.721  0.00  0.00    +0.000 A 
ATOM     26  N   UNL     1      47.497   7.573  20.786  0.00  0.00    +0.000 NA
ATOM     27  C   UNL     1      47.287   8.822  20.540  0.00  0.00    +0.000 A 
ATOM     28  N   UNL     1      47.476   9.424  19.323  0.00  0.00    +0.000 N 
ATOM     29  C   UNL     1      47.846   8.727  18.197  0.00  0.00    +0.000 A 
ATOM     30  O   UNL     1      47.844   9.261  17.095  0.00  0.00    +0.000 OA
ATOM     31  C   UNL     1      48.163   7.332  18.437  0.00  0.00    +0.000 A 
ATOM     32  H   UNL     1      47.251  10.397  19.183  0.00  0.00    +0.000 HD
ENDBRANCH  19  22
ENDBRANCH   1  20
TORSDOF 7
ENDMDL
MODEL 3
REMARK VINA RESULT:    -7.217      2.529      3.315
REMARK INTER + INTRA:         -11.199
REMARK INTER:                 -10.346
REMARK INTRA:                  -0.852
REMARK UNBOUND:                -1.028
REMARK  Name = 
REMARK  7 active torsions:
REMARK  status: ('A' for Active; 'I' for Inactive)
REMARK    1  A    between atoms: C_2  and  C_19
REMARK    2  A    between atoms: N_3  and  C_4
REMARK    3  A    between atoms: C_4  and  C_5
REMARK    4  A    between atoms: C_8  and  C_9
REMARK    5  A    between atoms: C_9  and  N_10
REMARK    6  A    between atoms: N_10  and  C_11
REMARK    7  A    between atoms: C_11  and  C_12
REMARK                            x       y       z     vdW  Elec       q    Type
REMARK                         _______ _______ _______ _____ _____    ______ ____
ROOT
ATOM      1  C   UNL     1      47.123   4.263  14.930  0.00  0.00    +0.000 C 
ENDROOT
BRANCH   1   2
ATOM      2  C   UNL     1      46.287   4.377  13.682  0.00  0.00    +0.000 A 
ATOM      3  C   UNL     1      45.987   3.232  12.937  0.00  0.00    +0.000 A 
ATOM      4  C   UNL     1      45.179   3.314  11.802  0.00  0.00    +0.000 A 
ATOM      5  C   UNL     1      44.639   4.542  11.386  0.00  0.00    +0.000 A 
ATOM      6  C   UNL     1      44.980   5.694  12.110  0.00  0.00    +0.000 A 
ATOM      7  C   UNL     1      45.800   5.615  13.242  0.00  0.00    +0.000 A 
BRANCH   5   8
ATOM      8  C   UNL     1      43.762   4.650  10.153  0.00  0.00    +0.000 C 
BRANCH   8   9
ATOM      9  N   UNL     1      44.199   3.743   9.094  0.00  0.00    +0.000 NA
ATOM     10  H   UNL     1      43.412   3.559   8.472  0.00  0.00    +0.000 HD
BRANCH   9  11
ATOM     11  C   UNL     1      45.333   4.264   8.327  0.00  0.00    +0.000 C 
BRANCH  11  12
ATOM     12  C   UNL     1      45.964   3.137   7.481  0.00  0.00    +0.000 C 
ATOM     13  C   UNL     1      46.150   1.837   8.252  0.00  0.00    +0.000 C 
ATOM     14  C   UNL     1      47.105   1.062   7.366  0.00  0.00    +0.000 C 
ATOM     15  C   UNL     1      47.938   2.136   6.678  0.00  0.00    +0.000 C 
ATOM     16  N   UNL     1      47.335   3.425   7.035  0.00  0.00    +0.000 NA
ATOM     17  H   UNL     1      47.336   4.056   6.236  0.00  0.00    +0.000 HD
ENDBRANCH  11  12
ENDBRANCH   9  11
ENDBRANCH   8   9
ENDBRANCH   5   8
ENDBRANCH   1   2
BRANCH   1  20
ATOM     18  O   UNL     1      49.298   4.761  16.644  0.00  0.00    +0.000 OA
ATOM     19  C   UNL     1      48.637   5.709  16.230  0.00  0.00    +0.000 C 
ATOM     20  N   UNL     1      47.535   5.549  15.428  0.00  0.00    +0.000 N 
ATOM     21  H   UNL     1      47.132   6.356  14.969  0.00  0.00    +0.000 HD
BRANCH  19  22
ATOM     22  C   UNL     1      48.952   7.086  16.620  0.00  0.00    +0.000 A 
ATOM     23  C   UNL     1      49.745   7.881  15.803  0.00  0.00    +0.000 A 
ATOM     24  S   UNL     1      49.985   9.456  16.409  0.00  0.00    +0.000 S 
ATOM     25  C   UNL     1      49.011   9.140  17.769  0.00  0.00    +0.000 A 
ATOM     26  N   UNL     1      48.763  10.103  18.697  0.00  0.00    +0.000 NA
ATOM     27  C   UNL     1      47.974   9.735  19.650  0.00  0.00    +0.000 A 
ATOM     28  N   UNL     1      47.422   8.485  19.771  0.00  0.00    +0.000 N 
ATOM     29  C   UNL     1      47.718   7.455  18.911  0.00  0.00    +0.000 A 
ATOM     30  O   UNL     1      47.341   6.312  19.142  0.00  0.00    +0.000 OA
ATOM     31  C   UNL     1      48.543   7.838  17.781  0.00  0.00    +0.000 A 
ATOM     32  H   UNL     1      46.849   8.245  20.565  0.00  0.00    +0.000 HD
ENDBRANCH  19  22
ENDBRANCH   1  20
TORSDOF 7
ENDMDL
MODEL 4
REMARK VINA RESULT:    -7.035      2.191      3.557
REMARK INTER + INTRA:         -10.942
REMARK INTER:                  -9.982
REMARK INTRA:                  -0.960
REMARK UNBOUND:                -1.028
REMARK  Name = 
REMARK  7 active torsions:
REMARK  status: ('A' for Active; 'I' for Inactive)
REMARK    1  A    between atoms: C_2  and  C_19
REMARK    2  A    between atoms: N_3  and  C_4
REMARK    3  A    between atoms: C_4  and  C_5
REMARK    4  A    between atoms: C_8  and  C_9
REMARK    5  A    between atoms: C_9  and  N_10
REMARK    6  A    between atoms: N_10  and  C_11
REMARK    7  A    between atoms: C_11  and  C_12
REMARK                            x       y       z     vdW  Elec       q    Type
REMARK                         _______ _______ _______ _____ _____    ______ ____
ROOT
ATOM      1  C   UNL     1      47.180   4.046  15.164  0.00  0.00    +0.000 C 
ENDROOT
BRANCH   1   2
ATOM      2  C   UNL     1      46.677   4.483  13.813  0.00  0.00    +0.000 A 
ATOM      3  C   UNL     1      45.832   3.643  13.080  0.00  0.00    +0.000 A 
ATOM      4  C   UNL     1      45.322   4.050  11.845  0.00  0.00    +0.000 A 
ATOM      5  C   UNL     1      45.635   5.312  11.314  0.00  0.00    +0.000 A 
ATOM      6  C   UNL     1      46.518   6.131  12.032  0.00  0.00    +0.000 A 
ATOM      7  C   UNL     1      47.040   5.720  13.265  0.00  0.00    +0.000 A 
BRANCH   5   8
ATOM      8  C   UNL     1      45.093   5.768   9.973  0.00  0.00    +0.000 C 
BRANCH   8   9
ATOM      9  N   UNL     1      45.753   5.089   8.860  0.00  0.00    +0.000 NA
ATOM     10  H   UNL     1      46.649   4.723   9.182  0.00  0.00    +0.000 HD
BRANCH   9  11
ATOM     11  C   UNL     1      44.945   4.007   8.291  0.00  0.00    +0.000 C 
BRANCH  11  12
ATOM     12  C   UNL     1      45.827   3.092   7.415  0.00  0.00    +0.000 C 
ATOM     13  C   UNL     1      46.221   1.793   8.105  0.00  0.00    +0.000 C 
ATOM     14  C   UNL     1      47.354   1.287   7.235  0.00  0.00    +0.000 C 
ATOM     15  C   UNL     1      47.999   2.551   6.682  0.00  0.00    +0.000 C 
ATOM     16  N   UNL     1      47.139   3.670   7.085  0.00  0.00    +0.000 NA
ATOM     17  H   UNL     1      47.060   4.352   6.333  0.00  0.00    +0.000 HD
ENDBRANCH  11  12
ENDBRANCH   9  11
ENDBRANCH   8   9
ENDBRANCH   5   8
ENDBRANCH   1   2
BRANCH   1  20
ATOM     18  O   UNL     1      49.353   4.064  16.951  0.00  0.00    +0.000 OA
ATOM     19  C   UNL     1      48.708   5.095  16.788  0.00  0.00    +0.000 C 
ATOM     20  N   UNL     1      47.608   5.159  15.970  0.00  0.00    +0.000 N 
ATOM     21  H   UNL     1      47.219   6.062  15.728  0.00  0.00    +0.000 HD
BRANCH  19  22
ATOM     22  C   UNL     1      49.041   6.325  17.513  0.00  0.00    +0.000 A 
ATOM     23  C   UNL     1      48.819   6.412  18.881  0.00  0.00    +0.000 A 
ATOM     24  S   UNL     1      49.286   7.908  19.554  0.00  0.00    +0.000 S 
ATOM     25  C   UNL     1      49.829   8.478  18.044  0.00  0.00    +0.000 A 
ATOM     26  N   UNL     1      50.396   9.709  17.919  0.00  0.00    +0.000 NA
ATOM     27  C   UNL     1      50.799   9.990  16.727  0.00  0.00    +0.000 A 
ATOM     28  N   UNL     1      50.675   9.162  15.641  0.00  0.00    +0.000 N 
ATOM     29  C   UNL     1      50.028   7.950  15.700  0.00  0.00    +0.000 A 
ATOM     30  O   UNL     1      49.788   7.313  14.682  0.00  0.00    +0.000 OA
ATOM     31  C   UNL     1      49.620   7.556  17.034  0.00  0.00    +0.000 A 
ATOM     32  H   UNL     1      50.970   9.459  14.724  0.00  0.00    +0.000 HD
ENDBRANCH  19  22
ENDBRANCH   1  20
TORSDOF 7
ENDMDL
MODEL 5
REMARK VINA RESULT:    -6.981      2.003      2.710
REMARK INTER + INTRA:         -10.867
REMARK INTER:                  -9.701
REMARK INTRA:                  -1.165
REMARK UNBOUND:                -1.028
REMARK  Name = 
REMARK  7 active torsions:
REMARK  status: ('A' for Active; 'I' for Inactive)
REMARK    1  A    between atoms: C_2  and  C_19
REMARK    2  A    between atoms: N_3  and  C_4
REMARK    3  A    between atoms: C_4  and  C_5
REMARK    4  A    between atoms: C_8  and  C_9
REMARK    5  A    between atoms: C_9  and  N_10
REMARK    6  A    between atoms: N_10  and  C_11
REMARK    7  A    between atoms: C_11  and  C_12
REMARK                            x       y       z     vdW  Elec       q    Type
REMARK                         _______ _______ _______ _____ _____    ______ ____
ROOT
ATOM      1  C   UNL     1      48.730   7.568  12.503  0.00  0.00    +0.000 C 
ENDROOT
BRANCH   1   2
ATOM      2  C   UNL     1      47.407   6.859  12.634  0.00  0.00    +0.000 A 
ATOM      3  C   UNL     1      47.357   5.576  13.188  0.00  0.00    +0.000 A 
ATOM      4  C   UNL     1      46.135   4.921  13.354  0.00  0.00    +0.000 A 
ATOM      5  C   UNL     1      44.929   5.535  12.982  0.00  0.00    +0.000 A 
ATOM      6  C   UNL     1      44.989   6.804  12.386  0.00  0.00    +0.000 A 
ATOM      7  C   UNL     1      46.215   7.457  12.206  0.00  0.00    +0.000 A 
BRANCH   5   8
ATOM      8  C   UNL     1      43.593   4.837  13.153  0.00  0.00    +0.000 C 
BRANCH   8   9
ATOM      9  N   UNL     1      43.699   3.398  12.927  0.00  0.00    +0.000 NA
ATOM     10  H   UNL     1      43.152   2.912  13.636  0.00  0.00    +0.000 HD
BRANCH   9  11
ATOM     11  C   UNL     1      43.256   2.995  11.589  0.00  0.00    +0.000 C 
BRANCH  11  12
ATOM     12  C   UNL     1      44.425   3.108  10.587  0.00  0.00    +0.000 C 
ATOM     13  C   UNL     1      44.235   4.217   9.561  0.00  0.00    +0.000 C 
ATOM     14  C   UNL     1      45.269   3.872   8.507  0.00  0.00    +0.000 C 
ATOM     15  C   UNL     1      45.382   2.354   8.572  0.00  0.00    +0.000 C 
ATOM     16  N   UNL     1      44.589   1.925   9.729  0.00  0.00    +0.000 NA
ATOM     17  H   UNL     1      45.059   1.172  10.228  0.00  0.00    +0.000 HD
ENDBRANCH  11  12
ENDBRANCH   9  11
ENDBRANCH   8   9
ENDBRANCH   5   8
ENDBRANCH   1   2
BRANCH   1  20
ATOM     18  O   UNL     1      49.136   8.648  15.069  0.00  0.00    +0.000 OA
ATOM     19  C   UNL     1      49.794   7.672  14.724  0.00  0.00    +0.000 C 
ATOM     20  N   UNL     1      49.689   7.112  13.475  0.00  0.00    +0.000 N 
ATOM     21  H   UNL     1      50.112   6.210  13.296  0.00  0.00    +0.000 HD
BRANCH  19  22
ATOM     22  C   UNL     1      50.789   7.069  15.615  0.00  0.00    +0.000 A 
ATOM     23  C   UNL     1      52.121   7.453  15.537  0.00  0.00    +0.000 A 
ATOM     24  S   UNL     1      53.127   6.661  16.664  0.00  0.00    +0.000 S 
ATOM     25  C   UNL     1      51.810   5.802  17.316  0.00  0.00    +0.000 A 
ATOM     26  N   UNL     1      51.974   4.953  18.366  0.00  0.00    +0.000 NA
ATOM     27  C   UNL     1      50.883   4.404  18.783  0.00  0.00    +0.000 A 
ATOM     28  N   UNL     1      49.643   4.612  18.237  0.00  0.00    +0.000 N 
ATOM     29  C   UNL     1      49.442   5.387  17.119  0.00  0.00    +0.000 A 
ATOM     30  O   UNL     1      48.353   5.419  16.560  0.00  0.00    +0.000 OA
ATOM     31  C   UNL     1      50.627   6.084  16.656  0.00  0.00    +0.000 A 
ATOM     32  H   UNL     1      48.834   4.117  18.580  0.00  0.00    +0.000 HD
ENDBRANCH  19  22
ENDBRANCH   1  20
TORSDOF 7
ENDMDL
MODEL 6
REMARK VINA RESULT:    -6.952      3.071      7.773
REMARK INTER + INTRA:         -10.825
REMARK INTER:                  -9.514
REMARK INTRA:                  -1.312
REMARK UNBOUND:                -1.028
REMARK  Name = 
REMARK  7 active torsions:
REMARK  status: ('A' for Active; 'I' for Inactive)
REMARK    1  A    between atoms: C_2  and  C_19
REMARK    2  A    between atoms: N_3  and  C_4
REMARK    3  A    between atoms: C_4  and  C_5
REMARK    4  A    between atoms: C_8  and  C_9
REMARK    5  A    between atoms: C_9  and  N_10
REMARK    6  A    between atoms: N_10  and  C_11
REMARK    7  A    between atoms: C_11  and  C_12
REMARK                            x       y       z     vdW  Elec       q    Type
REMARK                         _______ _______ _______ _____ _____    ______ ____
ROOT
ATOM      1  C   UNL     1      48.411   8.028  11.999  0.00  0.00    +0.000 C 
ENDROOT
BRANCH   1   2
ATOM      2  C   UNL     1      48.501   7.999  13.502  0.00  0.00    +0.000 A 
ATOM      3  C   UNL     1      48.287   9.171  14.236  0.00  0.00    +0.000 A 
ATOM      4  C   UNL     1      48.326   9.153  15.631  0.00  0.00    +0.000 A 
ATOM      5  C   UNL     1      48.569   7.962  16.333  0.00  0.00    +0.000 A 
ATOM      6  C   UNL     1      48.828   6.799  15.592  0.00  0.00    +0.000 A 
ATOM      7  C   UNL     1      48.801   6.817  14.192  0.00  0.00    +0.000 A 
BRANCH   5   8
ATOM      8  C   UNL     1      48.618   7.926  17.848  0.00  0.00    +0.000 C 
BRANCH   8   9
ATOM      9  N   UNL     1      47.679   6.952  18.400  0.00  0.00    +0.000 NA
ATOM     10  H   UNL     1      47.284   6.405  17.635  0.00  0.00    +0.000 HD
BRANCH   9  11
ATOM     11  C   UNL     1      48.294   6.060  19.387  0.00  0.00    +0.000 C 
BRANCH  11  12
ATOM     12  C   UNL     1      48.196   4.595  18.911  0.00  0.00    +0.000 C 
ATOM     13  C   UNL     1      49.318   4.193  17.963  0.00  0.00    +0.000 C 
ATOM     14  C   UNL     1      48.793   2.906  17.358  0.00  0.00    +0.000 C 
ATOM     15  C   UNL     1      47.279   3.076  17.362  0.00  0.00    +0.000 C 
ATOM     16  N   UNL     1      47.000   4.311  18.104  0.00  0.00    +0.000 NA
ATOM     17  H   UNL     1      46.178   4.198  18.695  0.00  0.00    +0.000 HD
ENDBRANCH  11  12
ENDBRANCH   9  11
ENDBRANCH   8   9
ENDBRANCH   5   8
ENDBRANCH   1   2
BRANCH   1  20
ATOM     18  O   UNL     1      45.613   7.937  11.718  0.00  0.00    +0.000 OA
ATOM     19  C   UNL     1      46.281   6.980  11.338  0.00  0.00    +0.000 C 
ATOM     20  N   UNL     1      47.644   6.925  11.480  0.00  0.00    +0.000 N 
ATOM     21  H   UNL     1      48.168   6.207  10.996  0.00  0.00    +0.000 HD
BRANCH  19  22
ATOM     22  C   UNL     1      45.649   5.793  10.754  0.00  0.00    +0.000 A 
ATOM     23  C   UNL     1      45.823   5.498   9.409  0.00  0.00    +0.000 A 
ATOM     24  S   UNL     1      45.032   4.070   8.915  0.00  0.00    +0.000 S 
ATOM     25  C   UNL     1      44.455   3.781  10.491  0.00  0.00    +0.000 A 
ATOM     26  N   UNL     1      43.720   2.673  10.779  0.00  0.00    +0.000 NA
ATOM     27  C   UNL     1      43.388   2.563  12.021  0.00  0.00    +0.000 A 
ATOM     28  N   UNL     1      43.708   3.467  13.001  0.00  0.00    +0.000 N 
ATOM     29  C   UNL     1      44.368   4.644  12.741  0.00  0.00    +0.000 A 
ATOM     30  O   UNL     1      44.491   5.503  13.605  0.00  0.00    +0.000 OA
ATOM     31  C   UNL     1      44.827   4.781  11.372  0.00  0.00    +0.000 A 
ATOM     32  H   UNL     1      43.379   3.346  13.946  0.00  0.00    +0.000 HD
ENDBRANCH  19  22
ENDBRANCH   1  20
TORSDOF 7
ENDMDL
MODEL 7
REMARK VINA RESULT:    -6.816      4.293      9.015
REMARK INTER + INTRA:         -10.633
REMARK INTER:                  -9.792
REMARK INTRA:                  -0.841
REMARK UNBOUND:                -1.028
REMARK  Name = 
REMARK  7 active torsions:
REMARK  status: ('A' for Active; 'I' for Inactive)
REMARK    1  A    between atoms: C_2  and  C_19
REMARK    2  A    between atoms: N_3  and  C_4
REMARK    3  A    between atoms: C_4  and  C_5
REMARK    4  A    between atoms: C_8  and  C_9
REMARK    5  A    between atoms: C_9  and  N_10
REMARK    6  A    between atoms: N_10  and  C_11
REMARK    7  A    between atoms: C_11  and  C_12
REMARK                            x       y       z     vdW  Elec       q    Type
REMARK                         _______ _______ _______ _____ _____    ______ ____
ROOT
ATOM      1  C   UNL     1      47.199   3.391  16.795  0.00  0.00    +0.000 C 
ENDROOT
BRANCH   1   2
ATOM      2  C   UNL     1      48.661   3.502  17.143  0.00  0.00    +0.000 A 
ATOM      3  C   UNL     1      49.479   2.369  17.081  0.00  0.00    +0.000 A 
ATOM      4  C   UNL     1      50.844   2.462  17.360  0.00  0.00    +0.000 A 
ATOM      5  C   UNL     1      51.431   3.692  17.697  0.00  0.00    +0.000 A 
ATOM      6  C   UNL     1      50.598   4.816  17.802  0.00  0.00    +0.000 A 
ATOM      7  C   UNL     1      49.227   4.722  17.535  0.00  0.00    +0.000 A 
BRANCH   5   8
ATOM      8  C   UNL     1      52.911   3.810  18.006  0.00  0.00    +0.000 C 
BRANCH   8   9
ATOM      9  N   UNL     1      53.632   2.579  17.694  0.00  0.00    +0.000 NA
ATOM     10  H   UNL     1      54.293   2.766  16.941  0.00  0.00    +0.000 HD
BRANCH   9  11
ATOM     11  C   UNL     1      54.335   2.018  18.851  0.00  0.00    +0.000 C 
BRANCH  11  12
ATOM     12  C   UNL     1      54.888   0.618  18.509  0.00  0.00    +0.000 C 
ATOM     13  C   UNL     1      54.680   0.228  17.052  0.00  0.00    +0.000 C 
ATOM     14  C   UNL     1      54.932  -1.266  17.071  0.00  0.00    +0.000 C 
ATOM     15  C   UNL     1      54.500  -1.704  18.465  0.00  0.00    +0.000 C 
ATOM     16  N   UNL     1      54.209  -0.478  19.216  0.00  0.00    +0.000 NA
ATOM     17  H   UNL     1      54.541  -0.556  20.176  0.00  0.00    +0.000 HD
ENDBRANCH  11  12
ENDBRANCH   9  11
ENDBRANCH   8   9
ENDBRANCH   5   8
ENDBRANCH   1   2
BRANCH   1  20
ATOM     18  O   UNL     1      47.246   3.115  13.996  0.00  0.00    +0.000 OA
ATOM     19  C   UNL     1      46.808   4.153  14.484  0.00  0.00    +0.000 C 
ATOM     20  N   UNL     1      46.792   4.385  15.836  0.00  0.00    +0.000 N 
ATOM     21  H   UNL     1      46.264   5.168  16.201  0.00  0.00    +0.000 HD
BRANCH  19  22
ATOM     22  C   UNL     1      46.323   5.248  13.639  0.00  0.00    +0.000 A 
ATOM     23  C   UNL     1      47.123   6.359  13.407  0.00  0.00    +0.000 A 
ATOM     24  S   UNL     1      46.401   7.518  12.385  0.00  0.00    +0.000 S 
ATOM     25  C   UNL     1      45.007   6.559  12.193  0.00  0.00    +0.000 A 
ATOM     26  N   UNL     1      43.984   6.958  11.391  0.00  0.00    +0.000 NA
ATOM     27  C   UNL     1      43.012   6.112  11.307  0.00  0.00    +0.000 A 
ATOM     28  N   UNL     1      42.961   4.910  11.965  0.00  0.00    +0.000 N 
ATOM     29  C   UNL     1      43.926   4.508  12.857  0.00  0.00    +0.000 A 
ATOM     30  O   UNL     1      43.769   3.510  13.550  0.00  0.00    +0.000 OA
ATOM     31  C   UNL     1      45.075   5.390  12.931  0.00  0.00    +0.000 A 
ATOM     32  H   UNL     1      42.151   4.313  11.893  0.00  0.00    +0.000 HD
ENDBRANCH  19  22
ENDBRANCH   1  20
TORSDOF 7
ENDMDL
MODEL 8
REMARK VINA RESULT:    -6.811      2.744      8.058
REMARK INTER + INTRA:         -10.626
REMARK INTER:                  -9.141
REMARK INTRA:                  -1.485
REMARK UNBOUND:                -1.028
REMARK  Name = 
REMARK  7 active torsions:
REMARK  status: ('A' for Active; 'I' for Inactive)
REMARK    1  A    between atoms: C_2  and  C_19
REMARK    2  A    between atoms: N_3  and  C_4
REMARK    3  A    between atoms: C_4  and  C_5
REMARK    4  A    between atoms: C_8  and  C_9
REMARK    5  A    between atoms: C_9  and  N_10
REMARK    6  A    between atoms: N_10  and  C_11
REMARK    7  A    between atoms: C_11  and  C_12
REMARK                            x       y       z     vdW  Elec       q    Type
REMARK                         _______ _______ _______ _____ _____    ______ ____
ROOT
ATOM      1  C   UNL     1      47.825   7.758  12.092  0.00  0.00    +0.000 C 
ENDROOT
BRANCH   1   2
ATOM      2  C   UNL     1      48.323   7.915  13.505  0.00  0.00    +0.000 A 
ATOM      3  C   UNL     1      47.791   8.917  14.323  0.00  0.00    +0.000 A 
ATOM      4  C   UNL     1      48.211   9.049  15.648  0.00  0.00    +0.000 A 
ATOM      5  C   UNL     1      49.166   8.177  16.195  0.00  0.00    +0.000 A 
ATOM      6  C   UNL     1      49.728   7.202  15.357  0.00  0.00    +0.000 A 
ATOM      7  C   UNL     1      49.317   7.076  14.024  0.00  0.00    +0.000 A 
BRANCH   5   8
ATOM      8  C   UNL     1      49.635   8.308  17.631  0.00  0.00    +0.000 C 
BRANCH   8   9
ATOM      9  N   UNL     1      49.626   7.023  18.326  0.00  0.00    +0.000 NA
ATOM     10  H   UNL     1      50.236   7.086  19.141  0.00  0.00    +0.000 HD
BRANCH   9  11
ATOM     11  C   UNL     1      48.283   6.605  18.736  0.00  0.00    +0.000 C 
BRANCH  11  12
ATOM     12  C   UNL     1      48.005   5.166  18.252  0.00  0.00    +0.000 C 
ATOM     13  C   UNL     1      49.269   4.395  17.895  0.00  0.00    +0.000 C 
ATOM     14  C   UNL     1      48.728   3.219  17.107  0.00  0.00    +0.000 C 
ATOM     15  C   UNL     1      47.468   3.759  16.441  0.00  0.00    +0.000 C 
ATOM     16  N   UNL     1      47.244   5.099  16.995  0.00  0.00    +0.000 NA
ATOM     17  H   UNL     1      46.252   5.260  17.158  0.00  0.00    +0.000 HD
ENDBRANCH  11  12
ENDBRANCH   9  11
ENDBRANCH   8   9
ENDBRANCH   5   8
ENDBRANCH   1   2
BRANCH   1  20
ATOM     18  O   UNL     1      45.023   7.546  11.959  0.00  0.00    +0.000 OA
ATOM     19  C   UNL     1      45.704   6.535  11.816  0.00  0.00    +0.000 C 
ATOM     20  N   UNL     1      47.073   6.544  11.911  0.00  0.00    +0.000 N 
ATOM     21  H   UNL     1      47.599   5.733  11.612  0.00  0.00    +0.000 HD
BRANCH  19  22
ATOM     22  C   UNL     1      45.086   5.225  11.591  0.00  0.00    +0.000 A 
ATOM     23  C   UNL     1      44.410   4.583  12.621  0.00  0.00    +0.000 A 
ATOM     24  S   UNL     1      43.741   3.082  12.167  0.00  0.00    +0.000 S 
ATOM     25  C   UNL     1      44.304   3.253  10.569  0.00  0.00    +0.000 A 
ATOM     26  N   UNL     1      44.035   2.313   9.624  0.00  0.00    +0.000 NA
ATOM     27  C   UNL     1      44.487   2.595   8.449  0.00  0.00    +0.000 A 
ATOM     28  N   UNL     1      45.199   3.723   8.133  0.00  0.00    +0.000 N 
ATOM     29  C   UNL     1      45.573   4.654   9.072  0.00  0.00    +0.000 A 
ATOM     30  O   UNL     1      46.347   5.561   8.789  0.00  0.00    +0.000 OA
ATOM     31  C   UNL     1      45.027   4.420  10.395  0.00  0.00    +0.000 A 
ATOM     32  H   UNL     1      45.564   3.864   7.204  0.00  0.00    +0.000 HD
ENDBRANCH  19  22
ENDBRANCH   1  20
TORSDOF 7
ENDMDL
MODEL 9
REMARK VINA RESULT:    -6.379      3.318      8.168
REMARK INTER + INTRA:         -10.018
REMARK INTER:                  -8.545
REMARK INTRA:                  -1.473
REMARK UNBOUND:                -1.028
REMARK  Name = 
REMARK  7 active torsions:
REMARK  status: ('A' for Active; 'I' for Inactive)
REMARK    1  A    between atoms: C_2  and  C_19
REMARK    2  A    between atoms: N_3  and  C_4
REMARK    3  A    between atoms: C_4  and  C_5
REMARK    4  A    between atoms: C_8  and  C_9
REMARK    5  A    between atoms: C_9  and  N_10
REMARK    6  A    between atoms: N_10  and  C_11
REMARK    7  A    between atoms: C_11  and  C_12
REMARK                            x       y       z     vdW  Elec       q    Type
REMARK                         _______ _______ _______ _____ _____    ______ ____
ROOT
ATOM      1  C   UNL     1      48.242   8.702  14.469  0.00  0.00    +0.000 C 
ENDROOT
BRANCH   1   2
ATOM      2  C   UNL     1      48.682   8.428  15.883  0.00  0.00    +0.000 A 
ATOM      3  C   UNL     1      47.925   8.914  16.955  0.00  0.00    +0.000 A 
ATOM      4  C   UNL     1      48.296   8.634  18.272  0.00  0.00    +0.000 A 
ATOM      5  C   UNL     1      49.427   7.852  18.553  0.00  0.00    +0.000 A 
ATOM      6  C   UNL     1      50.208   7.405  17.477  0.00  0.00    +0.000 A 
ATOM      7  C   UNL     1      49.844   7.695  16.156  0.00  0.00    +0.000 A 
BRANCH   5   8
ATOM      8  C   UNL     1      49.846   7.541  19.978  0.00  0.00    +0.000 C 
BRANCH   8   9
ATOM      9  N   UNL     1      49.977   6.104  20.205  0.00  0.00    +0.000 NA
ATOM     10  H   UNL     1      50.445   5.953  21.097  0.00  0.00    +0.000 HD
BRANCH   9  11
ATOM     11  C   UNL     1      48.690   5.403  20.190  0.00  0.00    +0.000 C 
BRANCH  11  12
ATOM     12  C   UNL     1      48.528   4.619  18.871  0.00  0.00    +0.000 C 
ATOM     13  C   UNL     1      47.304   5.037  18.067  0.00  0.00    +0.000 C 
ATOM     14  C   UNL     1      47.158   3.901  17.074  0.00  0.00    +0.000 C 
ATOM     15  C   UNL     1      47.708   2.684  17.808  0.00  0.00    +0.000 C 
ATOM     16  N   UNL     1      48.291   3.180  19.060  0.00  0.00    +0.000 NA
ATOM     17  H   UNL     1      49.158   2.690  19.272  0.00  0.00    +0.000 HD
ENDBRANCH  11  12
ENDBRANCH   9  11
ENDBRANCH   8   9
ENDBRANCH   5   8
ENDBRANCH   1   2
BRANCH   1  20
ATOM     18  O   UNL     1      48.866   6.387  12.996  0.00  0.00    +0.000 OA
ATOM     19  C   UNL     1      47.698   6.594  13.314  0.00  0.00    +0.000 C 
ATOM     20  N   UNL     1      47.304   7.720  13.992  0.00  0.00    +0.000 N 
ATOM     21  H   UNL     1      46.372   7.763  14.387  0.00  0.00    +0.000 HD
BRANCH  19  22
ATOM     22  C   UNL     1      46.629   5.668  12.931  0.00  0.00    +0.000 A 
ATOM     23  C   UNL     1      46.737   4.315  13.223  0.00  0.00    +0.000 A 
ATOM     24  S   UNL     1      45.390   3.398  12.722  0.00  0.00    +0.000 S 
ATOM     25  C   UNL     1      44.601   4.784  12.125  0.00  0.00    +0.000 A 
ATOM     26  N   UNL     1      43.356   4.707  11.583  0.00  0.00    +0.000 NA
ATOM     27  C   UNL     1      42.865   5.841  11.213  0.00  0.00    +0.000 A 
ATOM     28  N   UNL     1      43.510   7.046  11.319  0.00  0.00    +0.000 N 
ATOM     29  C   UNL     1      44.802   7.161  11.773  0.00  0.00    +0.000 A 
ATOM     30  O   UNL     1      45.405   8.225  11.699  0.00  0.00    +0.000 OA
ATOM     31  C   UNL     1      45.372   5.924  12.270  0.00  0.00    +0.000 A 
ATOM     32  H   UNL     1      43.090   7.893  10.969  0.00  0.00    +0.000 HD
ENDBRANCH  19  22
ENDBRANCH   1  20
TORSDOF 7
ENDMDL
