MODEL 1
REMARK VINA RESULT:    -7.180      0.000      0.000
REMARK INTER + INTRA:         -11.974
REMARK INTER:                 -10.747
REMARK INTRA:                  -1.227
REMARK UNBOUND:                -1.227
REMARK  Name = 
REMARK  9 active torsions:
REMARK  status: ('A' for Active; 'I' for Inactive)
REMARK    1  A    between atoms: C_2  and  C_22
REMARK    2  A    between atoms: N_3  and  CA_4
REMARK    3  A    between atoms: CA_4  and  C_5
REMARK    4  A    between atoms: CA_4  and  C_7
REMARK    5  A    between atoms: C_5  and  O_6
REMARK    6  A    between atoms: C_10  and  C_11
REMARK    7  A    between atoms: C_11  and  N_12
REMARK    8  A    between atoms: N_12  and  C_13
REMARK    9  A    between atoms: C_13  and  C_14
REMARK                            x       y       z     vdW  Elec       q    Type
REMARK                         _______ _______ _______ _____ _____    ______ ____
ROOT
ATOM      1  CA  UNL     1      47.846   6.962  13.602  0.00  0.00    +0.000 C 
ENDROOT
BRANCH   1   2
ATOM      2  C   UNL     1      46.774   6.155  12.889  0.00  0.00    +0.000 A 
ATOM      3  C   UNL     1      46.111   5.154  13.610  0.00  0.00    +0.000 A 
ATOM      4  C   UNL     1      45.104   4.395  13.020  0.00  0.00    +0.000 A 
ATOM      5  C   UNL     1      44.698   4.645  11.703  0.00  0.00    +0.000 A 
ATOM      6  C   UNL     1      45.375   5.629  10.971  0.00  0.00    +0.000 A 
ATOM      7  C   UNL     1      46.388   6.386  11.561  0.00  0.00    +0.000 A 
BRANCH   5   8
ATOM      8  C   UNL     1      43.576   3.881  11.039  0.00  0.00    +0.000 C 
BRANCH   8   9
ATOM      9  N   UNL     1      43.932   2.561  10.521  0.00  0.00    +0.000 NA
ATOM     10  H   UNL     1      43.211   2.250   9.875  0.00  0.00    +0.000 HD
BRANCH   9  11
ATOM     11  C   UNL     1      45.250   2.508   9.879  0.00  0.00    +0.000 C 
BRANCH  11  12
ATOM     12  C   UNL     1      45.067   2.194   8.379  0.00  0.00    +0.000 C 
ATOM     13  C   UNL     1      45.979   1.051   7.903  0.00  0.00    +0.000 C 
ATOM     14  C   UNL     1      47.411   1.507   7.637  0.00  0.00    +0.000 C 
ATOM     15  N   UNL     1      47.452   2.628   6.697  0.00  0.00    +0.000 NA
ATOM     16  C   UNL     1      46.727   3.777   7.237  0.00  0.00    +0.000 C 
ATOM     17  C   UNL     1      45.261   3.444   7.502  0.00  0.00    +0.000 C 
ATOM     18  H   UNL     1      47.009   2.339   5.823  0.00  0.00    +0.000 HD
ENDBRANCH  11  12
ENDBRANCH   9  11
ENDBRANCH   8   9
ENDBRANCH   5   8
ENDBRANCH   1   2
BRANCH   1  21
ATOM     19  O   UNL     1      50.154   6.634  15.272  0.00  0.00    +0.000 OA
ATOM     20  C   UNL     1      49.033   6.475  15.741  0.00  0.00    +0.000 C 
ATOM     21  N   UNL     1      47.889   6.568  14.997  0.00  0.00    +0.000 N 
ATOM     22  H   UNL     1      46.995   6.382  15.435  0.00  0.00    +0.000 HD
BRANCH  20  23
ATOM     23  C   UNL     1      48.824   6.157  17.160  0.00  0.00    +0.000 A 
ATOM     24  C   UNL     1      49.117   4.888  17.647  0.00  0.00    +0.000 A 
ATOM     25  S   UNL     1      48.844   4.727  19.325  0.00  0.00    +0.000 S 
ATOM     26  C   UNL     1      48.364   6.355  19.462  0.00  0.00    +0.000 A 
ATOM     27  N   UNL     1      48.032   6.892  20.666  0.00  0.00    +0.000 NA
ATOM     28  C   UNL     1      47.742   8.150  20.630  0.00  0.00    +0.000 A 
ATOM     29  N   UNL     1      47.738   8.919  19.499  0.00  0.00    +0.000 N 
ATOM     30  C   UNL     1      47.973   8.401  18.250  0.00  0.00    +0.000 A 
ATOM     31  O   UNL     1      47.791   9.078  17.243  0.00  0.00    +0.000 OA
ATOM     32  C   UNL     1      48.370   7.004  18.240  0.00  0.00    +0.000 A 
ATOM     33  H   UNL     1      47.460   9.889  19.530  0.00  0.00    +0.000 HD
ENDBRANCH  20  23
ENDBRANCH   1  21
BRANCH   1  34
ATOM     34  C   UNL     1      47.660   8.496  13.485  0.00  0.00    +0.000 C 
BRANCH  34  35
ATOM     35  O   UNL     1      46.412   8.942  14.014  0.00  0.00    +0.000 OA
ATOM     36  H   UNL     1      46.462   9.909  14.119  0.00  0.00    +0.000 HD
ENDBRANCH  34  35
ENDBRANCH   1  34
TORSDOF 9
ENDMDL
MODEL 2
REMARK VINA RESULT:    -7.159      1.308      2.192
REMARK INTER + INTRA:         -11.943
REMARK INTER:                 -10.847
REMARK INTRA:                  -1.096
REMARK UNBOUND:                -1.227
REMARK  Name = 
REMARK  9 active torsions:
REMARK  status: ('A' for Active; 'I' for Inactive)
REMARK    1  A    between atoms: C_2  and  C_22
REMARK    2  A    between atoms: N_3  and  CA_4
REMARK    3  A    between atoms: CA_4  and  C_5
REMARK    4  A    between atoms: CA_4  and  C_7
REMARK    5  A    between atoms: C_5  and  O_6
REMARK    6  A    between atoms: C_10  and  C_11
REMARK    7  A    between atoms: C_11  and  N_12
REMARK    8  A    between atoms: N_12  and  C_13
REMARK    9  A    between atoms: C_13  and  C_14
REMARK                            x       y       z     vdW  Elec       q    Type
REMARK                         _______ _______ _______ _____ _____    ______ ____
ROOT
ATOM      1  CA  UNL     1      47.951   7.047  13.601  0.00  0.00    +0.000 C 
ENDROOT
BRANCH   1   2
ATOM      2  C   UNL     1      46.724   6.329  13.063  0.00  0.00    +0.000 A 
ATOM      3  C   UNL     1      46.083   6.867  11.939  0.00  0.00    +0.000 A 
ATOM      4  C   UNL     1      44.968   6.245  11.386  0.00  0.00    +0.000 A 
ATOM      5  C   UNL     1      44.486   5.040  11.912  0.00  0.00    +0.000 A 
ATOM      6  C   UNL     1      45.109   4.513  13.051  0.00  0.00    +0.000 A 
ATOM      7  C   UNL     1      46.224   5.139  13.609  0.00  0.00    +0.000 A 
BRANCH   5   8
ATOM      8  C   UNL     1      43.310   4.303  11.313  0.00  0.00    +0.000 C 
BRANCH   8   9
ATOM      9  N   UNL     1      43.558   2.906  10.957  0.00  0.00    +0.000 NA
ATOM     10  H   UNL     1      42.788   2.566  10.385  0.00  0.00    +0.000 HD
BRANCH   9  11
ATOM     11  C   UNL     1      44.837   2.684  10.274  0.00  0.00    +0.000 C 
BRANCH  11  12
ATOM     12  C   UNL     1      44.569   2.411   8.779  0.00  0.00    +0.000 C 
ATOM     13  C   UNL     1      45.352   1.195   8.254  0.00  0.00    +0.000 C 
ATOM     14  C   UNL     1      46.809   1.519   7.938  0.00  0.00    +0.000 C 
ATOM     15  N   UNL     1      46.920   2.646   7.011  0.00  0.00    +0.000 NA
ATOM     16  C   UNL     1      46.327   3.849   7.592  0.00  0.00    +0.000 C 
ATOM     17  C   UNL     1      44.847   3.651   7.910  0.00  0.00    +0.000 C 
ATOM     18  H   UNL     1      46.420   2.413   6.151  0.00  0.00    +0.000 HD
ENDBRANCH  11  12
ENDBRANCH   9  11
ENDBRANCH   8   9
ENDBRANCH   5   8
ENDBRANCH   1   2
BRANCH   1  21
ATOM     19  O   UNL     1      50.196   6.652  15.341  0.00  0.00    +0.000 OA
ATOM     20  C   UNL     1      49.078   6.817  15.815  0.00  0.00    +0.000 C 
ATOM     21  N   UNL     1      47.954   6.963  15.049  0.00  0.00    +0.000 N 
ATOM     22  H   UNL     1      47.053   7.052  15.502  0.00  0.00    +0.000 HD
BRANCH  20  23
ATOM     23  C   UNL     1      48.848   6.860  17.265  0.00  0.00    +0.000 A 
ATOM     24  C   UNL     1      48.491   8.052  17.886  0.00  0.00    +0.000 A 
ATOM     25  S   UNL     1      48.232   7.889  19.565  0.00  0.00    +0.000 S 
ATOM     26  C   UNL     1      48.550   6.217  19.512  0.00  0.00    +0.000 A 
ATOM     27  N   UNL     1      48.456   5.446  20.628  0.00  0.00    +0.000 NA
ATOM     28  C   UNL     1      48.669   4.188  20.429  0.00  0.00    +0.000 A 
ATOM     29  N   UNL     1      48.984   3.630  19.221  0.00  0.00    +0.000 N 
ATOM     30  C   UNL     1      49.183   4.379  18.088  0.00  0.00    +0.000 A 
ATOM     31  O   UNL     1      49.633   3.869  17.068  0.00  0.00    +0.000 OA
ATOM     32  C   UNL     1      48.891   5.793  18.240  0.00  0.00    +0.000 A 
ATOM     33  H   UNL     1      49.181   2.643  19.139  0.00  0.00    +0.000 HD
ENDBRANCH  20  23
ENDBRANCH   1  21
BRANCH   1  34
ATOM     34  C   UNL     1      48.064   8.524  13.149  0.00  0.00    +0.000 C 
BRANCH  34  35
ATOM     35  O   UNL     1      47.456   9.430  14.070  0.00  0.00    +0.000 OA
ATOM     36  H   UNL     1      46.589   9.062  14.320  0.00  0.00    +0.000 HD
ENDBRANCH  34  35
ENDBRANCH   1  34
TORSDOF 9
ENDMDL
MODEL 3
REMARK VINA RESULT:    -7.092      3.945      5.699
REMARK INTER + INTRA:         -11.843
REMARK INTER:                 -10.652
REMARK INTRA:                  -1.191
REMARK UNBOUND:                -1.227
REMARK  Name = 
REMARK  9 active torsions:
REMARK  status: ('A' for Active; 'I' for Inactive)
REMARK    1  A    between atoms: C_2  and  C_22
REMARK    2  A    between atoms: N_3  and  CA_4
REMARK    3  A    between atoms: CA_4  and  C_5
REMARK    4  A    between atoms: CA_4  and  C_7
REMARK    5  A    between atoms: C_5  and  O_6
REMARK    6  A    between atoms: C_10  and  C_11
REMARK    7  A    between atoms: C_11  and  N_12
REMARK    8  A    between atoms: N_12  and  C_13
REMARK    9  A    between atoms: C_13  and  C_14
REMARK                            x       y       z     vdW  Elec       q    Type
REMARK                         _______ _______ _______ _____ _____    ______ ____
ROOT
ATOM      1  CA  UNL     1      48.424   4.124  17.142  0.00  0.00    +0.000 C 
ENDROOT
BRANCH   1   2
ATOM      2  C   UNL     1      48.040   4.842  15.859  0.00  0.00    +0.000 A 
ATOM      3  C   UNL     1      47.125   4.219  15.001  0.00  0.00    +0.000 A 
ATOM      4  C   UNL     1      46.716   4.835  13.822  0.00  0.00    +0.000 A 
ATOM      5  C   UNL     1      47.176   6.115  13.486  0.00  0.00    +0.000 A 
ATOM      6  C   UNL     1      48.110   6.730  14.330  0.00  0.00    +0.000 A 
ATOM      7  C   UNL     1      48.524   6.110  15.509  0.00  0.00    +0.000 A 
BRANCH   5   8
ATOM      8  C   UNL     1      46.721   6.843  12.243  0.00  0.00    +0.000 C 
BRANCH   8   9
ATOM      9  N   UNL     1      45.470   6.365  11.655  0.00  0.00    +0.000 NA
ATOM     10  H   UNL     1      44.868   7.161  11.458  0.00  0.00    +0.000 HD
BRANCH   9  11
ATOM     11  C   UNL     1      45.652   5.552  10.448  0.00  0.00    +0.000 C 
BRANCH  11  12
ATOM     12  C   UNL     1      44.286   4.979  10.015  0.00  0.00    +0.000 C 
ATOM     13  C   UNL     1      43.446   4.498  11.211  0.00  0.00    +0.000 C 
ATOM     14  C   UNL     1      43.868   3.120  11.715  0.00  0.00    +0.000 C 
ATOM     15  N   UNL     1      43.856   2.128  10.640  0.00  0.00    +0.000 NA
ATOM     16  C   UNL     1      44.792   2.505   9.583  0.00  0.00    +0.000 C 
ATOM     17  C   UNL     1      44.437   3.858   8.972  0.00  0.00    +0.000 C 
ATOM     18  H   UNL     1      42.914   2.082  10.247  0.00  0.00    +0.000 HD
ENDBRANCH  11  12
ENDBRANCH   9  11
ENDBRANCH   8   9
ENDBRANCH   5   8
ENDBRANCH   1   2
BRANCH   1  21
ATOM     19  O   UNL     1      50.200   4.621  19.338  0.00  0.00    +0.000 OA
ATOM     20  C   UNL     1      50.641   4.174  18.285  0.00  0.00    +0.000 C 
ATOM     21  N   UNL     1      49.864   3.956  17.180  0.00  0.00    +0.000 N 
ATOM     22  H   UNL     1      50.297   3.626  16.327  0.00  0.00    +0.000 HD
BRANCH  20  23
ATOM     23  C   UNL     1      52.061   3.840  18.118  0.00  0.00    +0.000 A 
ATOM     24  C   UNL     1      53.041   4.803  18.337  0.00  0.00    +0.000 A 
ATOM     25  S   UNL     1      54.629   4.212  18.131  0.00  0.00    +0.000 S 
ATOM     26  C   UNL     1      54.063   2.645  17.781  0.00  0.00    +0.000 A 
ATOM     27  N   UNL     1      54.927   1.621  17.546  0.00  0.00    +0.000 NA
ATOM     28  C   UNL     1      54.360   0.476  17.351  0.00  0.00    +0.000 A 
ATOM     29  N   UNL     1      53.009   0.264  17.352  0.00  0.00    +0.000 N 
ATOM     30  C   UNL     1      52.098   1.281  17.490  0.00  0.00    +0.000 A 
ATOM     31  O   UNL     1      50.901   1.082  17.313  0.00  0.00    +0.000 OA
ATOM     32  C   UNL     1      52.681   2.578  17.780  0.00  0.00    +0.000 A 
ATOM     33  H   UNL     1      52.626  -0.649  17.151  0.00  0.00    +0.000 HD
ENDBRANCH  20  23
ENDBRANCH   1  21
BRANCH   1  34
ATOM     34  C   UNL     1      47.720   2.757  17.332  0.00  0.00    +0.000 C 
BRANCH  34  35
ATOM     35  O   UNL     1      46.380   2.888  17.806  0.00  0.00    +0.000 OA
ATOM     36  H   UNL     1      46.261   2.257  18.538  0.00  0.00    +0.000 HD
ENDBRANCH  34  35
ENDBRANCH   1  34
TORSDOF 9
ENDMDL
MODEL 4
REMARK VINA RESULT:    -6.827      2.604      3.689
REMARK INTER + INTRA:         -11.446
REMARK INTER:                 -10.090
REMARK INTRA:                  -1.356
REMARK UNBOUND:                -1.227
REMARK  Name = 
REMARK  9 active torsions:
REMARK  status: ('A' for Active; 'I' for Inactive)
REMARK    1  A    between atoms: C_2  and  C_22
REMARK    2  A    between atoms: N_3  and  CA_4
REMARK    3  A    between atoms: CA_4  and  C_5
REMARK    4  A    between atoms: CA_4  and  C_7
REMARK    5  A    between atoms: C_5  and  O_6
REMARK    6  A    between atoms: C_10  and  C_11
REMARK    7  A    between atoms: C_11  and  N_12
REMARK    8  A    between atoms: N_12  and  C_13
REMARK    9  A    between atoms: C_13  and  C_14
REMARK                            x       y       z     vdW  Elec       q    Type
REMARK                         _______ _______ _______ _____ _____    ______ ____
ROOT
ATOM      1  CA  UNL     1      46.984   4.803  15.054  0.00  0.00    +0.000 C 
ENDROOT
BRANCH   1   2
ATOM      2  C   UNL     1      46.320   4.734  13.689  0.00  0.00    +0.000 A 
ATOM      3  C   UNL     1      45.945   3.477  13.198  0.00  0.00    +0.000 A 
ATOM      4  C   UNL     1      45.312   3.350  11.965  0.00  0.00    +0.000 A 
ATOM      5  C   UNL     1      44.994   4.482  11.204  0.00  0.00    +0.000 A 
ATOM      6  C   UNL     1      45.389   5.739  11.680  0.00  0.00    +0.000 A 
ATOM      7  C   UNL     1      46.028   5.866  12.914  0.00  0.00    +0.000 A 
BRANCH   5   8
ATOM      8  C   UNL     1      44.262   4.396   9.884  0.00  0.00    +0.000 C 
BRANCH   8   9
ATOM      9  N   UNL     1      44.956   4.986   8.740  0.00  0.00    +0.000 NA
ATOM     10  H   UNL     1      45.217   5.943   8.966  0.00  0.00    +0.000 HD
BRANCH   9  11
ATOM     11  C   UNL     1      46.131   4.227   8.299  0.00  0.00    +0.000 C 
BRANCH  11  12
ATOM     12  C   UNL     1      45.697   3.197   7.236  0.00  0.00    +0.000 C 
ATOM     13  C   UNL     1      45.570   1.776   7.812  0.00  0.00    +0.000 C 
ATOM     14  C   UNL     1      46.916   1.071   7.950  0.00  0.00    +0.000 C 
ATOM     15  N   UNL     1      47.646   1.053   6.682  0.00  0.00    +0.000 NA
ATOM     16  C   UNL     1      47.919   2.415   6.227  0.00  0.00    +0.000 C 
ATOM     17  C   UNL     1      46.630   3.205   6.012  0.00  0.00    +0.000 C 
ATOM     18  H   UNL     1      47.074   0.578   5.981  0.00  0.00    +0.000 HD
ENDBRANCH  11  12
ENDBRANCH   9  11
ENDBRANCH   8   9
ENDBRANCH   5   8
ENDBRANCH   1   2
BRANCH   1  21
ATOM     19  O   UNL     1      48.402   5.995  17.243  0.00  0.00    +0.000 OA
ATOM     20  C   UNL     1      48.749   6.228  16.091  0.00  0.00    +0.000 C 
ATOM     21  N   UNL     1      48.093   5.735  14.996  0.00  0.00    +0.000 N 
ATOM     22  H   UNL     1      48.404   6.002  14.070  0.00  0.00    +0.000 HD
BRANCH  20  23
ATOM     23  C   UNL     1      49.907   7.078  15.788  0.00  0.00    +0.000 A 
ATOM     24  C   UNL     1      51.180   6.713  16.215  0.00  0.00    +0.000 A 
ATOM     25  S   UNL     1      52.397   7.808  15.731  0.00  0.00    +0.000 S 
ATOM     26  C   UNL     1      51.272   8.784  14.905  0.00  0.00    +0.000 A 
ATOM     27  N   UNL     1      51.669   9.888  14.217  0.00  0.00    +0.000 NA
ATOM     28  C   UNL     1      50.719  10.499  13.591  0.00  0.00    +0.000 A 
ATOM     29  N   UNL     1      49.405  10.120  13.603  0.00  0.00    +0.000 N 
ATOM     30  C   UNL     1      48.943   9.072  14.358  0.00  0.00    +0.000 A 
ATOM     31  O   UNL     1      47.740   8.867  14.482  0.00  0.00    +0.000 OA
ATOM     32  C   UNL     1      49.979   8.307  15.028  0.00  0.00    +0.000 A 
ATOM     33  H   UNL     1      48.701  10.667  13.128  0.00  0.00    +0.000 HD
ENDBRANCH  20  23
ENDBRANCH   1  21
BRANCH   1  34
ATOM     34  C   UNL     1      47.465   3.431  15.588  0.00  0.00    +0.000 C 
BRANCH  34  35
ATOM     35  O   UNL     1      47.055   3.189  16.934  0.00  0.00    +0.000 OA
ATOM     36  H   UNL     1      46.334   2.533  16.911  0.00  0.00    +0.000 HD
ENDBRANCH  34  35
ENDBRANCH   1  34
TORSDOF 9
ENDMDL
MODEL 5
REMARK VINA RESULT:    -6.681      4.030      6.180
REMARK INTER + INTRA:         -11.229
REMARK INTER:                 -10.133
REMARK INTRA:                  -1.095
REMARK UNBOUND:                -1.227
REMARK  Name = 
REMARK  9 active torsions:
REMARK  status: ('A' for Active; 'I' for Inactive)
REMARK    1  A    between atoms: C_2  and  C_22
REMARK    2  A    between atoms: N_3  and  CA_4
REMARK    3  A    between atoms: CA_4  and  C_5
REMARK    4  A    between atoms: CA_4  and  C_7
REMARK    5  A    between atoms: C_5  and  O_6
REMARK    6  A    between atoms: C_10  and  C_11
REMARK    7  A    between atoms: C_11  and  N_12
REMARK    8  A    between atoms: N_12  and  C_13
REMARK    9  A    between atoms: C_13  and  C_14
REMARK                            x       y       z     vdW  Elec       q    Type
REMARK                         _______ _______ _______ _____ _____    ______ ____
ROOT
ATOM      1  CA  UNL     1      49.312   5.305  19.049  0.00  0.00    +0.000 C 
ENDROOT
BRANCH   1   2
ATOM      2  C   UNL     1      48.649   5.185  17.687  0.00  0.00    +0.000 A 
ATOM      3  C   UNL     1      48.843   6.220  16.764  0.00  0.00    +0.000 A 
ATOM      4  C   UNL     1      48.281   6.159  15.492  0.00  0.00    +0.000 A 
ATOM      5  C   UNL     1      47.545   5.037  15.088  0.00  0.00    +0.000 A 
ATOM      6  C   UNL     1      47.329   4.011  16.017  0.00  0.00    +0.000 A 
ATOM      7  C   UNL     1      47.888   4.075  17.294  0.00  0.00    +0.000 A 
BRANCH   5   8
ATOM      8  C   UNL     1      46.961   4.904  13.700  0.00  0.00    +0.000 C 
BRANCH   8   9
ATOM      9  N   UNL     1      45.606   4.357  13.637  0.00  0.00    +0.000 NA
ATOM     10  H   UNL     1      44.953   5.105  13.417  0.00  0.00    +0.000 HD
BRANCH   9  11
ATOM     11  C   UNL     1      45.454   3.251  12.686  0.00  0.00    +0.000 C 
BRANCH  11  12
ATOM     12  C   UNL     1      44.002   3.232  12.163  0.00  0.00    +0.000 C 
ATOM     13  C   UNL     1      43.927   2.976  10.648  0.00  0.00    +0.000 C 
ATOM     14  C   UNL     1      44.212   4.227   9.821  0.00  0.00    +0.000 C 
ATOM     15  N   UNL     1      43.336   5.335  10.204  0.00  0.00    +0.000 NA
ATOM     16  C   UNL     1      43.542   5.691  11.607  0.00  0.00    +0.000 C 
ATOM     17  C   UNL     1      43.241   4.516  12.535  0.00  0.00    +0.000 C 
ATOM     18  H   UNL     1      42.365   5.045  10.075  0.00  0.00    +0.000 HD
ENDBRANCH  11  12
ENDBRANCH   9  11
ENDBRANCH   8   9
ENDBRANCH   5   8
ENDBRANCH   1   2
BRANCH   1  21
ATOM     19  O   UNL     1      51.991   5.918  18.231  0.00  0.00    +0.000 OA
ATOM     20  C   UNL     1      51.737   4.823  18.720  0.00  0.00    +0.000 C 
ATOM     21  N   UNL     1      50.476   4.442  19.089  0.00  0.00    +0.000 N 
ATOM     22  H   UNL     1      50.326   3.507  19.447  0.00  0.00    +0.000 HD
BRANCH  20  23
ATOM     23  C   UNL     1      52.779   3.813  18.943  0.00  0.00    +0.000 A 
ATOM     24  C   UNL     1      53.857   4.085  19.779  0.00  0.00    +0.000 A 
ATOM     25  S   UNL     1      54.938   2.773  19.939  0.00  0.00    +0.000 S 
ATOM     26  C   UNL     1      53.984   1.788  18.929  0.00  0.00    +0.000 A 
ATOM     27  N   UNL     1      54.327   0.496  18.679  0.00  0.00    +0.000 NA
ATOM     28  C   UNL     1      53.483  -0.149  17.943  0.00  0.00    +0.000 A 
ATOM     29  N   UNL     1      52.337   0.383  17.421  0.00  0.00    +0.000 N 
ATOM     30  C   UNL     1      51.998   1.705  17.567  0.00  0.00    +0.000 A 
ATOM     31  O   UNL     1      51.059   2.187  16.943  0.00  0.00    +0.000 OA
ATOM     32  C   UNL     1      52.878   2.460  18.441  0.00  0.00    +0.000 A 
ATOM     33  H   UNL     1      51.739  -0.163  16.816  0.00  0.00    +0.000 HD
ENDBRANCH  20  23
ENDBRANCH   1  21
BRANCH   1  34
ATOM     34  C   UNL     1      48.369   4.988  20.237  0.00  0.00    +0.000 C 
BRANCH  34  35
ATOM     35  O   UNL     1      48.506   3.648  20.707  0.00  0.00    +0.000 OA
ATOM     36  H   UNL     1      49.440   3.391  20.604  0.00  0.00    +0.000 HD
ENDBRANCH  34  35
ENDBRANCH   1  34
TORSDOF 9
ENDMDL
MODEL 6
REMARK VINA RESULT:    -6.337      4.538      7.973
REMARK INTER + INTRA:         -10.713
REMARK INTER:                  -9.646
REMARK INTRA:                  -1.067
REMARK UNBOUND:                -1.227
REMARK  Name = 
REMARK  9 active torsions:
REMARK  status: ('A' for Active; 'I' for Inactive)
REMARK    1  A    between atoms: C_2  and  C_22
REMARK    2  A    between atoms: N_3  and  CA_4
REMARK    3  A    between atoms: CA_4  and  C_5
REMARK    4  A    between atoms: CA_4  and  C_7
REMARK    5  A    between atoms: C_5  and  O_6
REMARK    6  A    between atoms: C_10  and  C_11
REMARK    7  A    between atoms: C_11  and  N_12
REMARK    8  A    between atoms: N_12  and  C_13
REMARK    9  A    between atoms: C_13  and  C_14
REMARK                            x       y       z     vdW  Elec       q    Type
REMARK                         _______ _______ _______ _____ _____    ______ ____
ROOT
ATOM      1  CA  UNL     1      46.234   8.557  12.385  0.00  0.00    +0.000 C 
ENDROOT
BRANCH   1   2
ATOM      2  C   UNL     1      47.703   8.665  12.014  0.00  0.00    +0.000 A 
ATOM      3  C   UNL     1      48.235   9.941  11.785  0.00  0.00    +0.000 A 
ATOM      4  C   UNL     1      49.579  10.108  11.463  0.00  0.00    +0.000 A 
ATOM      5  C   UNL     1      50.443   9.007  11.404  0.00  0.00    +0.000 A 
ATOM      6  C   UNL     1      49.909   7.728  11.609  0.00  0.00    +0.000 A 
ATOM      7  C   UNL     1      48.561   7.560  11.926  0.00  0.00    +0.000 A 
BRANCH   5   8
ATOM      8  C   UNL     1      51.919   9.146  11.109  0.00  0.00    +0.000 C 
BRANCH   8   9
ATOM      9  N   UNL     1      52.260   9.409   9.712  0.00  0.00    +0.000 NA
ATOM     10  H   UNL     1      52.660  10.342   9.636  0.00  0.00    +0.000 HD
BRANCH   9  11
ATOM     11  C   UNL     1      53.166   8.417   9.123  0.00  0.00    +0.000 C 
BRANCH  11  12
ATOM     12  C   UNL     1      52.442   7.056   9.049  0.00  0.00    +0.000 C 
ATOM     13  C   UNL     1      53.093   5.995   9.953  0.00  0.00    +0.000 C 
ATOM     14  C   UNL     1      54.339   5.370   9.330  0.00  0.00    +0.000 C 
ATOM     15  N   UNL     1      54.058   4.820   8.004  0.00  0.00    +0.000 NA
ATOM     16  C   UNL     1      53.605   5.873   7.096  0.00  0.00    +0.000 C 
ATOM     17  C   UNL     1      52.330   6.542   7.603  0.00  0.00    +0.000 C 
ATOM     18  H   UNL     1      53.322   4.117   8.090  0.00  0.00    +0.000 HD
ENDBRANCH  11  12
ENDBRANCH   9  11
ENDBRANCH   8   9
ENDBRANCH   5   8
ENDBRANCH   1   2
BRANCH   1  21
ATOM     19  O   UNL     1      46.250   6.051  13.781  0.00  0.00    +0.000 OA
ATOM     20  C   UNL     1      45.726   6.132  12.675  0.00  0.00    +0.000 C 
ATOM     21  N   UNL     1      45.721   7.279  11.930  0.00  0.00    +0.000 N 
ATOM     22  H   UNL     1      45.310   7.268  11.005  0.00  0.00    +0.000 HD
BRANCH  20  23
ATOM     23  C   UNL     1      45.061   4.983  12.047  0.00  0.00    +0.000 A 
ATOM     24  C   UNL     1      44.261   4.132  12.803  0.00  0.00    +0.000 A 
ATOM     25  S   UNL     1      43.546   2.882  11.886  0.00  0.00    +0.000 S 
ATOM     26  C   UNL     1      44.249   3.457  10.445  0.00  0.00    +0.000 A 
ATOM     27  N   UNL     1      44.001   2.855   9.252  0.00  0.00    +0.000 NA
ATOM     28  C   UNL     1      44.553   3.431   8.236  0.00  0.00    +0.000 A 
ATOM     29  N   UNL     1      45.344   4.545   8.304  0.00  0.00    +0.000 N 
ATOM     30  C   UNL     1      45.699   5.130   9.494  0.00  0.00    +0.000 A 
ATOM     31  O   UNL     1      46.546   6.017   9.531  0.00  0.00    +0.000 OA
ATOM     32  C   UNL     1      45.051   4.563  10.663  0.00  0.00    +0.000 A 
ATOM     33  H   UNL     1      45.783   4.923   7.477  0.00  0.00    +0.000 HD
ENDBRANCH  20  23
ENDBRANCH   1  21
BRANCH   1  34
ATOM     34  C   UNL     1      45.360   9.711  11.835  0.00  0.00    +0.000 C 
BRANCH  34  35
ATOM     35  O   UNL     1      44.244  10.006  12.675  0.00  0.00    +0.000 OA
ATOM     36  H   UNL     1      44.511  10.717  13.285  0.00  0.00    +0.000 HD
ENDBRANCH  34  35
ENDBRANCH   1  34
TORSDOF 9
ENDMDL
MODEL 7
REMARK VINA RESULT:    -6.313      3.862      8.726
REMARK INTER + INTRA:         -10.677
REMARK INTER:                  -8.424
REMARK INTRA:                  -2.253
REMARK UNBOUND:                -1.227
REMARK  Name = 
REMARK  9 active torsions:
REMARK  status: ('A' for Active; 'I' for Inactive)
REMARK    1  A    between atoms: C_2  and  C_22
REMARK    2  A    between atoms: N_3  and  CA_4
REMARK    3  A    between atoms: CA_4  and  C_5
REMARK    4  A    between atoms: CA_4  and  C_7
REMARK    5  A    between atoms: C_5  and  O_6
REMARK    6  A    between atoms: C_10  and  C_11
REMARK    7  A    between atoms: C_11  and  N_12
REMARK    8  A    between atoms: N_12  and  C_13
REMARK    9  A    between atoms: C_13  and  C_14
REMARK                            x       y       z     vdW  Elec       q    Type
REMARK                         _______ _______ _______ _____ _____    ______ ____
ROOT
ATOM      1  CA  UNL     1      48.030   4.210  16.570  0.00  0.00    +0.000 C 
ENDROOT
BRANCH   1   2
ATOM      2  C   UNL     1      48.786   5.274  17.349  0.00  0.00    +0.000 A 
ATOM      3  C   UNL     1      48.054   6.121  18.191  0.00  0.00    +0.000 A 
ATOM      4  C   UNL     1      48.690   7.100  18.948  0.00  0.00    +0.000 A 
ATOM      5  C   UNL     1      50.084   7.233  18.921  0.00  0.00    +0.000 A 
ATOM      6  C   UNL     1      50.817   6.404  18.061  0.00  0.00    +0.000 A 
ATOM      7  C   UNL     1      50.178   5.425  17.298  0.00  0.00    +0.000 A 
BRANCH   5   8
ATOM      8  C   UNL     1      50.822   8.247  19.764  0.00  0.00    +0.000 C 
BRANCH   8   9
ATOM      9  N   UNL     1      50.583   9.648  19.418  0.00  0.00    +0.000 NA
ATOM     10  H   UNL     1      51.085  10.244  20.072  0.00  0.00    +0.000 HD
BRANCH   9  11
ATOM     11  C   UNL     1      50.943   9.990  18.037  0.00  0.00    +0.000 C 
BRANCH  11  12
ATOM     12  C   UNL     1      49.907  10.988  17.479  0.00  0.00    +0.000 C 
ATOM     13  C   UNL     1      48.474  10.429  17.515  0.00  0.00    +0.000 C 
ATOM     14  C   UNL     1      48.181   9.474  16.361  0.00  0.00    +0.000 C 
ATOM     15  N   UNL     1      48.463  10.095  15.066  0.00  0.00    +0.000 NA
ATOM     16  C   UNL     1      49.874  10.466  14.971  0.00  0.00    +0.000 C 
ATOM     17  C   UNL     1      50.269  11.460  16.060  0.00  0.00    +0.000 C 
ATOM     18  H   UNL     1      47.892  10.937  14.975  0.00  0.00    +0.000 HD
ENDBRANCH  11  12
ENDBRANCH   9  11
ENDBRANCH   8   9
ENDBRANCH   5   8
ENDBRANCH   1   2
BRANCH   1  21
ATOM     19  O   UNL     1      47.315   3.190  13.987  0.00  0.00    +0.000 OA
ATOM     20  C   UNL     1      46.887   4.279  14.354  0.00  0.00    +0.000 C 
ATOM     21  N   UNL     1      47.223   4.851  15.550  0.00  0.00    +0.000 N 
ATOM     22  H   UNL     1      46.871   5.774  15.774  0.00  0.00    +0.000 HD
BRANCH  20  23
ATOM     23  C   UNL     1      45.976   5.074  13.521  0.00  0.00    +0.000 A 
ATOM     24  C   UNL     1      44.762   4.542  13.098  0.00  0.00    +0.000 A 
ATOM     25  S   UNL     1      43.830   5.633  12.174  0.00  0.00    +0.000 S 
ATOM     26  C   UNL     1      44.996   6.862  12.340  0.00  0.00    +0.000 A 
ATOM     27  N   UNL     1      44.796   8.099  11.811  0.00  0.00    +0.000 NA
ATOM     28  C   UNL     1      45.737   8.948  12.063  0.00  0.00    +0.000 A 
ATOM     29  N   UNL     1      46.868   8.671  12.780  0.00  0.00    +0.000 N 
ATOM     30  C   UNL     1      47.158   7.415  13.251  0.00  0.00    +0.000 A 
ATOM     31  O   UNL     1      48.256   7.162  13.736  0.00  0.00    +0.000 OA
ATOM     32  C   UNL     1      46.102   6.438  13.054  0.00  0.00    +0.000 A 
ATOM     33  H   UNL     1      47.589   9.368  12.905  0.00  0.00    +0.000 HD
ENDBRANCH  20  23
ENDBRANCH   1  21
BRANCH   1  34
ATOM     34  C   UNL     1      47.148   3.292  17.452  0.00  0.00    +0.000 C 
BRANCH  34  35
ATOM     35  O   UNL     1      47.814   2.864  18.640  0.00  0.00    +0.000 OA
ATOM     36  H   UNL     1      48.689   2.521  18.383  0.00  0.00    +0.000 HD
ENDBRANCH  34  35
ENDBRANCH   1  34
TORSDOF 9
ENDMDL
MODEL 8
REMARK VINA RESULT:    -6.236      3.525      9.868
REMARK INTER + INTRA:         -10.563
REMARK INTER:                 -10.221
REMARK INTRA:                  -0.341
REMARK UNBOUND:                -1.227
REMARK  Name = 
REMARK  9 active torsions:
REMARK  status: ('A' for Active; 'I' for Inactive)
REMARK    1  A    between atoms: C_2  and  C_22
REMARK    2  A    between atoms: N_3  and  CA_4
REMARK    3  A    between atoms: CA_4  and  C_5
REMARK    4  A    between atoms: CA_4  and  C_7
REMARK    5  A    between atoms: C_5  and  O_6
REMARK    6  A    between atoms: C_10  and  C_11
REMARK    7  A    between atoms: C_11  and  N_12
REMARK    8  A    between atoms: N_12  and  C_13
REMARK    9  A    between atoms: C_13  and  C_14
REMARK                            x       y       z     vdW  Elec       q    Type
REMARK                         _______ _______ _______ _____ _____    ______ ____
ROOT
ATOM      1  CA  UNL     1      44.360   3.539  11.971  0.00  0.00    +0.000 C 
ENDROOT
BRANCH   1   2
ATOM      2  C   UNL     1      45.383   4.546  12.471  0.00  0.00    +0.000 A 
ATOM      3  C   UNL     1      46.091   4.244  13.641  0.00  0.00    +0.000 A 
ATOM      4  C   UNL     1      47.057   5.115  14.137  0.00  0.00    +0.000 A 
ATOM      5  C   UNL     1      47.375   6.295  13.453  0.00  0.00    +0.000 A 
ATOM      6  C   UNL     1      46.652   6.612  12.296  0.00  0.00    +0.000 A 
ATOM      7  C   UNL     1      45.680   5.742  11.802  0.00  0.00    +0.000 A 
BRANCH   5   8
ATOM      8  C   UNL     1      48.451   7.245  13.927  0.00  0.00    +0.000 C 
BRANCH   8   9
ATOM      9  N   UNL     1      49.496   6.650  14.759  0.00  0.00    +0.000 NA
ATOM     10  H   UNL     1      50.328   6.499  14.193  0.00  0.00    +0.000 HD
BRANCH   9  11
ATOM     11  C   UNL     1      49.827   7.435  15.953  0.00  0.00    +0.000 C 
BRANCH  11  12
ATOM     12  C   UNL     1      50.192   6.473  17.103  0.00  0.00    +0.000 C 
ATOM     13  C   UNL     1      49.347   5.187  17.085  0.00  0.00    +0.000 C 
ATOM     14  C   UNL     1      47.958   5.383  17.685  0.00  0.00    +0.000 C 
ATOM     15  N   UNL     1      48.029   5.936  19.037  0.00  0.00    +0.000 NA
ATOM     16  C   UNL     1      48.680   7.245  19.023  0.00  0.00    +0.000 C 
ATOM     17  C   UNL     1      50.103   7.160  18.477  0.00  0.00    +0.000 C 
ATOM     18  H   UNL     1      48.576   5.301  19.622  0.00  0.00    +0.000 HD
ENDBRANCH  11  12
ENDBRANCH   9  11
ENDBRANCH   8   9
ENDBRANCH   5   8
ENDBRANCH   1   2
BRANCH   1  21
ATOM     19  O   UNL     1      44.080   3.924   9.143  0.00  0.00    +0.000 OA
ATOM     20  C   UNL     1      44.802   3.030   9.569  0.00  0.00    +0.000 C 
ATOM     21  N   UNL     1      44.948   2.756  10.901  0.00  0.00    +0.000 N 
ATOM     22  H   UNL     1      45.526   1.975  11.186  0.00  0.00    +0.000 HD
BRANCH  20  23
ATOM     23  C   UNL     1      45.572   2.161   8.670  0.00  0.00    +0.000 A 
ATOM     24  C   UNL     1      45.463   0.777   8.764  0.00  0.00    +0.000 A 
ATOM     25  S   UNL     1      46.405  -0.056   7.610  0.00  0.00    +0.000 S 
ATOM     26  C   UNL     1      46.958   1.400   6.923  0.00  0.00    +0.000 A 
ATOM     27  N   UNL     1      47.783   1.401   5.842  0.00  0.00    +0.000 NA
ATOM     28  C   UNL     1      48.076   2.575   5.393  0.00  0.00    +0.000 A 
ATOM     29  N   UNL     1      47.637   3.752   5.934  0.00  0.00    +0.000 N 
ATOM     30  C   UNL     1      46.883   3.804   7.080  0.00  0.00    +0.000 A 
ATOM     31  O   UNL     1      46.653   4.874   7.634  0.00  0.00    +0.000 OA
ATOM     32  C   UNL     1      46.467   2.509   7.589  0.00  0.00    +0.000 A 
ATOM     33  H   UNL     1      47.937   4.641   5.562  0.00  0.00    +0.000 HD
ENDBRANCH  20  23
ENDBRANCH   1  21
BRANCH   1  34
ATOM     34  C   UNL     1      43.029   4.176  11.499  0.00  0.00    +0.000 C 
BRANCH  34  35
ATOM     35  O   UNL     1      42.356   4.880  12.542  0.00  0.00    +0.000 OA
ATOM     36  H   UNL     1      42.948   4.904  13.315  0.00  0.00    +0.000 HD
ENDBRANCH  34  35
ENDBRANCH   1  34
TORSDOF 9
ENDMDL
MODEL 9
REMARK VINA RESULT:    -5.948      3.970      9.936
REMARK INTER + INTRA:         -10.131
REMARK INTER:                  -8.752
REMARK INTRA:                  -1.379
REMARK UNBOUND:                -1.227
REMARK  Name = 
REMARK  9 active torsions:
REMARK  status: ('A' for Active; 'I' for Inactive)
REMARK    1  A    between atoms: C_2  and  C_22
REMARK    2  A    between atoms: N_3  and  CA_4
REMARK    3  A    between atoms: CA_4  and  C_5
REMARK    4  A    between atoms: CA_4  and  C_7
REMARK    5  A    between atoms: C_5  and  O_6
REMARK    6  A    between atoms: C_10  and  C_11
REMARK    7  A    between atoms: C_11  and  N_12
REMARK    8  A    between atoms: N_12  and  C_13
REMARK    9  A    between atoms: C_13  and  C_14
REMARK                            x       y       z     vdW  Elec       q    Type
REMARK                         _______ _______ _______ _____ _____    ______ ____
ROOT
ATOM      1  CA  UNL     1      47.890   3.997  16.519  0.00  0.00    +0.000 C 
ENDROOT
BRANCH   1   2
ATOM      2  C   UNL     1      49.263   4.538  16.881  0.00  0.00    +0.000 A 
ATOM      3  C   UNL     1      50.190   3.658  17.455  0.00  0.00    +0.000 A 
ATOM      4  C   UNL     1      51.472   4.087  17.788  0.00  0.00    +0.000 A 
ATOM      5  C   UNL     1      51.881   5.399  17.517  0.00  0.00    +0.000 A 
ATOM      6  C   UNL     1      50.949   6.288  16.965  0.00  0.00    +0.000 A 
ATOM      7  C   UNL     1      49.662   5.859  16.636  0.00  0.00    +0.000 A 
BRANCH   5   8
ATOM      8  C   UNL     1      53.277   5.894  17.814  0.00  0.00    +0.000 C 
BRANCH   8   9
ATOM      9  N   UNL     1      53.522   6.294  19.200  0.00  0.00    +0.000 NA
ATOM     10  H   UNL     1      54.482   6.064  19.448  0.00  0.00    +0.000 HD
BRANCH   9  11
ATOM     11  C   UNL     1      53.251   7.710  19.468  0.00  0.00    +0.000 C 
BRANCH  11  12
ATOM     12  C   UNL     1      52.607   7.844  20.864  0.00  0.00    +0.000 C 
ATOM     13  C   UNL     1      51.566   6.745  21.139  0.00  0.00    +0.000 C 
ATOM     14  C   UNL     1      50.217   7.032  20.486  0.00  0.00    +0.000 C 
ATOM     15  N   UNL     1      49.700   8.344  20.874  0.00  0.00    +0.000 NA
ATOM     16  C   UNL     1      50.616   9.402  20.451  0.00  0.00    +0.000 C 
ATOM     17  C   UNL     1      51.995   9.239  21.084  0.00  0.00    +0.000 C 
ATOM     18  H   UNL     1      49.608   8.373  21.891  0.00  0.00    +0.000 HD
ENDBRANCH  11  12
ENDBRANCH   9  11
ENDBRANCH   8   9
ENDBRANCH   5   8
ENDBRANCH   1   2
BRANCH   1  21
ATOM     19  O   UNL     1      47.047   3.262  13.878  0.00  0.00    +0.000 OA
ATOM     20  C   UNL     1      46.879   4.409  14.276  0.00  0.00    +0.000 C 
ATOM     21  N   UNL     1      47.298   4.845  15.503  0.00  0.00    +0.000 N 
ATOM     22  H   UNL     1      47.168   5.818  15.754  0.00  0.00    +0.000 HD
BRANCH  20  23
ATOM     23  C   UNL     1      46.216   5.427  13.451  0.00  0.00    +0.000 A 
ATOM     24  C   UNL     1      46.876   6.606  13.121  0.00  0.00    +0.000 A 
ATOM     25  S   UNL     1      45.954   7.642  12.125  0.00  0.00    +0.000 S 
ATOM     26  C   UNL     1      44.661   6.535  12.070  0.00  0.00    +0.000 A 
ATOM     27  N   UNL     1      43.546   6.791  11.335  0.00  0.00    +0.000 NA
ATOM     28  C   UNL     1      42.672   5.840  11.339  0.00  0.00    +0.000 A 
ATOM     29  N   UNL     1      42.801   4.663  12.024  0.00  0.00    +0.000 N 
ATOM     30  C   UNL     1      43.863   4.400  12.853  0.00  0.00    +0.000 A 
ATOM     31  O   UNL     1      43.862   3.415  13.584  0.00  0.00    +0.000 OA
ATOM     32  C   UNL     1      44.908   5.408  12.833  0.00  0.00    +0.000 A 
ATOM     33  H   UNL     1      42.061   3.975  12.022  0.00  0.00    +0.000 HD
ENDBRANCH  20  23
ENDBRANCH   1  21
BRANCH   1  34
ATOM     34  C   UNL     1      46.931   3.858  17.727  0.00  0.00    +0.000 C 
BRANCH  34  35
ATOM     35  O   UNL     1      46.752   2.502  18.136  0.00  0.00    +0.000 OA
ATOM     36  H   UNL     1      45.881   2.207  17.815  0.00  0.00    +0.000 HD
ENDBRANCH  34  35
ENDBRANCH   1  34
TORSDOF 9
ENDMDL
