MODEL 1
REMARK VINA RESULT:    -8.253      0.000      0.000
REMARK INTER + INTRA:         -11.908
REMARK INTER:                 -10.665
REMARK INTRA:                  -1.242
REMARK UNBOUND:                -1.242
REMARK  Name = 
REMARK  5 active torsions:
REMARK  status: ('A' for Active; 'I' for Inactive)
REMARK    1  A    between atoms: C_2  and  C_3
REMARK    2  A    between atoms: C_6  and  N_7
REMARK    3  A    between atoms: N_7  and  C_8
REMARK    4  A    between atoms: C_8  and  C_9
REMARK    5  A    between atoms: C_13  and  C_14
REMARK                            x       y       z     vdW  Elec       q    Type
REMARK                         _______ _______ _______ _____ _____    ______ ____
ROOT
ATOM      1  C   UNL     1      43.792   5.013  11.287  0.00  0.00    +0.000 C 
ATOM      2  C   UNL     1      42.410   5.268  11.900  0.00  0.00    +0.000 C 
ATOM      3  C   UNL     1      43.023   6.296  11.019  0.00  0.00    +0.000 C 
ENDROOT
BRANCH   1   4
ATOM      4  C   UNL     1      45.021   5.192  12.172  0.00  0.00    +0.000 A 
ATOM      5  C   UNL     1      45.485   4.144  12.979  0.00  0.00    +0.000 A 
ATOM      6  C   UNL     1      46.737   4.205  13.584  0.00  0.00    +0.000 A 
ATOM      7  C   UNL     1      47.552   5.321  13.389  0.00  0.00    +0.000 A 
ATOM      8  C   UNL     1      47.110   6.417  12.637  0.00  0.00    +0.000 A 
ATOM      9  C   UNL     1      45.816   6.350  12.090  0.00  0.00    +0.000 A 
BRANCH   8  10
ATOM     10  C   UNL     1      47.994   7.552  12.300  0.00  0.00    +0.000 A 
ATOM     11  C   UNL     1      49.353   7.331  11.988  0.00  0.00    +0.000 A 
ATOM     12  C   UNL     1      50.184   8.375  11.579  0.00  0.00    +0.000 A 
ATOM     13  C   UNL     1      49.669   9.654  11.468  0.00  0.00    +0.000 A 
ATOM     14  F   UNL     1      50.459  10.653  11.056  0.00  0.00    +0.000 F 
ATOM     15  C   UNL     1      48.339   9.914  11.772  0.00  0.00    +0.000 A 
ATOM     16  C   UNL     1      47.509   8.869  12.192  0.00  0.00    +0.000 A 
ENDBRANCH   8  10
ENDBRANCH   1   4
BRANCH   1  17
ATOM     17  N   UNL     1      43.837   3.826  10.418  0.00  0.00    +0.000 N 
ATOM     18  H   UNL     1      43.440   3.000  10.857  0.00  0.00    +0.000 HD
BRANCH  17  22
ATOM     19  C   UNL     1      46.609   2.612   7.547  0.00  0.00    +0.000 A 
ATOM     20  C   UNL     1      46.377   3.978   7.676  0.00  0.00    +0.000 A 
ATOM     21  C   UNL     1      45.488   4.417   8.663  0.00  0.00    +0.000 A 
ATOM     22  C   UNL     1      44.846   3.501   9.493  0.00  0.00    +0.000 A 
ATOM     23  C   UNL     1      45.158   2.152   9.271  0.00  0.00    +0.000 A 
ATOM     24  N   UNL     1      46.024   1.685   8.337  0.00  0.00    +0.000 NA
BRANCH  19  26
ATOM     25  N   UNL     1      48.239   1.732   5.719  0.00  0.00    +0.000 NA
ATOM     26  C   UNL     1      47.493   2.108   6.528  0.00  0.00    +0.000 C 
ENDBRANCH  19  26
ENDBRANCH  17  22
ENDBRANCH   1  17
TORSDOF 5
ENDMDL
MODEL 2
REMARK VINA RESULT:    -7.978      2.595      3.907
REMARK INTER + INTRA:         -11.553
REMARK INTER:                 -10.859
REMARK INTRA:                  -0.694
REMARK UNBOUND:                -1.242
REMARK  Name = 
REMARK  5 active torsions:
REMARK  status: ('A' for Active; 'I' for Inactive)
REMARK    1  A    between atoms: C_2  and  C_3
REMARK    2  A    between atoms: C_6  and  N_7
REMARK    3  A    between atoms: N_7  and  C_8
REMARK    4  A    between atoms: C_8  and  C_9
REMARK    5  A    between atoms: C_13  and  C_14
REMARK                            x       y       z     vdW  Elec       q    Type
REMARK                         _______ _______ _______ _____ _____    ______ ____
ROOT
ATOM      1  C   UNL     1      43.911   4.857  11.363  0.00  0.00    +0.000 C 
ATOM      2  C   UNL     1      42.821   4.774  12.438  0.00  0.00    +0.000 C 
ATOM      3  C   UNL     1      42.848   5.932  11.507  0.00  0.00    +0.000 C 
ENDROOT
BRANCH   1   4
ATOM      4  C   UNL     1      45.311   5.299  11.782  0.00  0.00    +0.000 A 
ATOM      5  C   UNL     1      45.958   6.354  11.125  0.00  0.00    +0.000 A 
ATOM      6  C   UNL     1      47.108   6.932  11.656  0.00  0.00    +0.000 A 
ATOM      7  C   UNL     1      47.631   6.462  12.861  0.00  0.00    +0.000 A 
ATOM      8  C   UNL     1      47.052   5.372  13.525  0.00  0.00    +0.000 A 
ATOM      9  C   UNL     1      45.927   4.772  12.931  0.00  0.00    +0.000 A 
BRANCH   8  10
ATOM     10  C   UNL     1      47.498   4.936  14.865  0.00  0.00    +0.000 A 
ATOM     11  C   UNL     1      48.248   5.805  15.687  0.00  0.00    +0.000 A 
ATOM     12  C   UNL     1      48.603   5.450  16.989  0.00  0.00    +0.000 A 
ATOM     13  C   UNL     1      48.206   4.224  17.493  0.00  0.00    +0.000 A 
ATOM     14  F   UNL     1      48.527   3.889  18.749  0.00  0.00    +0.000 F 
ATOM     15  C   UNL     1      47.473   3.338  16.715  0.00  0.00    +0.000 A 
ATOM     16  C   UNL     1      47.127   3.691  15.406  0.00  0.00    +0.000 A 
ENDBRANCH   8  10
ENDBRANCH   1   4
BRANCH   1  17
ATOM     17  N   UNL     1      43.889   3.729  10.419  0.00  0.00    +0.000 N 
ATOM     18  H   UNL     1      43.441   2.900  10.802  0.00  0.00    +0.000 HD
BRANCH  17  22
ATOM     19  C   UNL     1      46.624   2.491   7.523  0.00  0.00    +0.000 A 
ATOM     20  C   UNL     1      46.289   3.842   7.553  0.00  0.00    +0.000 A 
ATOM     21  C   UNL     1      45.411   4.293   8.543  0.00  0.00    +0.000 A 
ATOM     22  C   UNL     1      44.881   3.404   9.475  0.00  0.00    +0.000 A 
ATOM     23  C   UNL     1      45.289   2.069   9.347  0.00  0.00    +0.000 A 
ATOM     24  N   UNL     1      46.149   1.592   8.413  0.00  0.00    +0.000 NA
BRANCH  19  26
ATOM     25  N   UNL     1      48.210   1.594   5.665  0.00  0.00    +0.000 NA
ATOM     26  C   UNL     1      47.501   1.971   6.506  0.00  0.00    +0.000 C 
ENDBRANCH  19  26
ENDBRANCH  17  22
ENDBRANCH   1  17
TORSDOF 5
ENDMDL
MODEL 3
REMARK VINA RESULT:    -7.376      3.816      7.226
REMARK INTER + INTRA:         -10.775
REMARK INTER:                  -9.828
REMARK INTRA:                  -0.947
REMARK UNBOUND:                -1.242
REMARK  Name = 
REMARK  5 active torsions:
REMARK  status: ('A' for Active; 'I' for Inactive)
REMARK    1  A    between atoms: C_2  and  C_3
REMARK    2  A    between atoms: C_6  and  N_7
REMARK    3  A    between atoms: N_7  and  C_8
REMARK    4  A    between atoms: C_8  and  C_9
REMARK    5  A    between atoms: C_13  and  C_14
REMARK                            x       y       z     vdW  Elec       q    Type
REMARK                         _______ _______ _______ _____ _____    ______ ____
ROOT
ATOM      1  C   UNL     1      46.059   7.281  12.413  0.00  0.00    +0.000 C 
ATOM      2  C   UNL     1      46.099   8.621  11.669  0.00  0.00    +0.000 C 
ATOM      3  C   UNL     1      45.293   8.494  12.911  0.00  0.00    +0.000 C 
ENDROOT
BRANCH   1   4
ATOM      4  C   UNL     1      45.178   6.168  11.855  0.00  0.00    +0.000 A 
ATOM      5  C   UNL     1      43.797   6.156  12.095  0.00  0.00    +0.000 A 
ATOM      6  C   UNL     1      42.953   5.305  11.386  0.00  0.00    +0.000 A 
ATOM      7  C   UNL     1      43.480   4.449  10.418  0.00  0.00    +0.000 A 
ATOM      8  C   UNL     1      44.860   4.385  10.182  0.00  0.00    +0.000 A 
ATOM      9  C   UNL     1      45.691   5.214  10.958  0.00  0.00    +0.000 A 
BRANCH   8  10
ATOM     10  C   UNL     1      45.436   3.592   9.077  0.00  0.00    +0.000 A 
ATOM     11  C   UNL     1      46.057   4.234   7.984  0.00  0.00    +0.000 A 
ATOM     12  C   UNL     1      46.687   3.506   6.974  0.00  0.00    +0.000 A 
ATOM     13  C   UNL     1      46.715   2.125   7.045  0.00  0.00    +0.000 A 
ATOM     14  F   UNL     1      47.337   1.424   6.088  0.00  0.00    +0.000 F 
ATOM     15  C   UNL     1      46.111   1.454   8.101  0.00  0.00    +0.000 A 
ATOM     16  C   UNL     1      45.470   2.185   9.107  0.00  0.00    +0.000 A 
ENDBRANCH   8  10
ENDBRANCH   1   4
BRANCH   1  17
ATOM     17  N   UNL     1      47.380   6.832  12.881  0.00  0.00    +0.000 N 
ATOM     18  H   UNL     1      48.022   6.629  12.119  0.00  0.00    +0.000 HD
BRANCH  17  22
ATOM     19  C   UNL     1      48.148   4.809  16.446  0.00  0.00    +0.000 A 
ATOM     20  C   UNL     1      47.190   4.266  15.595  0.00  0.00    +0.000 A 
ATOM     21  C   UNL     1      46.946   4.898  14.371  0.00  0.00    +0.000 A 
ATOM     22  C   UNL     1      47.646   6.049  14.019  0.00  0.00    +0.000 A 
ATOM     23  C   UNL     1      48.586   6.503  14.955  0.00  0.00    +0.000 A 
ATOM     24  N   UNL     1      48.865   5.913  16.144  0.00  0.00    +0.000 NA
BRANCH  19  26
ATOM     25  N   UNL     1      48.617   3.771  18.787  0.00  0.00    +0.000 NA
ATOM     26  C   UNL     1      48.415   4.213  17.730  0.00  0.00    +0.000 C 
ENDBRANCH  19  26
ENDBRANCH  17  22
ENDBRANCH   1  17
TORSDOF 5
ENDMDL
MODEL 4
REMARK VINA RESULT:    -7.280      1.416      2.216
REMARK INTER + INTRA:         -10.650
REMARK INTER:                  -9.985
REMARK INTRA:                  -0.665
REMARK UNBOUND:                -1.242
REMARK  Name = 
REMARK  5 active torsions:
REMARK  status: ('A' for Active; 'I' for Inactive)
REMARK    1  A    between atoms: C_2  and  C_3
REMARK    2  A    between atoms: C_6  and  N_7
REMARK    3  A    between atoms: N_7  and  C_8
REMARK    4  A    between atoms: C_8  and  C_9
REMARK    5  A    between atoms: C_13  and  C_14
REMARK                            x       y       z     vdW  Elec       q    Type
REMARK                         _______ _______ _______ _____ _____    ______ ____
ROOT
ATOM      1  C   UNL     1      44.106   4.428  11.606  0.00  0.00    +0.000 C 
ATOM      2  C   UNL     1      44.570   3.492  12.728  0.00  0.00    +0.000 C 
ATOM      3  C   UNL     1      43.276   4.210  12.859  0.00  0.00    +0.000 C 
ENDROOT
BRANCH   1   4
ATOM      4  C   UNL     1      44.741   5.812  11.508  0.00  0.00    +0.000 A 
ATOM      5  C   UNL     1      43.952   6.951  11.287  0.00  0.00    +0.000 A 
ATOM      6  C   UNL     1      44.478   8.229  11.453  0.00  0.00    +0.000 A 
ATOM      7  C   UNL     1      45.807   8.391  11.847  0.00  0.00    +0.000 A 
ATOM      8  C   UNL     1      46.648   7.285  12.025  0.00  0.00    +0.000 A 
ATOM      9  C   UNL     1      46.104   6.010  11.790  0.00  0.00    +0.000 A 
BRANCH   8  10
ATOM     10  C   UNL     1      48.016   7.414  12.569  0.00  0.00    +0.000 A 
ATOM     11  C   UNL     1      49.063   7.907  11.761  0.00  0.00    +0.000 A 
ATOM     12  C   UNL     1      50.342   8.122  12.278  0.00  0.00    +0.000 A 
ATOM     13  C   UNL     1      50.592   7.857  13.612  0.00  0.00    +0.000 A 
ATOM     14  F   UNL     1      51.812   8.082  14.116  0.00  0.00    +0.000 F 
ATOM     15  C   UNL     1      49.590   7.365  14.440  0.00  0.00    +0.000 A 
ATOM     16  C   UNL     1      48.312   7.139  13.918  0.00  0.00    +0.000 A 
ENDBRANCH   8  10
ENDBRANCH   1   4
BRANCH   1  17
ATOM     17  N   UNL     1      43.928   3.749  10.313  0.00  0.00    +0.000 N 
ATOM     18  H   UNL     1      43.192   3.047  10.332  0.00  0.00    +0.000 HD
BRANCH  17  22
ATOM     19  C   UNL     1      46.707   2.549   7.444  0.00  0.00    +0.000 A 
ATOM     20  C   UNL     1      46.434   3.910   7.541  0.00  0.00    +0.000 A 
ATOM     21  C   UNL     1      45.542   4.346   8.526  0.00  0.00    +0.000 A 
ATOM     22  C   UNL     1      44.938   3.432   9.385  0.00  0.00    +0.000 A 
ATOM     23  C   UNL     1      45.288   2.088   9.193  0.00  0.00    +0.000 A 
ATOM     24  N   UNL     1      46.159   1.625   8.262  0.00  0.00    +0.000 NA
BRANCH  19  26
ATOM     25  N   UNL     1      48.343   1.627   5.641  0.00  0.00    +0.000 NA
ATOM     26  C   UNL     1      47.596   2.047   6.428  0.00  0.00    +0.000 C 
ENDBRANCH  19  26
ENDBRANCH  17  22
ENDBRANCH   1  17
TORSDOF 5
ENDMDL
MODEL 5
REMARK VINA RESULT:    -6.780      3.536      6.903
REMARK INTER + INTRA:         -10.005
REMARK INTER:                  -8.871
REMARK INTRA:                  -1.134
REMARK UNBOUND:                -1.242
REMARK  Name = 
REMARK  5 active torsions:
REMARK  status: ('A' for Active; 'I' for Inactive)
REMARK    1  A    between atoms: C_2  and  C_3
REMARK    2  A    between atoms: C_6  and  N_7
REMARK    3  A    between atoms: N_7  and  C_8
REMARK    4  A    between atoms: C_8  and  C_9
REMARK    5  A    between atoms: C_13  and  C_14
REMARK                            x       y       z     vdW  Elec       q    Type
REMARK                         _______ _______ _______ _____ _____    ______ ____
ROOT
ATOM      1  C   UNL     1      46.129   5.153  13.442  0.00  0.00    +0.000 C 
ATOM      2  C   UNL     1      46.101   4.364  14.756  0.00  0.00    +0.000 C 
ATOM      3  C   UNL     1      47.198   4.129  13.782  0.00  0.00    +0.000 C 
ENDROOT
BRANCH   1   4
ATOM      4  C   UNL     1      45.186   4.726  12.320  0.00  0.00    +0.000 A 
ATOM      5  C   UNL     1      43.874   5.216  12.259  0.00  0.00    +0.000 A 
ATOM      6  C   UNL     1      43.097   5.044  11.116  0.00  0.00    +0.000 A 
ATOM      7  C   UNL     1      43.624   4.377  10.009  0.00  0.00    +0.000 A 
ATOM      8  C   UNL     1      44.910   3.821  10.044  0.00  0.00    +0.000 A 
ATOM      9  C   UNL     1      45.646   3.959  11.235  0.00  0.00    +0.000 A 
BRANCH   8  10
ATOM     10  C   UNL     1      45.547   3.228   8.850  0.00  0.00    +0.000 A 
ATOM     11  C   UNL     1      46.007   4.054   7.801  0.00  0.00    +0.000 A 
ATOM     12  C   UNL     1      46.692   3.525   6.706  0.00  0.00    +0.000 A 
ATOM     13  C   UNL     1      46.935   2.165   6.645  0.00  0.00    +0.000 A 
ATOM     14  F   UNL     1      47.610   1.658   5.606  0.00  0.00    +0.000 F 
ATOM     15  C   UNL     1      46.493   1.317   7.654  0.00  0.00    +0.000 A 
ATOM     16  C   UNL     1      45.798   1.847   8.746  0.00  0.00    +0.000 A 
ENDBRANCH   8  10
ENDBRANCH   1   4
BRANCH   1  17
ATOM     17  N   UNL     1      46.222   6.609  13.635  0.00  0.00    +0.000 N 
ATOM     18  H   UNL     1      45.343   7.025  13.932  0.00  0.00    +0.000 HD
BRANCH  17  22
ATOM     19  C   UNL     1      48.586   9.460  11.718  0.00  0.00    +0.000 A 
ATOM     20  C   UNL     1      48.898   8.121  11.505  0.00  0.00    +0.000 A 
ATOM     21  C   UNL     1      48.094   7.142  12.098  0.00  0.00    +0.000 A 
ATOM     22  C   UNL     1      47.006   7.507  12.887  0.00  0.00    +0.000 A 
ATOM     23  C   UNL     1      46.788   8.884  13.031  0.00  0.00    +0.000 A 
ATOM     24  N   UNL     1      47.533   9.865  12.462  0.00  0.00    +0.000 NA
BRANCH  19  26
ATOM     25  N   UNL     1      50.083  11.317  10.677  0.00  0.00    +0.000 NA
ATOM     26  C   UNL     1      49.400  10.506  11.154  0.00  0.00    +0.000 C 
ENDBRANCH  19  26
ENDBRANCH  17  22
ENDBRANCH   1  17
TORSDOF 5
ENDMDL
MODEL 6
REMARK VINA RESULT:    -6.629      3.954      7.260
REMARK INTER + INTRA:          -9.809
REMARK INTER:                  -8.966
REMARK INTRA:                  -0.842
REMARK UNBOUND:                -1.242
REMARK  Name = 
REMARK  5 active torsions:
REMARK  status: ('A' for Active; 'I' for Inactive)
REMARK    1  A    between atoms: C_2  and  C_3
REMARK    2  A    between atoms: C_6  and  N_7
REMARK    3  A    between atoms: N_7  and  C_8
REMARK    4  A    between atoms: C_8  and  C_9
REMARK    5  A    between atoms: C_13  and  C_14
REMARK                            x       y       z     vdW  Elec       q    Type
REMARK                         _______ _______ _______ _____ _____    ______ ____
ROOT
ATOM      1  C   UNL     1      46.016   7.797  12.075  0.00  0.00    +0.000 C 
ATOM      2  C   UNL     1      45.636   9.188  11.555  0.00  0.00    +0.000 C 
ATOM      3  C   UNL     1      45.262   8.795  12.938  0.00  0.00    +0.000 C 
ENDROOT
BRANCH   1   4
ATOM      4  C   UNL     1      45.181   6.602  11.625  0.00  0.00    +0.000 A 
ATOM      5  C   UNL     1      43.800   6.558  11.864  0.00  0.00    +0.000 A 
ATOM      6  C   UNL     1      42.994   5.611  11.238  0.00  0.00    +0.000 A 
ATOM      7  C   UNL     1      43.559   4.688  10.357  0.00  0.00    +0.000 A 
ATOM      8  C   UNL     1      44.941   4.656  10.131  0.00  0.00    +0.000 A 
ATOM      9  C   UNL     1      45.735   5.587  10.824  0.00  0.00    +0.000 A 
BRANCH   8  10
ATOM     10  C   UNL     1      45.554   3.783   9.107  0.00  0.00    +0.000 A 
ATOM     11  C   UNL     1      45.500   2.379   9.240  0.00  0.00    +0.000 A 
ATOM     12  C   UNL     1      45.991   1.534   8.243  0.00  0.00    +0.000 A 
ATOM     13  C   UNL     1      46.535   2.079   7.094  0.00  0.00    +0.000 A 
ATOM     14  F   UNL     1      46.988   1.272   6.128  0.00  0.00    +0.000 F 
ATOM     15  C   UNL     1      46.612   3.457   6.927  0.00  0.00    +0.000 A 
ATOM     16  C   UNL     1      46.129   4.302   7.932  0.00  0.00    +0.000 A 
ENDBRANCH   8  10
ENDBRANCH   1   4
BRANCH   1  17
ATOM     17  N   UNL     1      47.467   7.553  12.089  0.00  0.00    +0.000 N 
ATOM     18  H   UNL     1      47.772   6.939  11.338  0.00  0.00    +0.000 HD
BRANCH  17  22
ATOM     19  C   UNL     1      49.925   6.891  15.393  0.00  0.00    +0.000 A 
ATOM     20  C   UNL     1      50.264   7.938  14.542  0.00  0.00    +0.000 A 
ATOM     21  C   UNL     1      49.431   8.213  13.452  0.00  0.00    +0.000 A 
ATOM     22  C   UNL     1      48.290   7.448  13.226  0.00  0.00    +0.000 A 
ATOM     23  C   UNL     1      48.050   6.420  14.148  0.00  0.00    +0.000 A 
ATOM     24  N   UNL     1      48.822   6.129  15.225  0.00  0.00    +0.000 NA
BRANCH  19  26
ATOM     25  N   UNL     1      51.441   6.228  17.402  0.00  0.00    +0.000 NA
ATOM     26  C   UNL     1      50.765   6.549  16.512  0.00  0.00    +0.000 C 
ENDBRANCH  19  26
ENDBRANCH  17  22
ENDBRANCH   1  17
TORSDOF 5
ENDMDL
MODEL 7
REMARK VINA RESULT:    -6.260      4.559      8.222
REMARK INTER + INTRA:          -9.332
REMARK INTER:                  -8.261
REMARK INTRA:                  -1.071
REMARK UNBOUND:                -1.242
REMARK  Name = 
REMARK  5 active torsions:
REMARK  status: ('A' for Active; 'I' for Inactive)
REMARK    1  A    between atoms: C_2  and  C_3
REMARK    2  A    between atoms: C_6  and  N_7
REMARK    3  A    between atoms: N_7  and  C_8
REMARK    4  A    between atoms: C_8  and  C_9
REMARK    5  A    between atoms: C_13  and  C_14
REMARK                            x       y       z     vdW  Elec       q    Type
REMARK                         _______ _______ _______ _____ _____    ______ ____
ROOT
ATOM      1  C   UNL     1      49.134   7.912  12.646  0.00  0.00    +0.000 C 
ATOM      2  C   UNL     1      50.020   7.738  11.407  0.00  0.00    +0.000 C 
ATOM      3  C   UNL     1      49.722   9.104  11.910  0.00  0.00    +0.000 C 
ENDROOT
BRANCH   1   4
ATOM      4  C   UNL     1      47.624   7.758  12.486  0.00  0.00    +0.000 A 
ATOM      5  C   UNL     1      46.768   8.854  12.664  0.00  0.00    +0.000 A 
ATOM      6  C   UNL     1      45.433   8.791  12.271  0.00  0.00    +0.000 A 
ATOM      7  C   UNL     1      44.932   7.627  11.689  0.00  0.00    +0.000 A 
ATOM      8  C   UNL     1      45.734   6.488  11.543  0.00  0.00    +0.000 A 
ATOM      9  C   UNL     1      47.061   6.563  12.005  0.00  0.00    +0.000 A 
BRANCH   8  10
ATOM     10  C   UNL     1      45.276   5.288  10.812  0.00  0.00    +0.000 A 
ATOM     11  C   UNL     1      45.597   5.116   9.448  0.00  0.00    +0.000 A 
ATOM     12  C   UNL     1      45.253   3.950   8.761  0.00  0.00    +0.000 A 
ATOM     13  C   UNL     1      44.593   2.935   9.429  0.00  0.00    +0.000 A 
ATOM     14  F   UNL     1      44.281   1.807   8.778  0.00  0.00    +0.000 F 
ATOM     15  C   UNL     1      44.254   3.067  10.770  0.00  0.00    +0.000 A 
ATOM     16  C   UNL     1      44.589   4.240  11.454  0.00  0.00    +0.000 A 
ENDBRANCH   8  10
ENDBRANCH   1   4
BRANCH   1  17
ATOM     17  N   UNL     1      49.684   7.274  13.853  0.00  0.00    +0.000 N 
ATOM     18  H   UNL     1      50.077   6.354  13.669  0.00  0.00    +0.000 HD
BRANCH  17  22
ATOM     19  C   UNL     1      48.451   7.366  17.836  0.00  0.00    +0.000 A 
ATOM     20  C   UNL     1      48.618   8.586  17.189  0.00  0.00    +0.000 A 
ATOM     21  C   UNL     1      48.985   8.585  15.839  0.00  0.00    +0.000 A 
ATOM     22  C   UNL     1      49.183   7.383  15.163  0.00  0.00    +0.000 A 
ATOM     23  C   UNL     1      48.986   6.218  15.917  0.00  0.00    +0.000 A 
ATOM     24  N   UNL     1      48.615   6.174  17.221  0.00  0.00    +0.000 NA
BRANCH  19  26
ATOM     25  N   UNL     1      47.801   7.229  20.353  0.00  0.00    +0.000 NA
ATOM     26  C   UNL     1      48.102   7.314  19.233  0.00  0.00    +0.000 C 
ENDBRANCH  19  26
ENDBRANCH  17  22
ENDBRANCH   1  17
TORSDOF 5
ENDMDL
MODEL 8
REMARK VINA RESULT:    -6.190      4.108      6.466
REMARK INTER + INTRA:          -9.242
REMARK INTER:                  -8.324
REMARK INTRA:                  -0.919
REMARK UNBOUND:                -1.242
REMARK  Name = 
REMARK  5 active torsions:
REMARK  status: ('A' for Active; 'I' for Inactive)
REMARK    1  A    between atoms: C_2  and  C_3
REMARK    2  A    between atoms: C_6  and  N_7
REMARK    3  A    between atoms: N_7  and  C_8
REMARK    4  A    between atoms: C_8  and  C_9
REMARK    5  A    between atoms: C_13  and  C_14
REMARK                            x       y       z     vdW  Elec       q    Type
REMARK                         _______ _______ _______ _____ _____    ______ ____
ROOT
ATOM      1  C   UNL     1      47.627   8.127  13.372  0.00  0.00    +0.000 C 
ATOM      2  C   UNL     1      48.027   9.311  12.483  0.00  0.00    +0.000 C 
ATOM      3  C   UNL     1      48.592   7.964  12.210  0.00  0.00    +0.000 C 
ENDROOT
BRANCH   1   4
ATOM      4  C   UNL     1      48.275   8.002  14.748  0.00  0.00    +0.000 A 
ATOM      5  C   UNL     1      48.147   9.025  15.698  0.00  0.00    +0.000 A 
ATOM      6  C   UNL     1      48.505   8.817  17.028  0.00  0.00    +0.000 A 
ATOM      7  C   UNL     1      48.999   7.575  17.430  0.00  0.00    +0.000 A 
ATOM      8  C   UNL     1      49.198   6.541  16.506  0.00  0.00    +0.000 A 
ATOM      9  C   UNL     1      48.883   6.803  15.160  0.00  0.00    +0.000 A 
BRANCH   8  10
ATOM     10  C   UNL     1      49.590   5.178  16.918  0.00  0.00    +0.000 A 
ATOM     11  C   UNL     1      48.660   4.117  16.858  0.00  0.00    +0.000 A 
ATOM     12  C   UNL     1      49.032   2.805  17.156  0.00  0.00    +0.000 A 
ATOM     13  C   UNL     1      50.341   2.531  17.510  0.00  0.00    +0.000 A 
ATOM     14  F   UNL     1      50.706   1.271  17.776  0.00  0.00    +0.000 F 
ATOM     15  C   UNL     1      51.286   3.548  17.586  0.00  0.00    +0.000 A 
ATOM     16  C   UNL     1      50.909   4.863  17.298  0.00  0.00    +0.000 A 
ENDBRANCH   8  10
ENDBRANCH   1   4
BRANCH   1  17
ATOM     17  N   UNL     1      46.183   7.843  13.353  0.00  0.00    +0.000 N 
ATOM     18  H   UNL     1      45.699   8.203  14.172  0.00  0.00    +0.000 HD
BRANCH  17  22
ATOM     19  C   UNL     1      44.234   4.360  12.143  0.00  0.00    +0.000 A 
ATOM     20  C   UNL     1      43.985   5.520  11.415  0.00  0.00    +0.000 A 
ATOM     21  C   UNL     1      44.661   6.692  11.769  0.00  0.00    +0.000 A 
ATOM     22  C   UNL     1      45.560   6.694  12.833  0.00  0.00    +0.000 A 
ATOM     23  C   UNL     1      45.730   5.469  13.493  0.00  0.00    +0.000 A 
ATOM     24  N   UNL     1      45.107   4.307  13.173  0.00  0.00    +0.000 NA
BRANCH  19  26
ATOM     25  N   UNL     1      43.024   2.128  11.574  0.00  0.00    +0.000 NA
ATOM     26  C   UNL     1      43.542   3.135  11.837  0.00  0.00    +0.000 C 
ENDBRANCH  19  26
ENDBRANCH  17  22
ENDBRANCH   1  17
TORSDOF 5
ENDMDL
MODEL 9
REMARK VINA RESULT:    -6.018      5.845      8.335
REMARK INTER + INTRA:          -9.020
REMARK INTER:                  -8.254
REMARK INTRA:                  -0.766
REMARK UNBOUND:                -1.242
REMARK  Name = 
REMARK  5 active torsions:
REMARK  status: ('A' for Active; 'I' for Inactive)
REMARK    1  A    between atoms: C_2  and  C_3
REMARK    2  A    between atoms: C_6  and  N_7
REMARK    3  A    between atoms: N_7  and  C_8
REMARK    4  A    between atoms: C_8  and  C_9
REMARK    5  A    between atoms: C_13  and  C_14
REMARK                            x       y       z     vdW  Elec       q    Type
REMARK                         _______ _______ _______ _____ _____    ______ ____
ROOT
ATOM      1  C   UNL     1      48.315   4.728  17.051  0.00  0.00    +0.000 C 
ATOM      2  C   UNL     1      47.247   4.815  18.147  0.00  0.00    +0.000 C 
ATOM      3  C   UNL     1      47.287   3.629  17.253  0.00  0.00    +0.000 C 
ENDROOT
BRANCH   1   4
ATOM      4  C   UNL     1      48.115   5.547  15.778  0.00  0.00    +0.000 A 
ATOM      5  C   UNL     1      49.004   6.577  15.440  0.00  0.00    +0.000 A 
ATOM      6  C   UNL     1      48.986   7.150  14.171  0.00  0.00    +0.000 A 
ATOM      7  C   UNL     1      48.076   6.699  13.215  0.00  0.00    +0.000 A 
ATOM      8  C   UNL     1      47.131   5.712  13.524  0.00  0.00    +0.000 A 
ATOM      9  C   UNL     1      47.135   5.196  14.833  0.00  0.00    +0.000 A 
BRANCH   8  10
ATOM     10  C   UNL     1      46.245   5.119  12.501  0.00  0.00    +0.000 A 
ATOM     11  C   UNL     1      46.027   5.781  11.274  0.00  0.00    +0.000 A 
ATOM     12  C   UNL     1      45.267   5.198  10.258  0.00  0.00    +0.000 A 
ATOM     13  C   UNL     1      44.722   3.942  10.449  0.00  0.00    +0.000 A 
ATOM     14  F   UNL     1      44.010   3.372   9.469  0.00  0.00    +0.000 F 
ATOM     15  C   UNL     1      44.908   3.259  11.645  0.00  0.00    +0.000 A 
ATOM     16  C   UNL     1      45.660   3.849  12.666  0.00  0.00    +0.000 A 
ENDBRANCH   8  10
ENDBRANCH   1   4
BRANCH   1  17
ATOM     17  N   UNL     1      49.691   4.742  17.571  0.00  0.00    +0.000 N 
ATOM     18  H   UNL     1      50.143   5.647  17.469  0.00  0.00    +0.000 HD
BRANCH  17  22
ATOM     19  C   UNL     1      52.530   1.694  17.782  0.00  0.00    +0.000 A 
ATOM     20  C   UNL     1      51.255   1.353  17.339  0.00  0.00    +0.000 A 
ATOM     21  C   UNL     1      50.297   2.364  17.214  0.00  0.00    +0.000 A 
ATOM     22  C   UNL     1      50.615   3.682  17.532  0.00  0.00    +0.000 A 
ATOM     23  C   UNL     1      51.929   3.906  17.967  0.00  0.00    +0.000 A 
ATOM     24  N   UNL     1      52.893   2.959  18.088  0.00  0.00    +0.000 NA
BRANCH  19  26
ATOM     25  N   UNL     1      54.339  -0.144  18.133  0.00  0.00    +0.000 NA
ATOM     26  C   UNL     1      53.544   0.686  17.956  0.00  0.00    +0.000 C 
ENDBRANCH  19  26
ENDBRANCH  17  22
ENDBRANCH   1  17
TORSDOF 5
ENDMDL
