MODEL 1
REMARK VINA RESULT:    -8.338      0.000      0.000
REMARK INTER + INTRA:          -9.966
REMARK INTER:                  -9.800
REMARK INTRA:                  -0.166
REMARK UNBOUND:                -0.166
REMARK  Name = 
REMARK  4 active torsions:
REMARK  status: ('A' for Active; 'I' for Inactive)
REMARK    1  A    between atoms: C_1  and  C_2
REMARK    2  A    between atoms: C_4  and  C_5
REMARK    3  A    between atoms: N_10  and  C_11
REMARK    4  A    between atoms: C_11  and  C_12
REMARK                            x       y       z     vdW  Elec       q    Type
REMARK                         _______ _______ _______ _____ _____    ______ ____
ROOT
ATOM      1  C   UNL     1      47.640   3.884  16.133  0.00  0.00    +0.000 C 
ATOM      2  C   UNL     1      47.161   4.444  14.826  0.00  0.00    +0.000 A 
ATOM      3  C   UNL     1      47.348   5.764  14.510  0.00  0.00    +0.000 A 
ATOM      4  C   UNL     1      46.843   6.150  13.291  0.00  0.00    +0.000 A 
ATOM      5  N   UNL     1      46.190   5.325  12.437  0.00  0.00    +0.000 NA
ATOM      6  C   UNL     1      46.058   4.053  12.834  0.00  0.00    +0.000 A 
ATOM      7  N   UNL     1      45.406   3.106  12.047  0.00  0.00    +0.000 N 
ATOM      8  N   UNL     1      46.525   3.587  14.003  0.00  0.00    +0.000 NA
ATOM      9  H   UNL     1      45.288   2.253  12.578  0.00  0.00    +0.000 HD
ENDROOT
BRANCH   4  10
ATOM     10  C   UNL     1      47.023   7.574  12.861  0.00  0.00    +0.000 C 
ATOM     11  N   UNL     1      46.464   8.518  13.674  0.00  0.00    +0.000 N 
ATOM     12  O   UNL     1      47.622   7.883  11.839  0.00  0.00    +0.000 OA
ATOM     13  H   UNL     1      45.912   8.221  14.466  0.00  0.00    +0.000 HD
ATOM     14  H   UNL     1      46.504   9.493  13.408  0.00  0.00    +0.000 HD
ENDBRANCH   4  10
BRANCH   7  15
ATOM     15  C   UNL     1      44.496   3.473  10.964  0.00  0.00    +0.000 C 
ATOM     16  C   UNL     1      43.531   4.622  11.185  0.00  0.00    +0.000 C 
ATOM     17  C   UNL     1      43.007   3.224  11.140  0.00  0.00    +0.000 C 
BRANCH  15  18
ATOM     18  C   UNL     1      45.097   3.212   9.591  0.00  0.00    +0.000 A 
ATOM     19  C   UNL     1      45.414   4.270   8.725  0.00  0.00    +0.000 A 
ATOM     20  C   UNL     1      46.172   4.072   7.570  0.00  0.00    +0.000 A 
ATOM     21  C   UNL     1      46.593   2.789   7.226  0.00  0.00    +0.000 A 
ATOM     22 CL   UNL     1      47.584   2.618   5.822  0.00  0.00    +0.000 Cl
ATOM     23  C   UNL     1      46.223   1.704   8.025  0.00  0.00    +0.000 A 
ATOM     24 CL   UNL     1      46.679   0.080   7.648  0.00  0.00    +0.000 Cl
ATOM     25  C   UNL     1      45.483   1.919   9.195  0.00  0.00    +0.000 A 
ENDBRANCH  15  18
ENDBRANCH   7  15
TORSDOF 3
ENDMDL
MODEL 2
REMARK VINA RESULT:    -7.293      1.401      1.649
REMARK INTER + INTRA:          -8.738
REMARK INTER:                  -8.547
REMARK INTRA:                  -0.190
REMARK UNBOUND:                -0.166
REMARK  Name = 
REMARK  4 active torsions:
REMARK  status: ('A' for Active; 'I' for Inactive)
REMARK    1  A    between atoms: C_1  and  C_2
REMARK    2  A    between atoms: C_4  and  C_5
REMARK    3  A    between atoms: N_10  and  C_11
REMARK    4  A    between atoms: C_11  and  C_12
REMARK                            x       y       z     vdW  Elec       q    Type
REMARK                         _______ _______ _______ _____ _____    ______ ____
ROOT
ATOM      1  C   UNL     1      48.403   3.783  16.996  0.00  0.00    +0.000 C 
ATOM      2  C   UNL     1      47.856   4.543  15.824  0.00  0.00    +0.000 A 
ATOM      3  C   UNL     1      48.260   5.826  15.561  0.00  0.00    +0.000 A 
ATOM      4  C   UNL     1      47.666   6.413  14.469  0.00  0.00    +0.000 A 
ATOM      5  N   UNL     1      46.736   5.812  13.688  0.00  0.00    +0.000 NA
ATOM      6  C   UNL     1      46.408   4.557  14.025  0.00  0.00    +0.000 A 
ATOM      7  N   UNL     1      45.463   3.831  13.302  0.00  0.00    +0.000 N 
ATOM      8  N   UNL     1      46.941   3.905  15.069  0.00  0.00    +0.000 NA
ATOM      9  H   UNL     1      45.255   2.971  13.793  0.00  0.00    +0.000 HD
ENDROOT
BRANCH   4  10
ATOM     10  C   UNL     1      48.068   7.809  14.101  0.00  0.00    +0.000 C 
ATOM     11  N   UNL     1      47.057   8.725  14.047  0.00  0.00    +0.000 N 
ATOM     12  O   UNL     1      49.226   8.116  13.850  0.00  0.00    +0.000 OA
ATOM     13  H   UNL     1      46.105   8.417  14.184  0.00  0.00    +0.000 HD
ATOM     14  H   UNL     1      47.256   9.671  13.750  0.00  0.00    +0.000 HD
ENDBRANCH   4  10
BRANCH   7  15
ATOM     15  C   UNL     1      44.494   4.465  12.410  0.00  0.00    +0.000 C 
ATOM     16  C   UNL     1      43.802   5.732  12.874  0.00  0.00    +0.000 C 
ATOM     17  C   UNL     1      43.025   4.459  12.799  0.00  0.00    +0.000 C 
BRANCH  15  18
ATOM     18  C   UNL     1      44.836   4.255  10.943  0.00  0.00    +0.000 A 
ATOM     19  C   UNL     1      45.286   5.317  10.143  0.00  0.00    +0.000 A 
ATOM     20  C   UNL     1      45.821   5.105   8.872  0.00  0.00    +0.000 A 
ATOM     21  C   UNL     1      45.875   3.815   8.347  0.00  0.00    +0.000 A 
ATOM     22 CL   UNL     1      46.610   3.608   6.798  0.00  0.00    +0.000 Cl
ATOM     23  C   UNL     1      45.359   2.747   9.086  0.00  0.00    +0.000 A 
ATOM     24 CL   UNL     1      45.361   1.125   8.491  0.00  0.00    +0.000 Cl
ATOM     25  C   UNL     1      44.848   2.970  10.371  0.00  0.00    +0.000 A 
ENDBRANCH  15  18
ENDBRANCH   7  15
TORSDOF 3
ENDMDL
MODEL 3
REMARK VINA RESULT:    -6.370      3.855      6.723
REMARK INTER + INTRA:          -7.653
REMARK INTER:                  -7.741
REMARK INTRA:                   0.088
REMARK UNBOUND:                -0.166
REMARK  Name = 
REMARK  4 active torsions:
REMARK  status: ('A' for Active; 'I' for Inactive)
REMARK    1  A    between atoms: C_1  and  C_2
REMARK    2  A    between atoms: C_4  and  C_5
REMARK    3  A    between atoms: N_10  and  C_11
REMARK    4  A    between atoms: C_11  and  C_12
REMARK                            x       y       z     vdW  Elec       q    Type
REMARK                         _______ _______ _______ _____ _____    ______ ____
ROOT
ATOM      1  C   UNL     1      45.143   3.629   7.407  0.00  0.00    +0.000 C 
ATOM      2  C   UNL     1      45.078   3.944   8.872  0.00  0.00    +0.000 A 
ATOM      3  C   UNL     1      44.297   3.204   9.721  0.00  0.00    +0.000 A 
ATOM      4  C   UNL     1      44.313   3.612  11.034  0.00  0.00    +0.000 A 
ATOM      5  N   UNL     1      45.024   4.668  11.499  0.00  0.00    +0.000 NA
ATOM      6  C   UNL     1      45.758   5.327  10.592  0.00  0.00    +0.000 A 
ATOM      7  N   UNL     1      46.533   6.432  10.943  0.00  0.00    +0.000 N 
ATOM      8  N   UNL     1      45.807   4.996   9.293  0.00  0.00    +0.000 NA
ATOM      9  H   UNL     1      46.892   6.868  10.105  0.00  0.00    +0.000 HD
ENDROOT
BRANCH   4  10
ATOM     10  C   UNL     1      43.501   2.844  12.031  0.00  0.00    +0.000 C 
ATOM     11  N   UNL     1      43.526   3.316  13.312  0.00  0.00    +0.000 N 
ATOM     12  O   UNL     1      42.861   1.845  11.730  0.00  0.00    +0.000 OA
ATOM     13  H   UNL     1      44.128   4.096  13.538  0.00  0.00    +0.000 HD
ATOM     14  H   UNL     1      43.043   2.808  14.041  0.00  0.00    +0.000 HD
ENDBRANCH   4  10
BRANCH   7  15
ATOM     15  C   UNL     1      46.315   7.187  12.175  0.00  0.00    +0.000 C 
ATOM     16  C   UNL     1      44.917   7.687  12.483  0.00  0.00    +0.000 C 
ATOM     17  C   UNL     1      45.972   8.664  12.079  0.00  0.00    +0.000 C 
BRANCH  15  18
ATOM     18  C   UNL     1      47.251   6.752  13.293  0.00  0.00    +0.000 A 
ATOM     19  C   UNL     1      48.300   7.579  13.723  0.00  0.00    +0.000 A 
ATOM     20  C   UNL     1      49.020   7.307  14.888  0.00  0.00    +0.000 A 
ATOM     21  C   UNL     1      48.733   6.163  15.631  0.00  0.00    +0.000 A 
ATOM     22 CL   UNL     1      49.612   5.917  17.097  0.00  0.00    +0.000 Cl
ATOM     23  C   UNL     1      47.750   5.278  15.183  0.00  0.00    +0.000 A 
ATOM     24 CL   UNL     1      47.360   3.823  16.030  0.00  0.00    +0.000 Cl
ATOM     25  C   UNL     1      47.018   5.575  14.026  0.00  0.00    +0.000 A 
ENDBRANCH  15  18
ENDBRANCH   7  15
TORSDOF 3
ENDMDL
MODEL 4
REMARK VINA RESULT:    -6.300      2.104      2.815
REMARK INTER + INTRA:          -7.570
REMARK INTER:                  -7.832
REMARK INTRA:                   0.261
REMARK UNBOUND:                -0.166
REMARK  Name = 
REMARK  4 active torsions:
REMARK  status: ('A' for Active; 'I' for Inactive)
REMARK    1  A    between atoms: C_1  and  C_2
REMARK    2  A    between atoms: C_4  and  C_5
REMARK    3  A    between atoms: N_10  and  C_11
REMARK    4  A    between atoms: C_11  and  C_12
REMARK                            x       y       z     vdW  Elec       q    Type
REMARK                         _______ _______ _______ _____ _____    ______ ____
ROOT
ATOM      1  C   UNL     1      47.980   8.997  14.518  0.00  0.00    +0.000 C 
ATOM      2  C   UNL     1      46.958   8.528  13.525  0.00  0.00    +0.000 A 
ATOM      3  C   UNL     1      46.097   9.409  12.926  0.00  0.00    +0.000 A 
ATOM      4  C   UNL     1      45.197   8.844  12.053  0.00  0.00    +0.000 A 
ATOM      5  N   UNL     1      45.123   7.518  11.782  0.00  0.00    +0.000 NA
ATOM      6  C   UNL     1      46.009   6.739  12.415  0.00  0.00    +0.000 A 
ATOM      7  N   UNL     1      46.035   5.358  12.223  0.00  0.00    +0.000 N 
ATOM      8  N   UNL     1      46.925   7.204  13.279  0.00  0.00    +0.000 NA
ATOM      9  H   UNL     1      46.671   4.940  12.889  0.00  0.00    +0.000 HD
ENDROOT
BRANCH   4  10
ATOM     10  C   UNL     1      44.233   9.742  11.341  0.00  0.00    +0.000 C 
ATOM     11  N   UNL     1      43.752  10.795  12.065  0.00  0.00    +0.000 N 
ATOM     12  O   UNL     1      43.880   9.545  10.185  0.00  0.00    +0.000 OA
ATOM     13  H   UNL     1      44.006  10.879  13.039  0.00  0.00    +0.000 HD
ATOM     14  H   UNL     1      43.055  11.404  11.658  0.00  0.00    +0.000 HD
ENDBRANCH   4  10
BRANCH   7  15
ATOM     15  C   UNL     1      44.905   4.619  11.664  0.00  0.00    +0.000 C 
ATOM     16  C   UNL     1      43.506   4.965  12.136  0.00  0.00    +0.000 C 
ATOM     17  C   UNL     1      44.126   3.676  12.566  0.00  0.00    +0.000 C 
BRANCH  15  18
ATOM     18  C   UNL     1      45.157   4.175  10.231  0.00  0.00    +0.000 A 
ATOM     19  C   UNL     1      45.536   5.096   9.242  0.00  0.00    +0.000 A 
ATOM     20  C   UNL     1      45.994   4.684   7.990  0.00  0.00    +0.000 A 
ATOM     21  C   UNL     1      46.038   3.325   7.679  0.00  0.00    +0.000 A 
ATOM     22 CL   UNL     1      46.678   2.875   6.139  0.00  0.00    +0.000 Cl
ATOM     23  C   UNL     1      45.590   2.388   8.613  0.00  0.00    +0.000 A 
ATOM     24 CL   UNL     1      45.583   0.691   8.290  0.00  0.00    +0.000 Cl
ATOM     25  C   UNL     1      45.156   2.814   9.875  0.00  0.00    +0.000 A 
ENDBRANCH  15  18
ENDBRANCH   7  15
TORSDOF 3
ENDMDL
MODEL 5
REMARK VINA RESULT:    -6.124      3.788      5.560
REMARK INTER + INTRA:          -7.364
REMARK INTER:                  -7.340
REMARK INTRA:                  -0.024
REMARK UNBOUND:                -0.166
REMARK  Name = 
REMARK  4 active torsions:
REMARK  status: ('A' for Active; 'I' for Inactive)
REMARK    1  A    between atoms: C_1  and  C_2
REMARK    2  A    between atoms: C_4  and  C_5
REMARK    3  A    between atoms: N_10  and  C_11
REMARK    4  A    between atoms: C_11  and  C_12
REMARK                            x       y       z     vdW  Elec       q    Type
REMARK                         _______ _______ _______ _____ _____    ______ ____
ROOT
ATOM      1  C   UNL     1      49.459   7.279  19.115  0.00  0.00    +0.000 C 
ATOM      2  C   UNL     1      48.928   6.638  17.867  0.00  0.00    +0.000 A 
ATOM      3  C   UNL     1      48.659   5.295  17.820  0.00  0.00    +0.000 A 
ATOM      4  C   UNL     1      48.197   4.834  16.610  0.00  0.00    +0.000 A 
ATOM      5  N   UNL     1      48.017   5.610  15.513  0.00  0.00    +0.000 NA
ATOM      6  C   UNL     1      48.306   6.910  15.659  0.00  0.00    +0.000 A 
ATOM      7  N   UNL     1      48.164   7.812  14.606  0.00  0.00    +0.000 N 
ATOM      8  N   UNL     1      48.756   7.447  16.804  0.00  0.00    +0.000 NA
ATOM      9  H   UNL     1      48.563   8.702  14.872  0.00  0.00    +0.000 HD
ENDROOT
BRANCH   4  10
ATOM     10  C   UNL     1      47.860   3.380  16.481  0.00  0.00    +0.000 C 
ATOM     11  N   UNL     1      47.043   2.869  17.448  0.00  0.00    +0.000 N 
ATOM     12  O   UNL     1      48.295   2.681  15.575  0.00  0.00    +0.000 OA
ATOM     13  H   UNL     1      46.768   3.457  18.222  0.00  0.00    +0.000 HD
ATOM     14  H   UNL     1      46.825   1.881  17.447  0.00  0.00    +0.000 HD
ENDBRANCH   4  10
BRANCH   7  15
ATOM     15  C   UNL     1      48.085   7.387  13.210  0.00  0.00    +0.000 C 
ATOM     16  C   UNL     1      49.342   6.871  12.536  0.00  0.00    +0.000 C 
ATOM     17  C   UNL     1      48.801   8.209  12.151  0.00  0.00    +0.000 C 
BRANCH  15  18
ATOM     18  C   UNL     1      46.720   6.817  12.856  0.00  0.00    +0.000 A 
ATOM     19  C   UNL     1      45.644   7.657  12.533  0.00  0.00    +0.000 A 
ATOM     20  C   UNL     1      44.461   7.160  11.985  0.00  0.00    +0.000 A 
ATOM     21  C   UNL     1      44.308   5.788  11.791  0.00  0.00    +0.000 A 
ATOM     22 CL   UNL     1      42.848   5.240  11.048  0.00  0.00    +0.000 Cl
ATOM     23  C   UNL     1      45.330   4.918  12.180  0.00  0.00    +0.000 A 
ATOM     24 CL   UNL     1      45.201   3.204  12.002  0.00  0.00    +0.000 Cl
ATOM     25  C   UNL     1      46.522   5.432  12.705  0.00  0.00    +0.000 A 
ENDBRANCH  15  18
ENDBRANCH   7  15
TORSDOF 3
ENDMDL
MODEL 6
REMARK VINA RESULT:    -6.058      5.063      8.173
REMARK INTER + INTRA:          -7.286
REMARK INTER:                  -6.984
REMARK INTRA:                  -0.302
REMARK UNBOUND:                -0.166
REMARK  Name = 
REMARK  4 active torsions:
REMARK  status: ('A' for Active; 'I' for Inactive)
REMARK    1  A    between atoms: C_1  and  C_2
REMARK    2  A    between atoms: C_4  and  C_5
REMARK    3  A    between atoms: N_10  and  C_11
REMARK    4  A    between atoms: C_11  and  C_12
REMARK                            x       y       z     vdW  Elec       q    Type
REMARK                         _______ _______ _______ _____ _____    ______ ____
ROOT
ATOM      1  C   UNL     1      48.229   8.539  12.309  0.00  0.00    +0.000 C 
ATOM      2  C   UNL     1      48.082   7.363  13.228  0.00  0.00    +0.000 A 
ATOM      3  C   UNL     1      47.269   6.309  12.905  0.00  0.00    +0.000 A 
ATOM      4  C   UNL     1      47.209   5.307  13.845  0.00  0.00    +0.000 A 
ATOM      5  N   UNL     1      47.877   5.323  15.024  0.00  0.00    +0.000 NA
ATOM      6  C   UNL     1      48.647   6.396  15.248  0.00  0.00    +0.000 A 
ATOM      7  N   UNL     1      49.384   6.533  16.424  0.00  0.00    +0.000 N 
ATOM      8  N   UNL     1      48.770   7.416  14.385  0.00  0.00    +0.000 NA
ATOM      9  H   UNL     1      49.780   7.462  16.463  0.00  0.00    +0.000 HD
ENDROOT
BRANCH   4  10
ATOM     10  C   UNL     1      46.357   4.109  13.558  0.00  0.00    +0.000 C 
ATOM     11  N   UNL     1      45.041   4.361  13.298  0.00  0.00    +0.000 N 
ATOM     12  O   UNL     1      46.801   2.968  13.568  0.00  0.00    +0.000 OA
ATOM     13  H   UNL     1      44.696   5.307  13.376  0.00  0.00    +0.000 HD
ATOM     14  H   UNL     1      44.404   3.589  13.153  0.00  0.00    +0.000 HD
ENDBRANCH   4  10
BRANCH   7  15
ATOM     15  C   UNL     1      49.089   5.766  17.632  0.00  0.00    +0.000 C 
ATOM     16  C   UNL     1      47.678   5.798  18.186  0.00  0.00    +0.000 C 
ATOM     17  C   UNL     1      48.767   6.513  18.915  0.00  0.00    +0.000 C 
BRANCH  15  18
ATOM     18  C   UNL     1      49.942   4.511  17.743  0.00  0.00    +0.000 A 
ATOM     19  C   UNL     1      49.405   3.242  17.477  0.00  0.00    +0.000 A 
ATOM     20  C   UNL     1      50.214   2.113  17.346  0.00  0.00    +0.000 A 
ATOM     21  C   UNL     1      51.592   2.222  17.528  0.00  0.00    +0.000 A 
ATOM     22 CL   UNL     1      52.548   0.803  17.286  0.00  0.00    +0.000 Cl
ATOM     23  C   UNL     1      52.148   3.456  17.874  0.00  0.00    +0.000 A 
ATOM     24 CL   UNL     1      53.841   3.663  18.147  0.00  0.00    +0.000 Cl
ATOM     25  C   UNL     1      51.327   4.586  17.978  0.00  0.00    +0.000 A 
ENDBRANCH  15  18
ENDBRANCH   7  15
TORSDOF 3
ENDMDL
MODEL 7
REMARK VINA RESULT:    -6.045      4.177      6.530
REMARK INTER + INTRA:          -7.270
REMARK INTER:                  -6.950
REMARK INTRA:                  -0.320
REMARK UNBOUND:                -0.166
REMARK  Name = 
REMARK  4 active torsions:
REMARK  status: ('A' for Active; 'I' for Inactive)
REMARK    1  A    between atoms: C_1  and  C_2
REMARK    2  A    between atoms: C_4  and  C_5
REMARK    3  A    between atoms: N_10  and  C_11
REMARK    4  A    between atoms: C_11  and  C_12
REMARK                            x       y       z     vdW  Elec       q    Type
REMARK                         _______ _______ _______ _____ _____    ______ ____
ROOT
ATOM      1  C   UNL     1      44.054   2.977  10.852  0.00  0.00    +0.000 C 
ATOM      2  C   UNL     1      44.994   3.816  11.667  0.00  0.00    +0.000 A 
ATOM      3  C   UNL     1      45.551   3.335  12.823  0.00  0.00    +0.000 A 
ATOM      4  C   UNL     1      46.378   4.213  13.483  0.00  0.00    +0.000 A 
ATOM      5  N   UNL     1      46.642   5.476  13.066  0.00  0.00    +0.000 NA
ATOM      6  C   UNL     1      46.051   5.853  11.924  0.00  0.00    +0.000 A 
ATOM      7  N   UNL     1      46.242   7.127  11.390  0.00  0.00    +0.000 N 
ATOM      8  N   UNL     1      45.236   5.061  11.212  0.00  0.00    +0.000 NA
ATOM      9  H   UNL     1      45.607   7.262  10.615  0.00  0.00    +0.000 HD
ENDROOT
BRANCH   4  10
ATOM     10  C   UNL     1      47.043   3.758  14.745  0.00  0.00    +0.000 C 
ATOM     11  N   UNL     1      46.752   4.480  15.867  0.00  0.00    +0.000 N 
ATOM     12  O   UNL     1      47.813   2.806  14.778  0.00  0.00    +0.000 OA
ATOM     13  H   UNL     1      46.175   5.305  15.785  0.00  0.00    +0.000 HD
ATOM     14  H   UNL     1      47.214   4.256  16.739  0.00  0.00    +0.000 HD
ENDBRANCH   4  10
BRANCH   7  15
ATOM     15  C   UNL     1      46.742   8.247  12.184  0.00  0.00    +0.000 C 
ATOM     16  C   UNL     1      45.821   8.878  13.210  0.00  0.00    +0.000 C 
ATOM     17  C   UNL     1      46.149   9.628  11.961  0.00  0.00    +0.000 C 
BRANCH  15  18
ATOM     18  C   UNL     1      48.241   8.155  12.432  0.00  0.00    +0.000 A 
ATOM     19  C   UNL     1      49.134   7.888  11.384  0.00  0.00    +0.000 A 
ATOM     20  C   UNL     1      50.514   8.028  11.540  0.00  0.00    +0.000 A 
ATOM     21  C   UNL     1      51.039   8.396  12.778  0.00  0.00    +0.000 A 
ATOM     22 CL   UNL     1      52.748   8.619  12.891  0.00  0.00    +0.000 Cl
ATOM     23  C   UNL     1      50.180   8.589  13.863  0.00  0.00    +0.000 A 
ATOM     24 CL   UNL     1      50.757   9.015  15.435  0.00  0.00    +0.000 Cl
ATOM     25  C   UNL     1      48.795   8.470  13.685  0.00  0.00    +0.000 A 
ENDBRANCH  15  18
ENDBRANCH   7  15
TORSDOF 3
ENDMDL
MODEL 8
REMARK VINA RESULT:    -5.898      5.090      8.197
REMARK INTER + INTRA:          -7.098
REMARK INTER:                  -6.759
REMARK INTRA:                  -0.339
REMARK UNBOUND:                -0.166
REMARK  Name = 
REMARK  4 active torsions:
REMARK  status: ('A' for Active; 'I' for Inactive)
REMARK    1  A    between atoms: C_1  and  C_2
REMARK    2  A    between atoms: C_4  and  C_5
REMARK    3  A    between atoms: N_10  and  C_11
REMARK    4  A    between atoms: C_11  and  C_12
REMARK                            x       y       z     vdW  Elec       q    Type
REMARK                         _______ _______ _______ _____ _____    ______ ____
ROOT
ATOM      1  C   UNL     1      44.825   4.766  11.699  0.00  0.00    +0.000 C 
ATOM      2  C   UNL     1      45.912   5.083  12.684  0.00  0.00    +0.000 A 
ATOM      3  C   UNL     1      46.958   5.901  12.346  0.00  0.00    +0.000 A 
ATOM      4  C   UNL     1      47.894   6.092  13.335  0.00  0.00    +0.000 A 
ATOM      5  N   UNL     1      47.835   5.523  14.564  0.00  0.00    +0.000 NA
ATOM      6  C   UNL     1      46.774   4.741  14.799  0.00  0.00    +0.000 A 
ATOM      7  N   UNL     1      46.598   4.098  16.024  0.00  0.00    +0.000 N 
ATOM      8  N   UNL     1      45.810   4.504  13.896  0.00  0.00    +0.000 NA
ATOM      9  H   UNL     1      45.824   3.451  15.953  0.00  0.00    +0.000 HD
ENDROOT
BRANCH   4  10
ATOM     10  C   UNL     1      49.059   6.990  13.052  0.00  0.00    +0.000 C 
ATOM     11  N   UNL     1      49.897   7.229  14.104  0.00  0.00    +0.000 N 
ATOM     12  O   UNL     1      49.250   7.495  11.954  0.00  0.00    +0.000 OA
ATOM     13  H   UNL     1      49.663   6.858  15.014  0.00  0.00    +0.000 HD
ATOM     14  H   UNL     1      50.670   7.871  13.991  0.00  0.00    +0.000 HD
ENDBRANCH   4  10
BRANCH   7  15
ATOM     15  C   UNL     1      47.693   3.894  16.970  0.00  0.00    +0.000 C 
ATOM     16  C   UNL     1      48.776   2.891  16.623  0.00  0.00    +0.000 C 
ATOM     17  C   UNL     1      47.794   2.564  17.700  0.00  0.00    +0.000 C 
BRANCH  15  18
ATOM     18  C   UNL     1      48.020   5.155  17.755  0.00  0.00    +0.000 A 
ATOM     19  C   UNL     1      47.080   5.738  18.617  0.00  0.00    +0.000 A 
ATOM     20  C   UNL     1      47.430   6.749  19.514  0.00  0.00    +0.000 A 
ATOM     21  C   UNL     1      48.736   7.237  19.533  0.00  0.00    +0.000 A 
ATOM     22 CL   UNL     1      49.125   8.440  20.710  0.00  0.00    +0.000 Cl
ATOM     23  C   UNL     1      49.675   6.734  18.630  0.00  0.00    +0.000 A 
ATOM     24 CL   UNL     1      51.303   7.311  18.571  0.00  0.00    +0.000 Cl
ATOM     25  C   UNL     1      49.316   5.703  17.753  0.00  0.00    +0.000 A 
ENDBRANCH  15  18
ENDBRANCH   7  15
TORSDOF 3
ENDMDL
MODEL 9
REMARK VINA RESULT:    -5.887      4.307      6.420
REMARK INTER + INTRA:          -7.085
REMARK INTER:                  -7.370
REMARK INTRA:                   0.285
REMARK UNBOUND:                -0.166
REMARK  Name = 
REMARK  4 active torsions:
REMARK  status: ('A' for Active; 'I' for Inactive)
REMARK    1  A    between atoms: C_1  and  C_2
REMARK    2  A    between atoms: C_4  and  C_5
REMARK    3  A    between atoms: N_10  and  C_11
REMARK    4  A    between atoms: C_11  and  C_12
REMARK                            x       y       z     vdW  Elec       q    Type
REMARK                         _______ _______ _______ _____ _____    ______ ____
ROOT
ATOM      1  C   UNL     1      48.169   5.132  20.842  0.00  0.00    +0.000 C 
ATOM      2  C   UNL     1      48.469   4.945  19.384  0.00  0.00    +0.000 A 
ATOM      3  C   UNL     1      48.990   3.769  18.913  0.00  0.00    +0.000 A 
ATOM      4  C   UNL     1      49.236   3.739  17.561  0.00  0.00    +0.000 A 
ATOM      5  N   UNL     1      49.009   4.776  16.718  0.00  0.00    +0.000 NA
ATOM      6  C   UNL     1      48.497   5.882  17.273  0.00  0.00    +0.000 A 
ATOM      7  N   UNL     1      48.219   7.018  16.514  0.00  0.00    +0.000 N 
ATOM      8  N   UNL     1      48.220   5.998  18.581  0.00  0.00    +0.000 NA
ATOM      9  H   UNL     1      47.977   7.782  17.131  0.00  0.00    +0.000 HD
ENDROOT
BRANCH   4  10
ATOM     10  C   UNL     1      49.788   2.481  16.963  0.00  0.00    +0.000 C 
ATOM     11  N   UNL     1      50.854   1.929  17.613  0.00  0.00    +0.000 N 
ATOM     12  O   UNL     1      49.328   1.978  15.946  0.00  0.00    +0.000 OA
ATOM     13  H   UNL     1      51.255   2.416  18.403  0.00  0.00    +0.000 HD
ATOM     14  H   UNL     1      51.306   1.111  17.227  0.00  0.00    +0.000 HD
ENDBRANCH   4  10
BRANCH   7  15
ATOM     15  C   UNL     1      48.805   7.247  15.194  0.00  0.00    +0.000 C 
ATOM     16  C   UNL     1      50.300   7.063  15.022  0.00  0.00    +0.000 C 
ATOM     17  C   UNL     1      49.724   8.440  14.996  0.00  0.00    +0.000 C 
BRANCH  15  18
ATOM     18  C   UNL     1      47.842   6.904  14.067  0.00  0.00    +0.000 A 
ATOM     19  C   UNL     1      47.647   7.778  12.988  0.00  0.00    +0.000 A 
ATOM     20  C   UNL     1      46.955   7.388  11.841  0.00  0.00    +0.000 A 
ATOM     21  C   UNL     1      46.393   6.114  11.768  0.00  0.00    +0.000 A 
ATOM     22 CL   UNL     1      45.607   5.666  10.297  0.00  0.00    +0.000 Cl
ATOM     23  C   UNL     1      46.500   5.249  12.861  0.00  0.00    +0.000 A 
ATOM     24 CL   UNL     1      45.803   3.668  12.859  0.00  0.00    +0.000 Cl
ATOM     25  C   UNL     1      47.219   5.645  13.995  0.00  0.00    +0.000 A 
ENDBRANCH  15  18
ENDBRANCH   7  15
TORSDOF 3
ENDMDL
