MODEL 1
REMARK VINA RESULT:    -8.280      0.000      0.000
REMARK INTER + INTRA:         -12.233
REMARK INTER:                 -11.427
REMARK INTRA:                  -0.806
REMARK UNBOUND:                -0.806
REMARK  Name = 
REMARK  7 active torsions:
REMARK  status: ('A' for Active; 'I' for Inactive)
REMARK    1  A    between atoms: N_1  and  C_2
REMARK    2  A    between atoms: C_2  and  N_3
REMARK    3  A    between atoms: C_2  and  C_16
REMARK    4  A    between atoms: C_4  and  C_6
REMARK    5  A    between atoms: C_19  and  C_20
REMARK    6  A    between atoms: C_20  and  N_21
REMARK    7  A    between atoms: C_22  and  C_24
REMARK                            x       y       z     vdW  Elec       q    Type
REMARK                         _______ _______ _______ _____ _____    ______ ____
ROOT
ATOM      1  C   UNL     1      47.137   7.805  13.439  0.00  0.00    +0.000 C 
ENDROOT
BRANCH   1   2
ATOM      2  C   UNL     1      46.278   6.806  12.684  0.00  0.00    +0.000 A 
ATOM      3  C   UNL     1      45.185   7.238  11.921  0.00  0.00    +0.000 A 
ATOM      4  C   UNL     1      44.415   6.324  11.190  0.00  0.00    +0.000 A 
ATOM      5  C   UNL     1      44.711   4.954  11.218  0.00  0.00    +0.000 A 
ATOM      6  C   UNL     1      45.796   4.516  11.986  0.00  0.00    +0.000 A 
ATOM      7  C   UNL     1      46.564   5.429  12.714  0.00  0.00    +0.000 A 
BRANCH   5   8
ATOM      8  C   UNL     1      43.883   3.967  10.441  0.00  0.00    +0.000 C 
BRANCH   8   9
ATOM      9  N   UNL     1      44.685   3.022   9.711  0.00  0.00    +0.000 N 
ATOM     10  C   UNL     1      45.339   3.394   8.559  0.00  0.00    +0.000 C 
ATOM     11  O   UNL     1      45.238   4.509   8.054  0.00  0.00    +0.000 OA
ATOM     12  H   UNL     1      44.864   2.089  10.069  0.00  0.00    +0.000 HD
BRANCH  10  13
ATOM     13  C   UNL     1      46.180   2.339   7.990  0.00  0.00    +0.000 A 
ATOM     14  C   UNL     1      47.257   2.518   7.144  0.00  0.00    +0.000 A 
ATOM     15  N   UNL     1      47.739   1.265   6.889  0.00  0.00    +0.000 N 
ATOM     16  C   UNL     1      46.953   0.377   7.570  0.00  0.00    +0.000 A 
ATOM     17  N   UNL     1      46.001   0.984   8.244  0.00  0.00    +0.000 NA
ATOM     18  H   UNL     1      48.531   1.034   6.308  0.00  0.00    +0.000 HD
ENDBRANCH  10  13
ENDBRANCH   8   9
ENDBRANCH   5   8
ENDBRANCH   1   2
BRANCH   1  19
ATOM     19  N   UNL     1      47.603   7.233  14.671  0.00  0.00    +0.000 N 
ATOM     20  C   UNL     1      48.892   6.798  14.857  0.00  0.00    +0.000 C 
ATOM     21  O   UNL     1      49.770   6.967  14.015  0.00  0.00    +0.000 OA
ATOM     22  H   UNL     1      46.884   6.754  15.205  0.00  0.00    +0.000 HD
BRANCH  20  23
ATOM     23  C   UNL     1      49.201   6.237  16.177  0.00  0.00    +0.000 A 
ATOM     24  C   UNL     1      50.164   6.844  16.971  0.00  0.00    +0.000 A 
ATOM     25  S   UNL     1      50.367   6.096  18.490  0.00  0.00    +0.000 S 
ATOM     26  C   UNL     1      49.209   4.906  18.118  0.00  0.00    +0.000 A 
ATOM     27  N   UNL     1      48.921   3.910  19.000  0.00  0.00    +0.000 NA
ATOM     28  C   UNL     1      48.045   3.061  18.574  0.00  0.00    +0.000 A 
ATOM     29  N   UNL     1      47.424   3.126  17.352  0.00  0.00    +0.000 N 
ATOM     30  C   UNL     1      47.661   4.127  16.445  0.00  0.00    +0.000 A 
ATOM     31  O   UNL     1      47.060   4.193  15.379  0.00  0.00    +0.000 OA
ATOM     32  C   UNL     1      48.655   5.094  16.866  0.00  0.00    +0.000 A 
ATOM     33  H   UNL     1      46.735   2.434  17.088  0.00  0.00    +0.000 HD
ENDBRANCH  20  23
ENDBRANCH   1  19
BRANCH   1  34
ATOM     34  N   UNL     1      46.367   8.980  13.793  0.00  0.00    +0.000 NA
ATOM     35  H   UNL     1      45.384   8.712  13.700  0.00  0.00    +0.000 HD
ATOM     36  H   UNL     1      46.519   9.677  13.071  0.00  0.00    +0.000 HD
ENDBRANCH   1  34
TORSDOF 7
ENDMDL
MODEL 2
REMARK VINA RESULT:    -7.966      1.785      2.273
REMARK INTER + INTRA:         -11.799
REMARK INTER:                 -10.750
REMARK INTRA:                  -1.049
REMARK UNBOUND:                -0.806
REMARK  Name = 
REMARK  7 active torsions:
REMARK  status: ('A' for Active; 'I' for Inactive)
REMARK    1  A    between atoms: N_1  and  C_2
REMARK    2  A    between atoms: C_2  and  N_3
REMARK    3  A    between atoms: C_2  and  C_16
REMARK    4  A    between atoms: C_4  and  C_6
REMARK    5  A    between atoms: C_19  and  C_20
REMARK    6  A    between atoms: C_20  and  N_21
REMARK    7  A    between atoms: C_22  and  C_24
REMARK                            x       y       z     vdW  Elec       q    Type
REMARK                         _______ _______ _______ _____ _____    ______ ____
ROOT
ATOM      1  C   UNL     1      47.850   7.295  13.983  0.00  0.00    +0.000 C 
ENDROOT
BRANCH   1   2
ATOM      2  C   UNL     1      46.928   6.534  13.048  0.00  0.00    +0.000 A 
ATOM      3  C   UNL     1      46.536   5.221  13.344  0.00  0.00    +0.000 A 
ATOM      4  C   UNL     1      45.652   4.530  12.505  0.00  0.00    +0.000 A 
ATOM      5  C   UNL     1      45.152   5.130  11.341  0.00  0.00    +0.000 A 
ATOM      6  C   UNL     1      45.549   6.437  11.035  0.00  0.00    +0.000 A 
ATOM      7  C   UNL     1      46.429   7.126  11.874  0.00  0.00    +0.000 A 
BRANCH   5   8
ATOM      8  C   UNL     1      44.209   4.390  10.432  0.00  0.00    +0.000 C 
BRANCH   8   9
ATOM      9  N   UNL     1      44.862   3.350   9.682  0.00  0.00    +0.000 N 
ATOM     10  C   UNL     1      45.552   3.641   8.528  0.00  0.00    +0.000 C 
ATOM     11  O   UNL     1      45.607   4.766   8.039  0.00  0.00    +0.000 OA
ATOM     12  H   UNL     1      44.910   2.397  10.027  0.00  0.00    +0.000 HD
BRANCH  10  13
ATOM     13  C   UNL     1      46.230   2.485   7.939  0.00  0.00    +0.000 A 
ATOM     14  C   UNL     1      47.144   2.513   6.903  0.00  0.00    +0.000 A 
ATOM     15  N   UNL     1      47.516   1.213   6.704  0.00  0.00    +0.000 N 
ATOM     16  C   UNL     1      46.827   0.446   7.602  0.00  0.00    +0.000 A 
ATOM     17  N   UNL     1      46.040   1.175   8.363  0.00  0.00    +0.000 NA
ATOM     18  H   UNL     1      48.180   0.877   6.021  0.00  0.00    +0.000 HD
ENDBRANCH  10  13
ENDBRANCH   8   9
ENDBRANCH   5   8
ENDBRANCH   1   2
BRANCH   1  19
ATOM     19  N   UNL     1      47.865   6.681  15.281  0.00  0.00    +0.000 N 
ATOM     20  C   UNL     1      49.021   6.348  15.941  0.00  0.00    +0.000 C 
ATOM     21  O   UNL     1      50.133   6.651  15.514  0.00  0.00    +0.000 OA
ATOM     22  H   UNL     1      47.052   6.106  15.478  0.00  0.00    +0.000 HD
BRANCH  20  23
ATOM     23  C   UNL     1      48.857   5.725  17.259  0.00  0.00    +0.000 A 
ATOM     24  C   UNL     1      49.182   4.387  17.431  0.00  0.00    +0.000 A 
ATOM     25  S   UNL     1      48.979   3.834  19.030  0.00  0.00    +0.000 S 
ATOM     26  C   UNL     1      48.403   5.352  19.539  0.00  0.00    +0.000 A 
ATOM     27  N   UNL     1      48.008   5.556  20.825  0.00  0.00    +0.000 NA
ATOM     28  C   UNL     1      47.566   6.746  21.062  0.00  0.00    +0.000 A 
ATOM     29  N   UNL     1      47.496   7.754  20.132  0.00  0.00    +0.000 N 
ATOM     30  C   UNL     1      47.911   7.602  18.833  0.00  0.00    +0.000 A 
ATOM     31  O   UNL     1      47.885   8.528  18.031  0.00  0.00    +0.000 OA
ATOM     32  C   UNL     1      48.394   6.274  18.510  0.00  0.00    +0.000 A 
ATOM     33  H   UNL     1      47.152   8.669  20.390  0.00  0.00    +0.000 HD
ENDBRANCH  20  23
ENDBRANCH   1  19
BRANCH   1  34
ATOM     34  N   UNL     1      47.384   8.653  14.171  0.00  0.00    +0.000 NA
ATOM     35  H   UNL     1      47.403   9.089  13.245  0.00  0.00    +0.000 HD
ATOM     36  H   UNL     1      48.087   9.150  14.708  0.00  0.00    +0.000 HD
ENDBRANCH   1  34
TORSDOF 7
ENDMDL
MODEL 3
REMARK VINA RESULT:    -7.831      1.718      2.131
REMARK INTER + INTRA:         -11.612
REMARK INTER:                 -10.549
REMARK INTRA:                  -1.064
REMARK UNBOUND:                -0.806
REMARK  Name = 
REMARK  7 active torsions:
REMARK  status: ('A' for Active; 'I' for Inactive)
REMARK    1  A    between atoms: N_1  and  C_2
REMARK    2  A    between atoms: C_2  and  N_3
REMARK    3  A    between atoms: C_2  and  C_16
REMARK    4  A    between atoms: C_4  and  C_6
REMARK    5  A    between atoms: C_19  and  C_20
REMARK    6  A    between atoms: C_20  and  N_21
REMARK    7  A    between atoms: C_22  and  C_24
REMARK                            x       y       z     vdW  Elec       q    Type
REMARK                         _______ _______ _______ _____ _____    ______ ____
ROOT
ATOM      1  C   UNL     1      46.223   8.523  12.830  0.00  0.00    +0.000 C 
ENDROOT
BRANCH   1   2
ATOM      2  C   UNL     1      45.659   7.181  12.399  0.00  0.00    +0.000 A 
ATOM      3  C   UNL     1      44.447   7.107  11.698  0.00  0.00    +0.000 A 
ATOM      4  C   UNL     1      43.944   5.874  11.264  0.00  0.00    +0.000 A 
ATOM      5  C   UNL     1      44.634   4.683  11.534  0.00  0.00    +0.000 A 
ATOM      6  C   UNL     1      45.839   4.750  12.243  0.00  0.00    +0.000 A 
ATOM      7  C   UNL     1      46.341   5.981  12.675  0.00  0.00    +0.000 A 
BRANCH   5   8
ATOM      8  C   UNL     1      44.094   3.356  11.076  0.00  0.00    +0.000 C 
BRANCH   8   9
ATOM      9  N   UNL     1      44.978   2.681  10.164  0.00  0.00    +0.000 N 
ATOM     10  C   UNL     1      45.088   3.093   8.855  0.00  0.00    +0.000 C 
ATOM     11  O   UNL     1      44.414   3.999   8.373  0.00  0.00    +0.000 OA
ATOM     12  H   UNL     1      45.608   1.949  10.477  0.00  0.00    +0.000 HD
BRANCH  10  13
ATOM     13  C   UNL     1      46.094   2.357   8.087  0.00  0.00    +0.000 A 
ATOM     14  C   UNL     1      46.245   0.985   8.040  0.00  0.00    +0.000 A 
ATOM     15  N   UNL     1      47.292   0.757   7.192  0.00  0.00    +0.000 N 
ATOM     16  C   UNL     1      47.744   1.974   6.761  0.00  0.00    +0.000 A 
ATOM     17  N   UNL     1      47.050   2.964   7.279  0.00  0.00    +0.000 NA
ATOM     18  H   UNL     1      47.665  -0.143   6.928  0.00  0.00    +0.000 HD
ENDBRANCH  10  13
ENDBRANCH   8   9
ENDBRANCH   5   8
ENDBRANCH   1   2
BRANCH   1  19
ATOM     19  N   UNL     1      46.777   8.432  14.151  0.00  0.00    +0.000 N 
ATOM     20  C   UNL     1      47.918   9.092  14.534  0.00  0.00    +0.000 C 
ATOM     21  O   UNL     1      48.488   9.897  13.803  0.00  0.00    +0.000 OA
ATOM     22  H   UNL     1      46.585   7.553  14.623  0.00  0.00    +0.000 HD
BRANCH  20  23
ATOM     23  C   UNL     1      48.349   8.887  15.922  0.00  0.00    +0.000 A 
ATOM     24  C   UNL     1      48.375   9.963  16.797  0.00  0.00    +0.000 A 
ATOM     25  S   UNL     1      48.853   9.546  18.380  0.00  0.00    +0.000 S 
ATOM     26  C   UNL     1      49.088   7.920  17.937  0.00  0.00    +0.000 A 
ATOM     27  N   UNL     1      49.538   7.006  18.838  0.00  0.00    +0.000 NA
ATOM     28  C   UNL     1      49.698   5.819  18.357  0.00  0.00    +0.000 A 
ATOM     29  N   UNL     1      49.437   5.460  17.058  0.00  0.00    +0.000 N 
ATOM     30  C   UNL     1      48.953   6.340  16.123  0.00  0.00    +0.000 A 
ATOM     31  O   UNL     1      48.680   5.989  14.981  0.00  0.00    +0.000 OA
ATOM     32  C   UNL     1      48.778   7.695  16.609  0.00  0.00    +0.000 A 
ATOM     33  H   UNL     1      49.571   4.506  16.751  0.00  0.00    +0.000 HD
ENDBRANCH  20  23
ENDBRANCH   1  19
BRANCH   1  34
ATOM     34  N   UNL     1      45.178   9.525  12.886  0.00  0.00    +0.000 NA
ATOM     35  H   UNL     1      44.397   9.090  13.384  0.00  0.00    +0.000 HD
ATOM     36  H   UNL     1      44.839   9.671  11.941  0.00  0.00    +0.000 HD
ENDBRANCH   1  34
TORSDOF 7
ENDMDL
MODEL 4
REMARK VINA RESULT:    -7.819      4.601      9.146
REMARK INTER + INTRA:         -11.597
REMARK INTER:                 -10.702
REMARK INTRA:                  -0.894
REMARK UNBOUND:                -0.806
REMARK  Name = 
REMARK  7 active torsions:
REMARK  status: ('A' for Active; 'I' for Inactive)
REMARK    1  A    between atoms: N_1  and  C_2
REMARK    2  A    between atoms: C_2  and  N_3
REMARK    3  A    between atoms: C_2  and  C_16
REMARK    4  A    between atoms: C_4  and  C_6
REMARK    5  A    between atoms: C_19  and  C_20
REMARK    6  A    between atoms: C_20  and  N_21
REMARK    7  A    between atoms: C_22  and  C_24
REMARK                            x       y       z     vdW  Elec       q    Type
REMARK                         _______ _______ _______ _____ _____    ______ ____
ROOT
ATOM      1  C   UNL     1      47.328   3.630  16.968  0.00  0.00    +0.000 C 
ENDROOT
BRANCH   1   2
ATOM      2  C   UNL     1      48.806   3.377  17.198  0.00  0.00    +0.000 A 
ATOM      3  C   UNL     1      49.640   4.397  17.677  0.00  0.00    +0.000 A 
ATOM      4  C   UNL     1      50.996   4.156  17.929  0.00  0.00    +0.000 A 
ATOM      5  C   UNL     1      51.556   2.891  17.692  0.00  0.00    +0.000 A 
ATOM      6  C   UNL     1      50.730   1.873  17.204  0.00  0.00    +0.000 A 
ATOM      7  C   UNL     1      49.376   2.114  16.954  0.00  0.00    +0.000 A 
BRANCH   5   8
ATOM      8  C   UNL     1      53.014   2.629  17.953  0.00  0.00    +0.000 C 
BRANCH   8   9
ATOM      9  N   UNL     1      53.273   1.267  18.337  0.00  0.00    +0.000 N 
ATOM     10  C   UNL     1      54.134   0.481  17.606  0.00  0.00    +0.000 C 
ATOM     11  O   UNL     1      54.678   0.856  16.571  0.00  0.00    +0.000 OA
ATOM     12  H   UNL     1      52.904   0.879  19.199  0.00  0.00    +0.000 HD
BRANCH  10  13
ATOM     13  C   UNL     1      54.353  -0.847  18.182  0.00  0.00    +0.000 A 
ATOM     14  C   UNL     1      55.331  -1.750  17.809  0.00  0.00    +0.000 A 
ATOM     15  N   UNL     1      55.163  -2.834  18.624  0.00  0.00    +0.000 N 
ATOM     16  C   UNL     1      54.105  -2.568  19.448  0.00  0.00    +0.000 A 
ATOM     17  N   UNL     1      53.589  -1.381  19.213  0.00  0.00    +0.000 NA
ATOM     18  H   UNL     1      55.718  -3.677  18.622  0.00  0.00    +0.000 HD
ENDBRANCH  10  13
ENDBRANCH   8   9
ENDBRANCH   5   8
ENDBRANCH   1   2
BRANCH   1  19
ATOM     19  N   UNL     1      47.142   4.599  15.925  0.00  0.00    +0.000 N 
ATOM     20  C   UNL     1      47.186   4.283  14.590  0.00  0.00    +0.000 C 
ATOM     21  O   UNL     1      47.280   3.125  14.192  0.00  0.00    +0.000 OA
ATOM     22  H   UNL     1      47.430   5.540  16.175  0.00  0.00    +0.000 HD
BRANCH  20  23
ATOM     23  C   UNL     1      46.978   5.394  13.655  0.00  0.00    +0.000 A 
ATOM     24  C   UNL     1      48.034   6.241  13.351  0.00  0.00    +0.000 A 
ATOM     25  S   UNL     1      47.637   7.448  12.214  0.00  0.00    +0.000 S 
ATOM     26  C   UNL     1      46.025   6.909  12.125  0.00  0.00    +0.000 A 
ATOM     27  N   UNL     1      45.117   7.545  11.338  0.00  0.00    +0.000 NA
ATOM     28  C   UNL     1      43.926   7.047  11.390  0.00  0.00    +0.000 A 
ATOM     29  N   UNL     1      43.566   5.962  12.151  0.00  0.00    +0.000 N 
ATOM     30  C   UNL     1      44.455   5.271  12.936  0.00  0.00    +0.000 A 
ATOM     31  O   UNL     1      44.125   4.276  13.569  0.00  0.00    +0.000 OA
ATOM     32  C   UNL     1      45.802   5.807  12.929  0.00  0.00    +0.000 A 
ATOM     33  H   UNL     1      42.617   5.614  12.134  0.00  0.00    +0.000 HD
ENDBRANCH  20  23
ENDBRANCH   1  19
BRANCH   1  34
ATOM     34  N   UNL     1      46.709   4.178  18.158  0.00  0.00    +0.000 NA
ATOM     35  H   UNL     1      46.620   5.184  17.992  0.00  0.00    +0.000 HD
ATOM     36  H   UNL     1      47.375   4.096  18.919  0.00  0.00    +0.000 HD
ENDBRANCH   1  34
TORSDOF 7
ENDMDL
MODEL 5
REMARK VINA RESULT:    -7.662      2.070      3.824
REMARK INTER + INTRA:         -11.380
REMARK INTER:                 -10.145
REMARK INTRA:                  -1.235
REMARK UNBOUND:                -0.806
REMARK  Name = 
REMARK  7 active torsions:
REMARK  status: ('A' for Active; 'I' for Inactive)
REMARK    1  A    between atoms: N_1  and  C_2
REMARK    2  A    between atoms: C_2  and  N_3
REMARK    3  A    between atoms: C_2  and  C_16
REMARK    4  A    between atoms: C_4  and  C_6
REMARK    5  A    between atoms: C_19  and  C_20
REMARK    6  A    between atoms: C_20  and  N_21
REMARK    7  A    between atoms: C_22  and  C_24
REMARK                            x       y       z     vdW  Elec       q    Type
REMARK                         _______ _______ _______ _____ _____    ______ ____
ROOT
ATOM      1  C   UNL     1      46.808   4.771  14.886  0.00  0.00    +0.000 C 
ENDROOT
BRANCH   1   2
ATOM      2  C   UNL     1      46.013   4.628  13.601  0.00  0.00    +0.000 A 
ATOM      3  C   UNL     1      45.501   5.759  12.949  0.00  0.00    +0.000 A 
ATOM      4  C   UNL     1      44.802   5.635  11.741  0.00  0.00    +0.000 A 
ATOM      5  C   UNL     1      44.585   4.375  11.164  0.00  0.00    +0.000 A 
ATOM      6  C   UNL     1      45.085   3.242  11.817  0.00  0.00    +0.000 A 
ATOM      7  C   UNL     1      45.784   3.367  13.021  0.00  0.00    +0.000 A 
BRANCH   5   8
ATOM      8  C   UNL     1      43.829   4.235   9.872  0.00  0.00    +0.000 C 
BRANCH   8   9
ATOM      9  N   UNL     1      44.548   3.473   8.887  0.00  0.00    +0.000 N 
ATOM     10  C   UNL     1      45.643   4.005   8.245  0.00  0.00    +0.000 C 
ATOM     11  O   UNL     1      46.034   5.155   8.418  0.00  0.00    +0.000 OA
ATOM     12  H   UNL     1      44.328   2.499   8.704  0.00  0.00    +0.000 HD
BRANCH  10  13
ATOM     13  C   UNL     1      46.310   3.067   7.340  0.00  0.00    +0.000 A 
ATOM     14  C   UNL     1      46.660   3.307   6.025  0.00  0.00    +0.000 A 
ATOM     15  N   UNL     1      47.267   2.163   5.590  0.00  0.00    +0.000 N 
ATOM     16  C   UNL     1      47.263   1.275   6.629  0.00  0.00    +0.000 A 
ATOM     17  N   UNL     1      46.694   1.780   7.701  0.00  0.00    +0.000 NA
ATOM     18  H   UNL     1      47.651   2.000   4.670  0.00  0.00    +0.000 HD
ENDBRANCH  10  13
ENDBRANCH   8   9
ENDBRANCH   5   8
ENDBRANCH   1   2
BRANCH   1  19
ATOM     19  N   UNL     1      47.806   5.793  14.747  0.00  0.00    +0.000 N 
ATOM     20  C   UNL     1      48.575   6.240  15.792  0.00  0.00    +0.000 C 
ATOM     21  O   UNL     1      48.539   5.719  16.903  0.00  0.00    +0.000 OA
ATOM     22  H   UNL     1      47.613   6.465  14.010  0.00  0.00    +0.000 HD
BRANCH  20  23
ATOM     23  C   UNL     1      49.547   7.293  15.476  0.00  0.00    +0.000 A 
ATOM     24  C   UNL     1      50.873   7.137  15.855  0.00  0.00    +0.000 A 
ATOM     25  S   UNL     1      51.878   8.427  15.371  0.00  0.00    +0.000 S 
ATOM     26  C   UNL     1      50.565   9.260  14.680  0.00  0.00    +0.000 A 
ATOM     27  N   UNL     1      50.735  10.484  14.109  0.00  0.00    +0.000 NA
ATOM     28  C   UNL     1      49.649  11.012  13.652  0.00  0.00    +0.000 A 
ATOM     29  N   UNL     1      48.410  10.421  13.704  0.00  0.00    +0.000 N 
ATOM     30  C   UNL     1      48.197   9.178  14.243  0.00  0.00    +0.000 A 
ATOM     31  O   UNL     1      47.093   8.648  14.236  0.00  0.00    +0.000 OA
ATOM     32  C   UNL     1      49.384   8.551  14.792  0.00  0.00    +0.000 A 
ATOM     33  H   UNL     1      47.602  10.886  13.313  0.00  0.00    +0.000 HD
ENDBRANCH  20  23
ENDBRANCH   1  19
BRANCH   1  34
ATOM     34  N   UNL     1      47.511   3.543  15.194  0.00  0.00    +0.000 NA
ATOM     35  H   UNL     1      46.907   2.783  14.870  0.00  0.00    +0.000 HD
ATOM     36  H   UNL     1      47.537   3.445  16.203  0.00  0.00    +0.000 HD
ENDBRANCH   1  34
TORSDOF 7
ENDMDL
MODEL 6
REMARK VINA RESULT:    -7.169      3.133      8.407
REMARK INTER + INTRA:         -10.699
REMARK INTER:                  -9.646
REMARK INTRA:                  -1.053
REMARK UNBOUND:                -0.806
REMARK  Name = 
REMARK  7 active torsions:
REMARK  status: ('A' for Active; 'I' for Inactive)
REMARK    1  A    between atoms: N_1  and  C_2
REMARK    2  A    between atoms: C_2  and  N_3
REMARK    3  A    between atoms: C_2  and  C_16
REMARK    4  A    between atoms: C_4  and  C_6
REMARK    5  A    between atoms: C_19  and  C_20
REMARK    6  A    between atoms: C_20  and  N_21
REMARK    7  A    between atoms: C_22  and  C_24
REMARK                            x       y       z     vdW  Elec       q    Type
REMARK                         _______ _______ _______ _____ _____    ______ ____
ROOT
ATOM      1  C   UNL     1      47.709   7.618  12.577  0.00  0.00    +0.000 C 
ENDROOT
BRANCH   1   2
ATOM      2  C   UNL     1      48.612   7.304  13.756  0.00  0.00    +0.000 A 
ATOM      3  C   UNL     1      49.936   7.764  13.784  0.00  0.00    +0.000 A 
ATOM      4  C   UNL     1      50.759   7.511  14.889  0.00  0.00    +0.000 A 
ATOM      5  C   UNL     1      50.283   6.777  15.985  0.00  0.00    +0.000 A 
ATOM      6  C   UNL     1      48.965   6.307  15.957  0.00  0.00    +0.000 A 
ATOM      7  C   UNL     1      48.144   6.561  14.855  0.00  0.00    +0.000 A 
BRANCH   5   8
ATOM      8  C   UNL     1      51.165   6.496  17.170  0.00  0.00    +0.000 C 
BRANCH   8   9
ATOM      9  N   UNL     1      51.656   5.144  17.189  0.00  0.00    +0.000 N 
ATOM     10  C   UNL     1      51.026   4.176  17.937  0.00  0.00    +0.000 C 
ATOM     11  O   UNL     1      50.066   4.404  18.667  0.00  0.00    +0.000 OA
ATOM     12  H   UNL     1      52.417   4.846  16.586  0.00  0.00    +0.000 HD
BRANCH  10  13
ATOM     13  C   UNL     1      51.599   2.838  17.774  0.00  0.00    +0.000 A 
ATOM     14  C   UNL     1      50.930   1.709  17.341  0.00  0.00    +0.000 A 
ATOM     15  N   UNL     1      51.862   0.709  17.332  0.00  0.00    +0.000 N 
ATOM     16  C   UNL     1      53.046   1.247  17.756  0.00  0.00    +0.000 A 
ATOM     17  N   UNL     1      52.929   2.527  18.034  0.00  0.00    +0.000 NA
ATOM     18  H   UNL     1      51.709  -0.251  17.060  0.00  0.00    +0.000 HD
ENDBRANCH  10  13
ENDBRANCH   8   9
ENDBRANCH   5   8
ENDBRANCH   1   2
BRANCH   1  19
ATOM     19  N   UNL     1      46.962   6.453  12.194  0.00  0.00    +0.000 N 
ATOM     20  C   UNL     1      45.593   6.383  12.260  0.00  0.00    +0.000 C 
ATOM     21  O   UNL     1      44.899   7.354  12.551  0.00  0.00    +0.000 OA
ATOM     22  H   UNL     1      47.465   5.579  12.315  0.00  0.00    +0.000 HD
BRANCH  20  23
ATOM     23  C   UNL     1      44.989   5.117  11.833  0.00  0.00    +0.000 A 
ATOM     24  C   UNL     1      44.270   4.358  12.745  0.00  0.00    +0.000 A 
ATOM     25  S   UNL     1      43.595   2.942  12.076  0.00  0.00    +0.000 S 
ATOM     26  C   UNL     1      44.281   3.271  10.554  0.00  0.00    +0.000 A 
ATOM     27  N   UNL     1      44.115   2.414   9.511  0.00  0.00    +0.000 NA
ATOM     28  C   UNL     1      44.715   2.775   8.425  0.00  0.00    +0.000 A 
ATOM     29  N   UNL     1      45.456   3.922   8.286  0.00  0.00    +0.000 N 
ATOM     30  C   UNL     1      45.626   4.829   9.301  0.00  0.00    +0.000 A 
ATOM     31  O   UNL     1      46.251   5.871   9.143  0.00  0.00    +0.000 OA
ATOM     32  C   UNL     1      44.990   4.458  10.550  0.00  0.00    +0.000 A 
ATOM     33  H   UNL     1      45.888   4.151   7.401  0.00  0.00    +0.000 HD
ENDBRANCH  20  23
ENDBRANCH   1  19
BRANCH   1  34
ATOM     34  N   UNL     1      48.490   8.009  11.421  0.00  0.00    +0.000 NA
ATOM     35  H   UNL     1      49.449   8.133  11.758  0.00  0.00    +0.000 HD
ATOM     36  H   UNL     1      48.188   8.936  11.143  0.00  0.00    +0.000 HD
ENDBRANCH   1  34
TORSDOF 7
ENDMDL
MODEL 7
REMARK VINA RESULT:    -7.049      4.542      7.158
REMARK INTER + INTRA:         -10.534
REMARK INTER:                  -9.904
REMARK INTRA:                  -0.630
REMARK UNBOUND:                -0.806
REMARK  Name = 
REMARK  7 active torsions:
REMARK  status: ('A' for Active; 'I' for Inactive)
REMARK    1  A    between atoms: N_1  and  C_2
REMARK    2  A    between atoms: C_2  and  N_3
REMARK    3  A    between atoms: C_2  and  C_16
REMARK    4  A    between atoms: C_4  and  C_6
REMARK    5  A    between atoms: C_19  and  C_20
REMARK    6  A    between atoms: C_20  and  N_21
REMARK    7  A    between atoms: C_22  and  C_24
REMARK                            x       y       z     vdW  Elec       q    Type
REMARK                         _______ _______ _______ _____ _____    ______ ____
ROOT
ATOM      1  C   UNL     1      46.797   8.208  13.476  0.00  0.00    +0.000 C 
ENDROOT
BRANCH   1   2
ATOM      2  C   UNL     1      48.090   8.351  12.695  0.00  0.00    +0.000 A 
ATOM      3  C   UNL     1      48.476   9.593  12.173  0.00  0.00    +0.000 A 
ATOM      4  C   UNL     1      49.689   9.737  11.487  0.00  0.00    +0.000 A 
ATOM      5  C   UNL     1      50.538   8.638  11.293  0.00  0.00    +0.000 A 
ATOM      6  C   UNL     1      50.152   7.393  11.803  0.00  0.00    +0.000 A 
ATOM      7  C   UNL     1      48.942   7.250  12.488  0.00  0.00    +0.000 A 
BRANCH   5   8
ATOM      8  C   UNL     1      51.838   8.785  10.551  0.00  0.00    +0.000 C 
BRANCH   8   9
ATOM      9  N   UNL     1      52.222   7.584   9.860  0.00  0.00    +0.000 N 
ATOM     10  C   UNL     1      52.849   7.644   8.636  0.00  0.00    +0.000 C 
ATOM     11  O   UNL     1      53.063   8.694   8.037  0.00  0.00    +0.000 OA
ATOM     12  H   UNL     1      52.127   6.670  10.291  0.00  0.00    +0.000 HD
BRANCH  10  13
ATOM     13  C   UNL     1      53.251   6.337   8.114  0.00  0.00    +0.000 A 
ATOM     14  C   UNL     1      54.180   5.482   8.675  0.00  0.00    +0.000 A 
ATOM     15  N   UNL     1      54.214   4.387   7.859  0.00  0.00    +0.000 N 
ATOM     16  C   UNL     1      53.327   4.605   6.841  0.00  0.00    +0.000 A 
ATOM     17  N   UNL     1      52.727   5.769   6.957  0.00  0.00    +0.000 NA
ATOM     18  H   UNL     1      54.787   3.564   7.982  0.00  0.00    +0.000 HD
ENDBRANCH  10  13
ENDBRANCH   8   9
ENDBRANCH   5   8
ENDBRANCH   1   2
BRANCH   1  19
ATOM     19  N   UNL     1      46.146   6.972  13.144  0.00  0.00    +0.000 N 
ATOM     20  C   UNL     1      45.334   6.820  12.048  0.00  0.00    +0.000 C 
ATOM     21  O   UNL     1      45.191   7.706  11.209  0.00  0.00    +0.000 OA
ATOM     22  H   UNL     1      45.935   6.385  13.946  0.00  0.00    +0.000 HD
BRANCH  20  23
ATOM     23  C   UNL     1      44.746   5.490  11.858  0.00  0.00    +0.000 A 
ATOM     24  C   UNL     1      44.005   4.915  12.880  0.00  0.00    +0.000 A 
ATOM     25  S   UNL     1      43.354   3.391  12.480  0.00  0.00    +0.000 S 
ATOM     26  C   UNL     1      44.080   3.426  10.941  0.00  0.00    +0.000 A 
ATOM     27  N   UNL     1      43.945   2.382  10.079  0.00  0.00    +0.000 NA
ATOM     28  C   UNL     1      44.574   2.532   8.961  0.00  0.00    +0.000 A 
ATOM     29  N   UNL     1      45.315   3.637   8.622  0.00  0.00    +0.000 N 
ATOM     30  C   UNL     1      45.453   4.725   9.447  0.00  0.00    +0.000 A 
ATOM     31  O   UNL     1      46.079   5.722   9.107  0.00  0.00    +0.000 OA
ATOM     32  C   UNL     1      44.784   4.596  10.727  0.00  0.00    +0.000 A 
ATOM     33  H   UNL     1      45.770   3.695   7.721  0.00  0.00    +0.000 HD
ENDBRANCH  20  23
ENDBRANCH   1  19
BRANCH   1  34
ATOM     34  N   UNL     1      45.871   9.269  13.135  0.00  0.00    +0.000 NA
ATOM     35  H   UNL     1      46.367  10.146  13.318  0.00  0.00    +0.000 HD
ATOM     36  H   UNL     1      45.115   9.249  13.811  0.00  0.00    +0.000 HD
ENDBRANCH   1  34
TORSDOF 7
ENDMDL
MODEL 8
REMARK VINA RESULT:    -6.997      2.807      4.381
REMARK INTER + INTRA:         -10.462
REMARK INTER:                  -9.321
REMARK INTRA:                  -1.141
REMARK UNBOUND:                -0.806
REMARK  Name = 
REMARK  7 active torsions:
REMARK  status: ('A' for Active; 'I' for Inactive)
REMARK    1  A    between atoms: N_1  and  C_2
REMARK    2  A    between atoms: C_2  and  N_3
REMARK    3  A    between atoms: C_2  and  C_16
REMARK    4  A    between atoms: C_4  and  C_6
REMARK    5  A    between atoms: C_19  and  C_20
REMARK    6  A    between atoms: C_20  and  N_21
REMARK    7  A    between atoms: C_22  and  C_24
REMARK                            x       y       z     vdW  Elec       q    Type
REMARK                         _______ _______ _______ _____ _____    ______ ____
ROOT
ATOM      1  C   UNL     1      47.204   5.975  14.637  0.00  0.00    +0.000 C 
ENDROOT
BRANCH   1   2
ATOM      2  C   UNL     1      46.536   5.542  13.345  0.00  0.00    +0.000 A 
ATOM      3  C   UNL     1      45.976   4.262  13.224  0.00  0.00    +0.000 A 
ATOM      4  C   UNL     1      45.323   3.874  12.048  0.00  0.00    +0.000 A 
ATOM      5  C   UNL     1      45.228   4.750  10.957  0.00  0.00    +0.000 A 
ATOM      6  C   UNL     1      45.794   6.025  11.069  0.00  0.00    +0.000 A 
ATOM      7  C   UNL     1      46.444   6.413  12.244  0.00  0.00    +0.000 A 
BRANCH   5   8
ATOM      8  C   UNL     1      44.534   4.335   9.689  0.00  0.00    +0.000 C 
BRANCH   8   9
ATOM      9  N   UNL     1      45.456   4.008   8.634  0.00  0.00    +0.000 N 
ATOM     10  C   UNL     1      45.726   2.696   8.316  0.00  0.00    +0.000 C 
ATOM     11  O   UNL     1      45.262   1.742   8.932  0.00  0.00    +0.000 OA
ATOM     12  H   UNL     1      45.858   4.725   8.039  0.00  0.00    +0.000 HD
BRANCH  10  13
ATOM     13  C   UNL     1      46.615   2.540   7.163  0.00  0.00    +0.000 A 
ATOM     14  C   UNL     1      47.813   1.851   7.140  0.00  0.00    +0.000 A 
ATOM     15  N   UNL     1      48.278   1.961   5.860  0.00  0.00    +0.000 N 
ATOM     16  C   UNL     1      47.371   2.704   5.156  0.00  0.00    +0.000 A 
ATOM     17  N   UNL     1      46.355   3.074   5.905  0.00  0.00    +0.000 NA
ATOM     18  H   UNL     1      49.133   1.566   5.496  0.00  0.00    +0.000 HD
ENDBRANCH  10  13
ENDBRANCH   8   9
ENDBRANCH   5   8
ENDBRANCH   1   2
BRANCH   1  19
ATOM     19  N   UNL     1      48.532   6.454  14.377  0.00  0.00    +0.000 N 
ATOM     20  C   UNL     1      48.956   7.715  14.714  0.00  0.00    +0.000 C 
ATOM     21  O   UNL     1      48.258   8.491  15.362  0.00  0.00    +0.000 OA
ATOM     22  H   UNL     1      48.976   6.031  13.568  0.00  0.00    +0.000 HD
BRANCH  20  23
ATOM     23  C   UNL     1      50.345   8.044  14.375  0.00  0.00    +0.000 A 
ATOM     24  C   UNL     1      51.264   8.266  15.390  0.00  0.00    +0.000 A 
ATOM     25  S   UNL     1      52.841   8.589  14.826  0.00  0.00    +0.000 S 
ATOM     26  C   UNL     1      52.337   8.490  13.204  0.00  0.00    +0.000 A 
ATOM     27  N   UNL     1      53.213   8.705  12.185  0.00  0.00    +0.000 NA
ATOM     28  C   UNL     1      52.688   8.627  11.007  0.00  0.00    +0.000 A 
ATOM     29  N   UNL     1      51.368   8.341  10.758  0.00  0.00    +0.000 N 
ATOM     30  C   UNL     1      50.457   8.088  11.752  0.00  0.00    +0.000 A 
ATOM     31  O   UNL     1      49.295   7.787  11.506  0.00  0.00    +0.000 OA
ATOM     32  C   UNL     1      50.993   8.186  13.095  0.00  0.00    +0.000 A 
ATOM     33  H   UNL     1      51.026   8.281   9.808  0.00  0.00    +0.000 HD
ENDBRANCH  20  23
ENDBRANCH   1  19
BRANCH   1  34
ATOM     34  N   UNL     1      47.336   4.856  15.547  0.00  0.00    +0.000 NA
ATOM     35  H   UNL     1      46.393   4.662  15.894  0.00  0.00    +0.000 HD
ATOM     36  H   UNL     1      47.853   5.177  16.359  0.00  0.00    +0.000 HD
ENDBRANCH   1  34
TORSDOF 7
ENDMDL
MODEL 9
REMARK VINA RESULT:    -6.737      3.529      9.235
REMARK INTER + INTRA:         -10.102
REMARK INTER:                  -9.444
REMARK INTRA:                  -0.659
REMARK UNBOUND:                -0.806
REMARK  Name = 
REMARK  7 active torsions:
REMARK  status: ('A' for Active; 'I' for Inactive)
REMARK    1  A    between atoms: N_1  and  C_2
REMARK    2  A    between atoms: C_2  and  N_3
REMARK    3  A    between atoms: C_2  and  C_16
REMARK    4  A    between atoms: C_4  and  C_6
REMARK    5  A    between atoms: C_19  and  C_20
REMARK    6  A    between atoms: C_20  and  N_21
REMARK    7  A    between atoms: C_22  and  C_24
REMARK                            x       y       z     vdW  Elec       q    Type
REMARK                         _______ _______ _______ _____ _____    ______ ____
ROOT
ATOM      1  C   UNL     1      44.178   3.425  11.966  0.00  0.00    +0.000 C 
ENDROOT
BRANCH   1   2
ATOM      2  C   UNL     1      44.859   4.751  12.252  0.00  0.00    +0.000 A 
ATOM      3  C   UNL     1      44.236   5.961  11.916  0.00  0.00    +0.000 A 
ATOM      4  C   UNL     1      44.843   7.188  12.215  0.00  0.00    +0.000 A 
ATOM      5  C   UNL     1      46.096   7.233  12.844  0.00  0.00    +0.000 A 
ATOM      6  C   UNL     1      46.727   6.028  13.171  0.00  0.00    +0.000 A 
ATOM      7  C   UNL     1      46.120   4.804  12.873  0.00  0.00    +0.000 A 
BRANCH   5   8
ATOM      8  C   UNL     1      46.756   8.547  13.160  0.00  0.00    +0.000 C 
BRANCH   8   9
ATOM      9  N   UNL     1      47.118   8.667  14.547  0.00  0.00    +0.000 N 
ATOM     10  C   UNL     1      48.438   8.632  14.936  0.00  0.00    +0.000 C 
ATOM     11  O   UNL     1      49.367   8.441  14.157  0.00  0.00    +0.000 OA
ATOM     12  H   UNL     1      46.426   8.869  15.261  0.00  0.00    +0.000 HD
BRANCH  10  13
ATOM     13  C   UNL     1      48.636   8.856  16.369  0.00  0.00    +0.000 A 
ATOM     14  C   UNL     1      47.930   9.737  17.166  0.00  0.00    +0.000 A 
ATOM     15  N   UNL     1      48.446   9.594  18.422  0.00  0.00    +0.000 N 
ATOM     16  C   UNL     1      49.436   8.654  18.356  0.00  0.00    +0.000 A 
ATOM     17  N   UNL     1      49.583   8.185  17.136  0.00  0.00    +0.000 NA
ATOM     18  H   UNL     1      48.151  10.090  19.252  0.00  0.00    +0.000 HD
ENDBRANCH  10  13
ENDBRANCH   8   9
ENDBRANCH   5   8
ENDBRANCH   1   2
BRANCH   1  19
ATOM     19  N   UNL     1      44.890   2.707  10.947  0.00  0.00    +0.000 N 
ATOM     20  C   UNL     1      44.704   2.925   9.604  0.00  0.00    +0.000 C 
ATOM     21  O   UNL     1      43.992   3.830   9.178  0.00  0.00    +0.000 OA
ATOM     22  H   UNL     1      45.167   1.768  11.217  0.00  0.00    +0.000 HD
BRANCH  20  23
ATOM     23  C   UNL     1      45.512   2.102   8.697  0.00  0.00    +0.000 A 
ATOM     24  C   UNL     1      45.415   0.719   8.757  0.00  0.00    +0.000 A 
ATOM     25  S   UNL     1      46.382  -0.085   7.606  0.00  0.00    +0.000 S 
ATOM     26  C   UNL     1      47.000   1.388   7.019  0.00  0.00    +0.000 A 
ATOM     27  N   UNL     1      47.928   1.411   6.024  0.00  0.00    +0.000 NA
ATOM     28  C   UNL     1      48.330   2.595   5.700  0.00  0.00    +0.000 A 
ATOM     29  N   UNL     1      47.878   3.758   6.272  0.00  0.00    +0.000 N 
ATOM     30  C   UNL     1      46.922   3.784   7.256  0.00  0.00    +0.000 A 
ATOM     31  O   UNL     1      46.497   4.835   7.720  0.00  0.00    +0.000 OA
ATOM     32  C   UNL     1      46.455   2.476   7.673  0.00  0.00    +0.000 A 
ATOM     33  H   UNL     1      48.225   4.654   5.959  0.00  0.00    +0.000 HD
ENDBRANCH  20  23
ENDBRANCH   1  19
BRANCH   1  34
ATOM     34  N   UNL     1      42.835   3.635  11.465  0.00  0.00    +0.000 NA
ATOM     35  H   UNL     1      42.254   3.826  12.286  0.00  0.00    +0.000 HD
ATOM     36  H   UNL     1      42.497   2.749  11.105  0.00  0.00    +0.000 HD
ENDBRANCH   1  34
TORSDOF 7
ENDMDL
