MODEL 1
REMARK VINA RESULT:    -7.549      0.000      0.000
REMARK INTER + INTRA:         -10.599
REMARK INTER:                  -9.976
REMARK INTRA:                  -0.623
REMARK UNBOUND:                -0.623
REMARK  Name = 
REMARK  6 active torsions:
REMARK  status: ('A' for Active; 'I' for Inactive)
REMARK    1  A    between atoms: N_1  and  C_2
REMARK    2  A    between atoms: C_2  and  C_3
REMARK    3  A    between atoms: C_6  and  O_7
REMARK    4  A    between atoms: O_7  and  C_8
REMARK    5  A    between atoms: C_8  and  C_9
REMARK    6  A    between atoms: C_12  and  C_13
REMARK                            x       y       z     vdW  Elec       q    Type
REMARK                         _______ _______ _______ _____ _____    ______ ____
ROOT
ATOM      1  O   UNL     1      43.621   4.205   9.891  0.00  0.00    +0.000 OA
ENDROOT
BRANCH   1   5
ATOM      2  C   UNL     1      46.554   2.264   7.625  0.00  0.00    +0.000 A 
ATOM      3  C   UNL     1      45.744   1.505   8.482  0.00  0.00    +0.000 A 
ATOM      4  C   UNL     1      44.743   2.110   9.250  0.00  0.00    +0.000 A 
ATOM      5  C   UNL     1      44.542   3.487   9.178  0.00  0.00    +0.000 A 
ATOM      6  C   UNL     1      45.337   4.247   8.319  0.00  0.00    +0.000 A 
ATOM      7  C   UNL     1      46.336   3.644   7.549  0.00  0.00    +0.000 A 
BRANCH   2   8
ATOM      8  C   UNL     1      47.662   1.612   6.837  0.00  0.00    +0.000 C 
BRANCH   8   9
ATOM      9  N   UNL     1      48.622   2.588   6.338  0.00  0.00    +0.000 NA
ATOM     10  H   UNL     1      48.221   3.520   6.417  0.00  0.00    +0.000 HD
ATOM     11  H   UNL     1      48.768   2.422   5.342  0.00  0.00    +0.000 HD
ENDBRANCH   8   9
ENDBRANCH   2   8
ENDBRANCH   1   5
BRANCH   1  12
ATOM     12  C   UNL     1      43.562   3.960  11.298  0.00  0.00    +0.000 C 
BRANCH  12  13
ATOM     13  C   UNL     1      44.711   4.671  11.976  0.00  0.00    +0.000 A 
ATOM     14  C   UNL     1      45.021   5.988  11.638  0.00  0.00    +0.000 A 
ATOM     15  C   UNL     1      46.082   6.619  12.285  0.00  0.00    +0.000 A 
ATOM     16  C   UNL     1      46.812   5.927  13.254  0.00  0.00    +0.000 A 
ATOM     17  C   UNL     1      46.443   4.616  13.517  0.00  0.00    +0.000 A 
ATOM     18  N   UNL     1      45.424   3.977  12.899  0.00  0.00    +0.000 NA
BRANCH  16  19
ATOM     19  C   UNL     1      47.948   6.539  14.009  0.00  0.00    +0.000 C 
ATOM     20  F   UNL     1      48.249   5.884  15.164  0.00  0.00    +0.000 F 
ATOM     21  F   UNL     1      49.102   6.566  13.285  0.00  0.00    +0.000 F 
ATOM     22  F   UNL     1      47.703   7.830  14.367  0.00  0.00    +0.000 F 
ENDBRANCH  16  19
ENDBRANCH  12  13
ENDBRANCH   1  12
TORSDOF 6
ENDMDL
MODEL 2
REMARK VINA RESULT:    -7.454      3.799      6.589
REMARK INTER + INTRA:         -10.474
REMARK INTER:                  -9.903
REMARK INTRA:                  -0.571
REMARK UNBOUND:                -0.623
REMARK  Name = 
REMARK  6 active torsions:
REMARK  status: ('A' for Active; 'I' for Inactive)
REMARK    1  A    between atoms: N_1  and  C_2
REMARK    2  A    between atoms: C_2  and  C_3
REMARK    3  A    between atoms: C_6  and  O_7
REMARK    4  A    between atoms: O_7  and  C_8
REMARK    5  A    between atoms: C_8  and  C_9
REMARK    6  A    between atoms: C_12  and  C_13
REMARK                            x       y       z     vdW  Elec       q    Type
REMARK                         _______ _______ _______ _____ _____    ______ ____
ROOT
ATOM      1  O   UNL     1      44.171   4.362  11.687  0.00  0.00    +0.000 OA
ENDROOT
BRANCH   1   5
ATOM      2  C   UNL     1      47.447   6.311  13.412  0.00  0.00    +0.000 A 
ATOM      3  C   UNL     1      46.718   6.965  12.408  0.00  0.00    +0.000 A 
ATOM      4  C   UNL     1      45.609   6.356  11.810  0.00  0.00    +0.000 A 
ATOM      5  C   UNL     1      45.215   5.079  12.204  0.00  0.00    +0.000 A 
ATOM      6  C   UNL     1      45.928   4.427  13.212  0.00  0.00    +0.000 A 
ATOM      7  C   UNL     1      47.035   5.034  13.812  0.00  0.00    +0.000 A 
BRANCH   2   8
ATOM      8  C   UNL     1      48.669   6.954  14.017  0.00  0.00    +0.000 C 
BRANCH   8   9
ATOM      9  N   UNL     1      49.799   6.946  13.097  0.00  0.00    +0.000 NA
ATOM     10  H   UNL     1      50.350   7.789  13.240  0.00  0.00    +0.000 HD
ATOM     11  H   UNL     1      49.443   6.994  12.143  0.00  0.00    +0.000 HD
ENDBRANCH   8   9
ENDBRANCH   2   8
ENDBRANCH   1   5
BRANCH   1  12
ATOM     12  C   UNL     1      43.792   4.657  10.340  0.00  0.00    +0.000 C 
BRANCH  12  13
ATOM     13  C   UNL     1      44.690   3.895   9.392  0.00  0.00    +0.000 A 
ATOM     14  C   UNL     1      44.762   2.504   9.456  0.00  0.00    +0.000 A 
ATOM     15  C   UNL     1      45.594   1.829   8.565  0.00  0.00    +0.000 A 
ATOM     16  C   UNL     1      46.336   2.552   7.629  0.00  0.00    +0.000 A 
ATOM     17  C   UNL     1      46.215   3.933   7.646  0.00  0.00    +0.000 A 
ATOM     18  N   UNL     1      45.422   4.614   8.504  0.00  0.00    +0.000 NA
BRANCH  16  19
ATOM     19  C   UNL     1      47.233   1.902   6.624  0.00  0.00    +0.000 C 
ATOM     20  F   UNL     1      48.559   2.055   6.899  0.00  0.00    +0.000 F 
ATOM     21  F   UNL     1      47.026   0.560   6.530  0.00  0.00    +0.000 F 
ATOM     22  F   UNL     1      47.055   2.396   5.367  0.00  0.00    +0.000 F 
ENDBRANCH  16  19
ENDBRANCH  12  13
ENDBRANCH   1  12
TORSDOF 6
ENDMDL
MODEL 3
REMARK VINA RESULT:    -7.048      3.960      6.683
REMARK INTER + INTRA:          -9.938
REMARK INTER:                  -9.387
REMARK INTRA:                  -0.550
REMARK UNBOUND:                -0.623
REMARK  Name = 
REMARK  6 active torsions:
REMARK  status: ('A' for Active; 'I' for Inactive)
REMARK    1  A    between atoms: N_1  and  C_2
REMARK    2  A    between atoms: C_2  and  C_3
REMARK    3  A    between atoms: C_6  and  O_7
REMARK    4  A    between atoms: O_7  and  C_8
REMARK    5  A    between atoms: C_8  and  C_9
REMARK    6  A    between atoms: C_12  and  C_13
REMARK                            x       y       z     vdW  Elec       q    Type
REMARK                         _______ _______ _______ _____ _____    ______ ____
ROOT
ATOM      1  O   UNL     1      44.493   4.314  11.937  0.00  0.00    +0.000 OA
ENDROOT
BRANCH   1   5
ATOM      2  C   UNL     1      46.233   8.109  12.194  0.00  0.00    +0.000 A 
ATOM      3  C   UNL     1      47.010   6.983  12.501  0.00  0.00    +0.000 A 
ATOM      4  C   UNL     1      46.473   5.693  12.418  0.00  0.00    +0.000 A 
ATOM      5  C   UNL     1      45.147   5.511  12.033  0.00  0.00    +0.000 A 
ATOM      6  C   UNL     1      44.371   6.627  11.714  0.00  0.00    +0.000 A 
ATOM      7  C   UNL     1      44.906   7.916  11.794  0.00  0.00    +0.000 A 
BRANCH   2   8
ATOM      8  C   UNL     1      46.805   9.497  12.331  0.00  0.00    +0.000 C 
BRANCH   8   9
ATOM      9  N   UNL     1      45.770  10.522  12.258  0.00  0.00    +0.000 NA
ATOM     10  H   UNL     1      44.868  10.099  12.464  0.00  0.00    +0.000 HD
ATOM     11  H   UNL     1      45.715  10.861  11.297  0.00  0.00    +0.000 HD
ENDBRANCH   8   9
ENDBRANCH   2   8
ENDBRANCH   1   5
BRANCH   1  12
ATOM     12  C   UNL     1      43.713   4.098  10.757  0.00  0.00    +0.000 C 
BRANCH  12  13
ATOM     13  C   UNL     1      44.606   3.565   9.661  0.00  0.00    +0.000 A 
ATOM     14  C   UNL     1      45.224   4.440   8.768  0.00  0.00    +0.000 A 
ATOM     15  C   UNL     1      46.047   3.918   7.772  0.00  0.00    +0.000 A 
ATOM     16  C   UNL     1      46.239   2.538   7.685  0.00  0.00    +0.000 A 
ATOM     17  C   UNL     1      45.574   1.741   8.605  0.00  0.00    +0.000 A 
ATOM     18  N   UNL     1      44.764   2.220   9.577  0.00  0.00    +0.000 NA
BRANCH  16  19
ATOM     19  C   UNL     1      47.123   1.902   6.661  0.00  0.00    +0.000 C 
ATOM     20  F   UNL     1      48.452   2.078   6.904  0.00  0.00    +0.000 F 
ATOM     21  F   UNL     1      46.937   0.556   6.573  0.00  0.00    +0.000 F 
ATOM     22  F   UNL     1      46.907   2.389   5.407  0.00  0.00    +0.000 F 
ENDBRANCH  16  19
ENDBRANCH  12  13
ENDBRANCH   1  12
TORSDOF 6
ENDMDL
MODEL 4
REMARK VINA RESULT:    -6.446      1.646      2.343
REMARK INTER + INTRA:          -9.142
REMARK INTER:                  -8.704
REMARK INTRA:                  -0.438
REMARK UNBOUND:                -0.623
REMARK  Name = 
REMARK  6 active torsions:
REMARK  status: ('A' for Active; 'I' for Inactive)
REMARK    1  A    between atoms: N_1  and  C_2
REMARK    2  A    between atoms: C_2  and  C_3
REMARK    3  A    between atoms: C_6  and  O_7
REMARK    4  A    between atoms: O_7  and  C_8
REMARK    5  A    between atoms: C_8  and  C_9
REMARK    6  A    between atoms: C_12  and  C_13
REMARK                            x       y       z     vdW  Elec       q    Type
REMARK                         _______ _______ _______ _____ _____    ______ ____
ROOT
ATOM      1  O   UNL     1      44.663   5.132  10.476  0.00  0.00    +0.000 OA
ENDROOT
BRANCH   1   5
ATOM      2  C   UNL     1      46.305   2.687   7.505  0.00  0.00    +0.000 A 
ATOM      3  C   UNL     1      45.574   2.094   8.546  0.00  0.00    +0.000 A 
ATOM      4  C   UNL     1      44.997   2.874   9.555  0.00  0.00    +0.000 A 
ATOM      5  C   UNL     1      45.149   4.259   9.542  0.00  0.00    +0.000 A 
ATOM      6  C   UNL     1      45.865   4.856   8.503  0.00  0.00    +0.000 A 
ATOM      7  C   UNL     1      46.440   4.079   7.492  0.00  0.00    +0.000 A 
BRANCH   2   8
ATOM      8  C   UNL     1      46.962   1.836   6.449  0.00  0.00    +0.000 C 
BRANCH   8   9
ATOM      9  N   UNL     1      48.359   1.560   6.764  0.00  0.00    +0.000 NA
ATOM     10  H   UNL     1      48.924   1.718   5.933  0.00  0.00    +0.000 HD
ATOM     11  H   UNL     1      48.452   0.570   6.990  0.00  0.00    +0.000 HD
ENDBRANCH   8   9
ENDBRANCH   2   8
ENDBRANCH   1   5
BRANCH   1  12
ATOM     12  C   UNL     1      45.580   6.100  10.993  0.00  0.00    +0.000 C 
BRANCH  12  13
ATOM     13  C   UNL     1      46.106   5.623  12.328  0.00  0.00    +0.000 A 
ATOM     14  C   UNL     1      45.620   4.447  12.896  0.00  0.00    +0.000 A 
ATOM     15  C   UNL     1      46.129   4.030  14.125  0.00  0.00    +0.000 A 
ATOM     16  C   UNL     1      47.112   4.791  14.760  0.00  0.00    +0.000 A 
ATOM     17  C   UNL     1      47.528   5.954  14.129  0.00  0.00    +0.000 A 
ATOM     18  N   UNL     1      47.045   6.386  12.942  0.00  0.00    +0.000 NA
BRANCH  16  19
ATOM     19  C   UNL     1      47.726   4.400  16.067  0.00  0.00    +0.000 C 
ATOM     20  F   UNL     1      48.797   5.167  16.415  0.00  0.00    +0.000 F 
ATOM     21  F   UNL     1      46.849   4.493  17.105  0.00  0.00    +0.000 F 
ATOM     22  F   UNL     1      48.173   3.114  16.071  0.00  0.00    +0.000 F 
ENDBRANCH  16  19
ENDBRANCH  12  13
ENDBRANCH   1  12
TORSDOF 6
ENDMDL
MODEL 5
REMARK VINA RESULT:    -6.003      1.633      2.357
REMARK INTER + INTRA:          -8.556
REMARK INTER:                  -8.152
REMARK INTRA:                  -0.404
REMARK UNBOUND:                -0.623
REMARK  Name = 
REMARK  6 active torsions:
REMARK  status: ('A' for Active; 'I' for Inactive)
REMARK    1  A    between atoms: N_1  and  C_2
REMARK    2  A    between atoms: C_2  and  C_3
REMARK    3  A    between atoms: C_6  and  O_7
REMARK    4  A    between atoms: O_7  and  C_8
REMARK    5  A    between atoms: C_8  and  C_9
REMARK    6  A    between atoms: C_12  and  C_13
REMARK                            x       y       z     vdW  Elec       q    Type
REMARK                         _______ _______ _______ _____ _____    ______ ____
ROOT
ATOM      1  O   UNL     1      43.556   4.408  11.705  0.00  0.00    +0.000 OA
ENDROOT
BRANCH   1   5
ATOM      2  C   UNL     1      45.595   3.270   8.234  0.00  0.00    +0.000 A 
ATOM      3  C   UNL     1      45.619   4.617   8.626  0.00  0.00    +0.000 A 
ATOM      4  C   UNL     1      44.961   5.041   9.786  0.00  0.00    +0.000 A 
ATOM      5  C   UNL     1      44.261   4.124  10.568  0.00  0.00    +0.000 A 
ATOM      6  C   UNL     1      44.243   2.781  10.190  0.00  0.00    +0.000 A 
ATOM      7  C   UNL     1      44.902   2.354   9.033  0.00  0.00    +0.000 A 
BRANCH   2   8
ATOM      8  C   UNL     1      46.267   2.830   6.958  0.00  0.00    +0.000 C 
BRANCH   8   9
ATOM      9  N   UNL     1      46.864   3.951   6.243  0.00  0.00    +0.000 NA
ATOM     10  H   UNL     1      46.961   3.705   5.260  0.00  0.00    +0.000 HD
ATOM     11  H   UNL     1      47.809   4.097   6.597  0.00  0.00    +0.000 HD
ENDBRANCH   8   9
ENDBRANCH   2   8
ENDBRANCH   1   5
BRANCH   1  12
ATOM     12  C   UNL     1      44.275   4.352  12.940  0.00  0.00    +0.000 C 
BRANCH  12  13
ATOM     13  C   UNL     1      45.311   5.453  12.963  0.00  0.00    +0.000 A 
ATOM     14  C   UNL     1      46.662   5.144  13.119  0.00  0.00    +0.000 A 
ATOM     15  C   UNL     1      47.594   6.181  13.131  0.00  0.00    +0.000 A 
ATOM     16  C   UNL     1      47.163   7.501  12.986  0.00  0.00    +0.000 A 
ATOM     17  C   UNL     1      45.800   7.717  12.850  0.00  0.00    +0.000 A 
ATOM     18  N   UNL     1      44.873   6.731  12.844  0.00  0.00    +0.000 NA
BRANCH  16  19
ATOM     19  C   UNL     1      48.100   8.666  12.964  0.00  0.00    +0.000 C 
ATOM     20  F   UNL     1      48.983   8.673  14.002  0.00  0.00    +0.000 F 
ATOM     21  F   UNL     1      48.857   8.706  11.833  0.00  0.00    +0.000 F 
ATOM     22  F   UNL     1      47.450   9.861  13.020  0.00  0.00    +0.000 F 
ENDBRANCH  16  19
ENDBRANCH  12  13
ENDBRANCH   1  12
TORSDOF 6
ENDMDL
MODEL 6
REMARK VINA RESULT:    -5.964      4.681      8.008
REMARK INTER + INTRA:          -8.504
REMARK INTER:                  -8.145
REMARK INTRA:                  -0.359
REMARK UNBOUND:                -0.623
REMARK  Name = 
REMARK  6 active torsions:
REMARK  status: ('A' for Active; 'I' for Inactive)
REMARK    1  A    between atoms: N_1  and  C_2
REMARK    2  A    between atoms: C_2  and  C_3
REMARK    3  A    between atoms: C_6  and  O_7
REMARK    4  A    between atoms: O_7  and  C_8
REMARK    5  A    between atoms: C_8  and  C_9
REMARK    6  A    between atoms: C_12  and  C_13
REMARK                            x       y       z     vdW  Elec       q    Type
REMARK                         _______ _______ _______ _____ _____    ______ ____
ROOT
ATOM      1  O   UNL     1      47.232   3.757  14.855  0.00  0.00    +0.000 OA
ENDROOT
BRANCH   1   5
ATOM      2  C   UNL     1      48.635   4.268  18.763  0.00  0.00    +0.000 A 
ATOM      3  C   UNL     1      48.363   2.971  18.302  0.00  0.00    +0.000 A 
ATOM      4  C   UNL     1      47.903   2.751  16.999  0.00  0.00    +0.000 A 
ATOM      5  C   UNL     1      47.701   3.828  16.138  0.00  0.00    +0.000 A 
ATOM      6  C   UNL     1      47.981   5.121  16.586  0.00  0.00    +0.000 A 
ATOM      7  C   UNL     1      48.443   5.342  17.887  0.00  0.00    +0.000 A 
BRANCH   2   8
ATOM      8  C   UNL     1      49.085   4.499  20.183  0.00  0.00    +0.000 C 
BRANCH   8   9
ATOM      9  N   UNL     1      47.967   4.486  21.117  0.00  0.00    +0.000 NA
ATOM     10  H   UNL     1      47.102   4.634  20.602  0.00  0.00    +0.000 HD
ATOM     11  H   UNL     1      48.062   5.279  21.751  0.00  0.00    +0.000 HD
ENDBRANCH   8   9
ENDBRANCH   2   8
ENDBRANCH   1   5
BRANCH   1  12
ATOM     12  C   UNL     1      46.435   4.853  14.398  0.00  0.00    +0.000 C 
BRANCH  12  13
ATOM     13  C   UNL     1      45.976   4.579  12.984  0.00  0.00    +0.000 A 
ATOM     14  C   UNL     1      45.999   5.594  12.028  0.00  0.00    +0.000 A 
ATOM     15  C   UNL     1      45.575   5.309  10.731  0.00  0.00    +0.000 A 
ATOM     16  C   UNL     1      45.139   4.022  10.413  0.00  0.00    +0.000 A 
ATOM     17  C   UNL     1      45.136   3.078  11.429  0.00  0.00    +0.000 A 
ATOM     18  N   UNL     1      45.534   3.329  12.698  0.00  0.00    +0.000 NA
BRANCH  16  19
ATOM     19  C   UNL     1      44.690   3.630   9.041  0.00  0.00    +0.000 C 
ATOM     20  F   UNL     1      45.708   3.543   8.140  0.00  0.00    +0.000 F 
ATOM     21  F   UNL     1      44.071   2.417   9.021  0.00  0.00    +0.000 F 
ATOM     22  F   UNL     1      43.799   4.512   8.510  0.00  0.00    +0.000 F 
ENDBRANCH  16  19
ENDBRANCH  12  13
ENDBRANCH   1  12
TORSDOF 6
ENDMDL
MODEL 7
REMARK VINA RESULT:    -5.812      4.840      7.544
REMARK INTER + INTRA:          -8.303
REMARK INTER:                  -7.881
REMARK INTRA:                  -0.422
REMARK UNBOUND:                -0.623
REMARK  Name = 
REMARK  6 active torsions:
REMARK  status: ('A' for Active; 'I' for Inactive)
REMARK    1  A    between atoms: N_1  and  C_2
REMARK    2  A    between atoms: C_2  and  C_3
REMARK    3  A    between atoms: C_6  and  O_7
REMARK    4  A    between atoms: O_7  and  C_8
REMARK    5  A    between atoms: C_8  and  C_9
REMARK    6  A    between atoms: C_12  and  C_13
REMARK                            x       y       z     vdW  Elec       q    Type
REMARK                         _______ _______ _______ _____ _____    ______ ____
ROOT
ATOM      1  O   UNL     1      47.058   3.979  15.932  0.00  0.00    +0.000 OA
ENDROOT
BRANCH   1   5
ATOM      2  C   UNL     1      50.775   2.889  17.511  0.00  0.00    +0.000 A 
ATOM      3  C   UNL     1      49.977   1.904  16.909  0.00  0.00    +0.000 A 
ATOM      4  C   UNL     1      48.732   2.225  16.358  0.00  0.00    +0.000 A 
ATOM      5  C   UNL     1      48.262   3.536  16.406  0.00  0.00    +0.000 A 
ATOM      6  C   UNL     1      49.056   4.523  16.994  0.00  0.00    +0.000 A 
ATOM      7  C   UNL     1      50.302   4.205  17.543  0.00  0.00    +0.000 A 
BRANCH   2   8
ATOM      8  C   UNL     1      52.094   2.526  18.145  0.00  0.00    +0.000 C 
BRANCH   8   9
ATOM      9  N   UNL     1      52.286   1.082  18.213  0.00  0.00    +0.000 NA
ATOM     10  H   UNL     1      53.151   0.839  17.735  0.00  0.00    +0.000 HD
ATOM     11  H   UNL     1      51.534   0.628  17.694  0.00  0.00    +0.000 HD
ENDBRANCH   8   9
ENDBRANCH   2   8
ENDBRANCH   1   5
BRANCH   1  12
ATOM     12  C   UNL     1      47.083   5.136  15.092  0.00  0.00    +0.000 C 
BRANCH  12  13
ATOM     13  C   UNL     1      46.374   4.823  13.793  0.00  0.00    +0.000 A 
ATOM     14  C   UNL     1      46.105   5.839  12.877  0.00  0.00    +0.000 A 
ATOM     15  C   UNL     1      45.456   5.519  11.686  0.00  0.00    +0.000 A 
ATOM     16  C   UNL     1      45.088   4.197  11.432  0.00  0.00    +0.000 A 
ATOM     17  C   UNL     1      45.382   3.253  12.405  0.00  0.00    +0.000 A 
ATOM     18  N   UNL     1      46.004   3.537  13.572  0.00  0.00    +0.000 NA
BRANCH  16  19
ATOM     19  C   UNL     1      44.410   3.768  10.170  0.00  0.00    +0.000 C 
ATOM     20  F   UNL     1      43.803   2.553  10.264  0.00  0.00    +0.000 F 
ATOM     21  F   UNL     1      43.440   4.639   9.776  0.00  0.00    +0.000 F 
ATOM     22  F   UNL     1      45.272   3.672   9.120  0.00  0.00    +0.000 F 
ENDBRANCH  16  19
ENDBRANCH  12  13
ENDBRANCH   1  12
TORSDOF 6
ENDMDL
MODEL 8
REMARK VINA RESULT:    -5.679      3.054      4.295
REMARK INTER + INTRA:          -8.129
REMARK INTER:                  -7.672
REMARK INTRA:                  -0.457
REMARK UNBOUND:                -0.623
REMARK  Name = 
REMARK  6 active torsions:
REMARK  status: ('A' for Active; 'I' for Inactive)
REMARK    1  A    between atoms: N_1  and  C_2
REMARK    2  A    between atoms: C_2  and  C_3
REMARK    3  A    between atoms: C_6  and  O_7
REMARK    4  A    between atoms: O_7  and  C_8
REMARK    5  A    between atoms: C_8  and  C_9
REMARK    6  A    between atoms: C_12  and  C_13
REMARK                            x       y       z     vdW  Elec       q    Type
REMARK                         _______ _______ _______ _____ _____    ______ ____
ROOT
ATOM      1  O   UNL     1      45.803   5.954  13.216  0.00  0.00    +0.000 OA
ENDROOT
BRANCH   1   5
ATOM      2  C   UNL     1      45.108   4.262   9.453  0.00  0.00    +0.000 A 
ATOM      3  C   UNL     1      44.644   3.593  10.596  0.00  0.00    +0.000 A 
ATOM      4  C   UNL     1      44.844   4.127  11.874  0.00  0.00    +0.000 A 
ATOM      5  C   UNL     1      45.519   5.337  12.029  0.00  0.00    +0.000 A 
ATOM      6  C   UNL     1      45.973   6.013  10.895  0.00  0.00    +0.000 A 
ATOM      7  C   UNL     1      45.772   5.483   9.617  0.00  0.00    +0.000 A 
BRANCH   2   8
ATOM      8  C   UNL     1      44.930   3.656   8.084  0.00  0.00    +0.000 C 
BRANCH   8   9
ATOM      9  N   UNL     1      46.073   3.922   7.219  0.00  0.00    +0.000 NA
ATOM     10  H   UNL     1      46.415   3.042   6.840  0.00  0.00    +0.000 HD
ATOM     11  H   UNL     1      46.829   4.304   7.786  0.00  0.00    +0.000 HD
ENDBRANCH   8   9
ENDBRANCH   2   8
ENDBRANCH   1   5
BRANCH   1  12
ATOM     12  C   UNL     1      47.176   6.268  13.466  0.00  0.00    +0.000 C 
BRANCH  12  13
ATOM     13  C   UNL     1      47.634   5.542  14.710  0.00  0.00    +0.000 A 
ATOM     14  C   UNL     1      47.100   4.295  15.033  0.00  0.00    +0.000 A 
ATOM     15  C   UNL     1      47.547   3.647  16.184  0.00  0.00    +0.000 A 
ATOM     16  C   UNL     1      48.515   4.253  16.988  0.00  0.00    +0.000 A 
ATOM     17  C   UNL     1      48.979   5.501  16.598  0.00  0.00    +0.000 A 
ATOM     18  N   UNL     1      48.558   6.155  15.492  0.00  0.00    +0.000 NA
BRANCH  16  19
ATOM     19  C   UNL     1      49.062   3.615  18.224  0.00  0.00    +0.000 C 
ATOM     20  F   UNL     1      48.198   2.744  18.815  0.00  0.00    +0.000 F 
ATOM     21  F   UNL     1      50.200   2.906  17.985  0.00  0.00    +0.000 F 
ATOM     22  F   UNL     1      49.386   4.526  19.183  0.00  0.00    +0.000 F 
ENDBRANCH  16  19
ENDBRANCH  12  13
ENDBRANCH   1  12
TORSDOF 6
ENDMDL
MODEL 9
REMARK VINA RESULT:    -5.502      4.447      8.143
REMARK INTER + INTRA:          -7.894
REMARK INTER:                  -7.559
REMARK INTRA:                  -0.335
REMARK UNBOUND:                -0.623
REMARK  Name = 
REMARK  6 active torsions:
REMARK  status: ('A' for Active; 'I' for Inactive)
REMARK    1  A    between atoms: N_1  and  C_2
REMARK    2  A    between atoms: C_2  and  C_3
REMARK    3  A    between atoms: C_6  and  O_7
REMARK    4  A    between atoms: O_7  and  C_8
REMARK    5  A    between atoms: C_8  and  C_9
REMARK    6  A    between atoms: C_12  and  C_13
REMARK                            x       y       z     vdW  Elec       q    Type
REMARK                         _______ _______ _______ _____ _____    ______ ____
ROOT
ATOM      1  O   UNL     1      48.625   5.887  14.706  0.00  0.00    +0.000 OA
ENDROOT
BRANCH   1   5
ATOM      2  C   UNL     1      48.250   5.583  18.862  0.00  0.00    +0.000 A 
ATOM      3  C   UNL     1      48.839   6.733  18.315  0.00  0.00    +0.000 A 
ATOM      4  C   UNL     1      48.975   6.882  16.930  0.00  0.00    +0.000 A 
ATOM      5  C   UNL     1      48.530   5.880  16.071  0.00  0.00    +0.000 A 
ATOM      6  C   UNL     1      47.933   4.738  16.609  0.00  0.00    +0.000 A 
ATOM      7  C   UNL     1      47.794   4.588  17.991  0.00  0.00    +0.000 A 
BRANCH   2   8
ATOM      8  C   UNL     1      48.151   5.408  20.356  0.00  0.00    +0.000 C 
BRANCH   8   9
ATOM      9  N   UNL     1      48.374   4.025  20.759  0.00  0.00    +0.000 NA
ATOM     10  H   UNL     1      49.245   3.968  21.282  0.00  0.00    +0.000 HD
ATOM     11  H   UNL     1      48.505   3.459  19.921  0.00  0.00    +0.000 HD
ENDBRANCH   8   9
ENDBRANCH   2   8
ENDBRANCH   1   5
BRANCH   1  12
ATOM     12  C   UNL     1      47.815   6.836  14.009  0.00  0.00    +0.000 C 
BRANCH  12  13
ATOM     13  C   UNL     1      46.852   6.100  13.105  0.00  0.00    +0.000 A 
ATOM     14  C   UNL     1      46.606   6.564  11.813  0.00  0.00    +0.000 A 
ATOM     15  C   UNL     1      45.719   5.860  11.001  0.00  0.00    +0.000 A 
ATOM     16  C   UNL     1      45.097   4.710  11.490  0.00  0.00    +0.000 A 
ATOM     17  C   UNL     1      45.389   4.329  12.791  0.00  0.00    +0.000 A 
ATOM     18  N   UNL     1      46.240   4.997  13.603  0.00  0.00    +0.000 NA
BRANCH  16  19
ATOM     19  C   UNL     1      44.151   3.887  10.675  0.00  0.00    +0.000 C 
ATOM     20  F   UNL     1      43.783   4.480   9.505  0.00  0.00    +0.000 F 
ATOM     21  F   UNL     1      44.675   2.678  10.329  0.00  0.00    +0.000 F 
ATOM     22  F   UNL     1      42.992   3.614  11.335  0.00  0.00    +0.000 F 
ENDBRANCH  16  19
ENDBRANCH  12  13
ENDBRANCH   1  12
TORSDOF 6
ENDMDL
