MODEL 1
REMARK VINA RESULT:    -7.442      0.000      0.000
REMARK INTER + INTRA:         -10.062
REMARK INTER:                  -9.617
REMARK INTRA:                  -0.444
REMARK UNBOUND:                -0.444
REMARK  Name = 
REMARK  6 active torsions:
REMARK  status: ('A' for Active; 'I' for Inactive)
REMARK    1  A    between atoms: N_1  and  C_2
REMARK    2  A    between atoms: C_2  and  C_3
REMARK    3  A    between atoms: C_6  and  O_7
REMARK    4  A    between atoms: O_7  and  C_8
REMARK    5  A    between atoms: C_8  and  C_9
REMARK    6  A    between atoms: C_11  and  N_12
REMARK                            x       y       z     vdW  Elec       q    Type
REMARK                         _______ _______ _______ _____ _____    ______ ____
ROOT
ATOM      1  O   UNL     1      43.786   4.027  10.163  0.00  0.00    +0.000 OA
ENDROOT
BRANCH   1   5
ATOM      2  C   UNL     1      46.578   2.320   7.567  0.00  0.00    +0.000 A 
ATOM      3  C   UNL     1      45.794   1.543   8.431  0.00  0.00    +0.000 A 
ATOM      4  C   UNL     1      44.852   2.145   9.270  0.00  0.00    +0.000 A 
ATOM      5  C   UNL     1      44.692   3.532   9.265  0.00  0.00    +0.000 A 
ATOM      6  C   UNL     1      45.438   4.306   8.375  0.00  0.00    +0.000 A 
ATOM      7  C   UNL     1      46.382   3.705   7.541  0.00  0.00    +0.000 A 
BRANCH   2   8
ATOM      8  C   UNL     1      47.621   1.686   6.684  0.00  0.00    +0.000 C 
BRANCH   8   9
ATOM      9  N   UNL     1      48.674   2.630   6.338  0.00  0.00    +0.000 NA
ATOM     10  H   UNL     1      49.435   2.127   5.886  0.00  0.00    +0.000 HD
ATOM     11  H   UNL     1      49.057   3.023   7.197  0.00  0.00    +0.000 HD
ENDBRANCH   8   9
ENDBRANCH   2   8
ENDBRANCH   1   5
BRANCH   1  12
ATOM     12  C   UNL     1      43.837   3.432  11.463  0.00  0.00    +0.000 C 
BRANCH  12  13
ATOM     13  C   UNL     1      44.961   4.048  12.260  0.00  0.00    +0.000 A 
ATOM     14  C   UNL     1      45.047   5.423  12.371  0.00  0.00    +0.000 A 
ATOM     15  C   UNL     1      46.069   5.919  13.145  0.00  0.00    +0.000 A 
ATOM     16  N   UNL     1      46.936   5.133  13.792  0.00  0.00    +0.000 NA
ATOM     17  C   UNL     1      46.765   3.813  13.633  0.00  0.00    +0.000 A 
ATOM     18  N   UNL     1      45.815   3.219  12.895  0.00  0.00    +0.000 NA
BRANCH  15  19
ATOM     19  N   UNL     1      46.207   7.295  13.326  0.00  0.00    +0.000 N 
ATOM     20  H   UNL     1      45.467   7.672  13.905  0.00  0.00    +0.000 HD
ATOM     21  H   UNL     1      46.227   7.723  12.405  0.00  0.00    +0.000 HD
ENDBRANCH  15  19
ENDBRANCH  12  13
ENDBRANCH   1  12
TORSDOF 6
ENDMDL
MODEL 2
REMARK VINA RESULT:    -7.421      0.861      1.974
REMARK INTER + INTRA:         -10.035
REMARK INTER:                  -9.563
REMARK INTRA:                  -0.472
REMARK UNBOUND:                -0.444
REMARK  Name = 
REMARK  6 active torsions:
REMARK  status: ('A' for Active; 'I' for Inactive)
REMARK    1  A    between atoms: N_1  and  C_2
REMARK    2  A    between atoms: C_2  and  C_3
REMARK    3  A    between atoms: C_6  and  O_7
REMARK    4  A    between atoms: O_7  and  C_8
REMARK    5  A    between atoms: C_8  and  C_9
REMARK    6  A    between atoms: C_11  and  N_12
REMARK                            x       y       z     vdW  Elec       q    Type
REMARK                         _______ _______ _______ _____ _____    ______ ____
ROOT
ATOM      1  O   UNL     1      43.692   4.468   9.712  0.00  0.00    +0.000 OA
ENDROOT
BRANCH   1   5
ATOM      2  C   UNL     1      46.615   2.339   7.621  0.00  0.00    +0.000 A 
ATOM      3  C   UNL     1      46.518   3.736   7.549  0.00  0.00    +0.000 A 
ATOM      4  C   UNL     1      45.542   4.419   8.280  0.00  0.00    +0.000 A 
ATOM      5  C   UNL     1      44.644   3.713   9.083  0.00  0.00    +0.000 A 
ATOM      6  C   UNL     1      44.764   2.327   9.193  0.00  0.00    +0.000 A 
ATOM      7  C   UNL     1      45.735   1.644   8.459  0.00  0.00    +0.000 A 
BRANCH   2   8
ATOM      8  C   UNL     1      47.639   1.589   6.810  0.00  0.00    +0.000 C 
BRANCH   8   9
ATOM      9  N   UNL     1      48.642   2.486   6.254  0.00  0.00    +0.000 NA
ATOM     10  H   UNL     1      48.555   3.398   6.699  0.00  0.00    +0.000 HD
ATOM     11  H   UNL     1      48.442   2.628   5.265  0.00  0.00    +0.000 HD
ENDBRANCH   8   9
ENDBRANCH   2   8
ENDBRANCH   1   5
BRANCH   1  12
ATOM     12  C   UNL     1      43.409   4.083  11.061  0.00  0.00    +0.000 C 
BRANCH  12  13
ATOM     13  C   UNL     1      44.508   4.577  11.970  0.00  0.00    +0.000 A 
ATOM     14  C   UNL     1      45.300   3.666  12.645  0.00  0.00    +0.000 A 
ATOM     15  C   UNL     1      46.309   4.180  13.423  0.00  0.00    +0.000 A 
ATOM     16  N   UNL     1      46.554   5.491  13.521  0.00  0.00    +0.000 NA
ATOM     17  C   UNL     1      45.740   6.295  12.821  0.00  0.00    +0.000 A 
ATOM     18  N   UNL     1      44.720   5.908  12.042  0.00  0.00    +0.000 NA
BRANCH  15  19
ATOM     19  N   UNL     1      47.166   3.325  14.115  0.00  0.00    +0.000 N 
ATOM     20  H   UNL     1      47.268   2.435  13.642  0.00  0.00    +0.000 HD
ATOM     21  H   UNL     1      46.796   3.217  15.055  0.00  0.00    +0.000 HD
ENDBRANCH  15  19
ENDBRANCH  12  13
ENDBRANCH   1  12
TORSDOF 6
ENDMDL
MODEL 3
REMARK VINA RESULT:    -6.997      1.670      5.838
REMARK INTER + INTRA:          -9.486
REMARK INTER:                  -9.059
REMARK INTRA:                  -0.427
REMARK UNBOUND:                -0.444
REMARK  Name = 
REMARK  6 active torsions:
REMARK  status: ('A' for Active; 'I' for Inactive)
REMARK    1  A    between atoms: N_1  and  C_2
REMARK    2  A    between atoms: C_2  and  C_3
REMARK    3  A    between atoms: C_6  and  O_7
REMARK    4  A    between atoms: O_7  and  C_8
REMARK    5  A    between atoms: C_8  and  C_9
REMARK    6  A    between atoms: C_11  and  N_12
REMARK                            x       y       z     vdW  Elec       q    Type
REMARK                         _______ _______ _______ _____ _____    ______ ____
ROOT
ATOM      1  O   UNL     1      44.234   3.606   9.921  0.00  0.00    +0.000 OA
ENDROOT
BRANCH   1   5
ATOM      2  C   UNL     1      46.628   5.557  12.733  0.00  0.00    +0.000 A 
ATOM      3  C   UNL     1      46.324   6.130  11.490  0.00  0.00    +0.000 A 
ATOM      4  C   UNL     1      45.500   5.460  10.582  0.00  0.00    +0.000 A 
ATOM      5  C   UNL     1      44.981   4.203  10.900  0.00  0.00    +0.000 A 
ATOM      6  C   UNL     1      45.244   3.648  12.153  0.00  0.00    +0.000 A 
ATOM      7  C   UNL     1      46.071   4.315  13.058  0.00  0.00    +0.000 A 
BRANCH   2   8
ATOM      8  C   UNL     1      47.543   6.255  13.706  0.00  0.00    +0.000 C 
BRANCH   8   9
ATOM      9  N   UNL     1      48.913   6.294  13.216  0.00  0.00    +0.000 NA
ATOM     10  H   UNL     1      48.930   6.764  12.314  0.00  0.00    +0.000 HD
ATOM     11  H   UNL     1      49.229   5.339  13.050  0.00  0.00    +0.000 HD
ENDBRANCH   8   9
ENDBRANCH   2   8
ENDBRANCH   1   5
BRANCH   1  12
ATOM     12  C   UNL     1      44.616   3.937   8.582  0.00  0.00    +0.000 C 
BRANCH  12  13
ATOM     13  C   UNL     1      45.600   2.914   8.068  0.00  0.00    +0.000 A 
ATOM     14  C   UNL     1      46.656   3.319   7.274  0.00  0.00    +0.000 A 
ATOM     15  C   UNL     1      47.539   2.346   6.873  0.00  0.00    +0.000 A 
ATOM     16  N   UNL     1      47.423   1.065   7.241  0.00  0.00    +0.000 NA
ATOM     17  C   UNL     1      46.374   0.771   8.022  0.00  0.00    +0.000 A 
ATOM     18  N   UNL     1      45.445   1.633   8.462  0.00  0.00    +0.000 NA
BRANCH  15  19
ATOM     19  N   UNL     1      48.644   2.680   6.091  0.00  0.00    +0.000 N 
ATOM     20  H   UNL     1      49.469   2.837   6.657  0.00  0.00    +0.000 HD
ATOM     21  H   UNL     1      48.394   3.499   5.545  0.00  0.00    +0.000 HD
ENDBRANCH  15  19
ENDBRANCH  12  13
ENDBRANCH   1  12
TORSDOF 6
ENDMDL
MODEL 4
REMARK VINA RESULT:    -5.925      3.983      7.795
REMARK INTER + INTRA:          -8.102
REMARK INTER:                  -7.827
REMARK INTRA:                  -0.274
REMARK UNBOUND:                -0.444
REMARK  Name = 
REMARK  6 active torsions:
REMARK  status: ('A' for Active; 'I' for Inactive)
REMARK    1  A    between atoms: N_1  and  C_2
REMARK    2  A    between atoms: C_2  and  C_3
REMARK    3  A    between atoms: C_6  and  O_7
REMARK    4  A    between atoms: O_7  and  C_8
REMARK    5  A    between atoms: C_8  and  C_9
REMARK    6  A    between atoms: C_11  and  N_12
REMARK                            x       y       z     vdW  Elec       q    Type
REMARK                         _______ _______ _______ _____ _____    ______ ____
ROOT
ATOM      1  O   UNL     1      46.828   3.756  14.763  0.00  0.00    +0.000 OA
ENDROOT
BRANCH   1   5
ATOM      2  C   UNL     1      48.587   4.507  18.475  0.00  0.00    +0.000 A 
ATOM      3  C   UNL     1      48.049   3.255  18.148  0.00  0.00    +0.000 A 
ATOM      4  C   UNL     1      47.489   3.031  16.887  0.00  0.00    +0.000 A 
ATOM      5  C   UNL     1      47.448   4.059  15.944  0.00  0.00    +0.000 A 
ATOM      6  C   UNL     1      48.022   5.294  16.249  0.00  0.00    +0.000 A 
ATOM      7  C   UNL     1      48.577   5.520  17.509  0.00  0.00    +0.000 A 
BRANCH   2   8
ATOM      8  C   UNL     1      49.162   4.771  19.843  0.00  0.00    +0.000 C 
BRANCH   8   9
ATOM      9  N   UNL     1      48.535   3.936  20.857  0.00  0.00    +0.000 NA
ATOM     10  H   UNL     1      48.720   2.958  20.642  0.00  0.00    +0.000 HD
ATOM     11  H   UNL     1      47.524   4.057  20.802  0.00  0.00    +0.000 HD
ENDBRANCH   8   9
ENDBRANCH   2   8
ENDBRANCH   1   5
BRANCH   1  12
ATOM     12  C   UNL     1      46.457   4.886  13.967  0.00  0.00    +0.000 C 
BRANCH  12  13
ATOM     13  C   UNL     1      45.196   4.573  13.198  0.00  0.00    +0.000 A 
ATOM     14  C   UNL     1      44.295   5.584  12.921  0.00  0.00    +0.000 A 
ATOM     15  C   UNL     1      43.188   5.241  12.182  0.00  0.00    +0.000 A 
ATOM     16  N   UNL     1      42.980   4.004  11.717  0.00  0.00    +0.000 NA
ATOM     17  C   UNL     1      43.915   3.095  12.028  0.00  0.00    +0.000 A 
ATOM     18  N   UNL     1      45.025   3.312  12.750  0.00  0.00    +0.000 NA
BRANCH  15  19
ATOM     19  N   UNL     1      42.245   6.210  11.840  0.00  0.00    +0.000 N 
ATOM     20  H   UNL     1      41.389   6.103  12.370  0.00  0.00    +0.000 HD
ATOM     21  H   UNL     1      42.086   6.140  10.839  0.00  0.00    +0.000 HD
ENDBRANCH  15  19
ENDBRANCH  12  13
ENDBRANCH   1  12
TORSDOF 6
ENDMDL
MODEL 5
REMARK VINA RESULT:    -5.546      2.020      6.160
REMARK INTER + INTRA:          -7.612
REMARK INTER:                  -7.251
REMARK INTRA:                  -0.361
REMARK UNBOUND:                -0.444
REMARK  Name = 
REMARK  6 active torsions:
REMARK  status: ('A' for Active; 'I' for Inactive)
REMARK    1  A    between atoms: N_1  and  C_2
REMARK    2  A    between atoms: C_2  and  C_3
REMARK    3  A    between atoms: C_6  and  O_7
REMARK    4  A    between atoms: O_7  and  C_8
REMARK    5  A    between atoms: C_8  and  C_9
REMARK    6  A    between atoms: C_11  and  N_12
REMARK                            x       y       z     vdW  Elec       q    Type
REMARK                         _______ _______ _______ _____ _____    ______ ____
ROOT
ATOM      1  O   UNL     1      44.950   5.974  10.691  0.00  0.00    +0.000 OA
ENDROOT
BRANCH   1   5
ATOM      2  C   UNL     1      47.573   6.357  13.919  0.00  0.00    +0.000 A 
ATOM      3  C   UNL     1      47.449   7.352  12.940  0.00  0.00    +0.000 A 
ATOM      4  C   UNL     1      46.543   7.203  11.886  0.00  0.00    +0.000 A 
ATOM      5  C   UNL     1      45.761   6.050  11.790  0.00  0.00    +0.000 A 
ATOM      6  C   UNL     1      45.849   5.076  12.785  0.00  0.00    +0.000 A 
ATOM      7  C   UNL     1      46.757   5.223  13.835  0.00  0.00    +0.000 A 
BRANCH   2   8
ATOM      8  C   UNL     1      48.570   6.491  15.040  0.00  0.00    +0.000 C 
BRANCH   8   9
ATOM      9  N   UNL     1      48.335   7.695  15.823  0.00  0.00    +0.000 NA
ATOM     10  H   UNL     1      47.998   7.430  16.747  0.00  0.00    +0.000 HD
ATOM     11  H   UNL     1      47.585   8.230  15.385  0.00  0.00    +0.000 HD
ENDBRANCH   8   9
ENDBRANCH   2   8
ENDBRANCH   1   5
BRANCH   1  12
ATOM     12  C   UNL     1      44.205   4.758  10.573  0.00  0.00    +0.000 C 
BRANCH  12  13
ATOM     13  C   UNL     1      44.862   3.858   9.554  0.00  0.00    +0.000 A 
ATOM     14  C   UNL     1      45.631   4.411   8.548  0.00  0.00    +0.000 A 
ATOM     15  C   UNL     1      46.235   3.535   7.678  0.00  0.00    +0.000 A 
ATOM     16  N   UNL     1      46.124   2.207   7.791  0.00  0.00    +0.000 NA
ATOM     17  C   UNL     1      45.366   1.765   8.805  0.00  0.00    +0.000 A 
ATOM     18  N   UNL     1      44.721   2.524   9.704  0.00  0.00    +0.000 NA
BRANCH  15  19
ATOM     19  N   UNL     1      47.049   4.015   6.651  0.00  0.00    +0.000 N 
ATOM     20  H   UNL     1      47.361   3.268   6.042  0.00  0.00    +0.000 HD
ATOM     21  H   UNL     1      47.826   4.506   7.083  0.00  0.00    +0.000 HD
ENDBRANCH  15  19
ENDBRANCH  12  13
ENDBRANCH   1  12
TORSDOF 6
ENDMDL
MODEL 6
REMARK VINA RESULT:    -5.534      4.160      6.329
REMARK INTER + INTRA:          -7.596
REMARK INTER:                  -7.303
REMARK INTRA:                  -0.293
REMARK UNBOUND:                -0.444
REMARK  Name = 
REMARK  6 active torsions:
REMARK  status: ('A' for Active; 'I' for Inactive)
REMARK    1  A    between atoms: N_1  and  C_2
REMARK    2  A    between atoms: C_2  and  C_3
REMARK    3  A    between atoms: C_6  and  O_7
REMARK    4  A    between atoms: O_7  and  C_8
REMARK    5  A    between atoms: C_8  and  C_9
REMARK    6  A    between atoms: C_11  and  N_12
REMARK                            x       y       z     vdW  Elec       q    Type
REMARK                         _______ _______ _______ _____ _____    ______ ____
ROOT
ATOM      1  O   UNL     1      47.528   3.156  14.785  0.00  0.00    +0.000 OA
ENDROOT
BRANCH   1   5
ATOM      2  C   UNL     1      45.567   5.519  11.954  0.00  0.00    +0.000 A 
ATOM      3  C   UNL     1      45.372   4.133  12.029  0.00  0.00    +0.000 A 
ATOM      4  C   UNL     1      46.026   3.376  13.004  0.00  0.00    +0.000 A 
ATOM      5  C   UNL     1      46.893   3.992  13.908  0.00  0.00    +0.000 A 
ATOM      6  C   UNL     1      47.057   5.378  13.867  0.00  0.00    +0.000 A 
ATOM      7  C   UNL     1      46.408   6.134  12.890  0.00  0.00    +0.000 A 
BRANCH   2   8
ATOM      8  C   UNL     1      44.895   6.341  10.885  0.00  0.00    +0.000 C 
BRANCH   8   9
ATOM      9  N   UNL     1      43.672   6.960  11.377  0.00  0.00    +0.000 NA
ATOM     10  H   UNL     1      43.384   7.689  10.727  0.00  0.00    +0.000 HD
ATOM     11  H   UNL     1      43.873   7.425  12.262  0.00  0.00    +0.000 HD
ENDBRANCH   8   9
ENDBRANCH   2   8
ENDBRANCH   1   5
BRANCH   1  12
ATOM     12  C   UNL     1      47.529   3.596  16.148  0.00  0.00    +0.000 C 
BRANCH  12  13
ATOM     13  C   UNL     1      48.909   3.430  16.733  0.00  0.00    +0.000 A 
ATOM     14  C   UNL     1      49.437   2.163  16.896  0.00  0.00    +0.000 A 
ATOM     15  C   UNL     1      50.715   2.084  17.396  0.00  0.00    +0.000 A 
ATOM     16  N   UNL     1      51.446   3.164  17.694  0.00  0.00    +0.000 NA
ATOM     17  C   UNL     1      50.853   4.349  17.491  0.00  0.00    +0.000 A 
ATOM     18  N   UNL     1      49.612   4.546  17.022  0.00  0.00    +0.000 NA
BRANCH  15  19
ATOM     19  N   UNL     1      51.326   0.842  17.565  0.00  0.00    +0.000 N 
ATOM     20  H   UNL     1      50.652   0.121  17.791  0.00  0.00    +0.000 HD
ATOM     21  H   UNL     1      52.031   0.946  18.289  0.00  0.00    +0.000 HD
ENDBRANCH  15  19
ENDBRANCH  12  13
ENDBRANCH   1  12
TORSDOF 6
ENDMDL
MODEL 7
REMARK VINA RESULT:    -5.501      3.536      5.060
REMARK INTER + INTRA:          -7.553
REMARK INTER:                  -7.272
REMARK INTRA:                  -0.282
REMARK UNBOUND:                -0.444
REMARK  Name = 
REMARK  6 active torsions:
REMARK  status: ('A' for Active; 'I' for Inactive)
REMARK    1  A    between atoms: N_1  and  C_2
REMARK    2  A    between atoms: C_2  and  C_3
REMARK    3  A    between atoms: C_6  and  O_7
REMARK    4  A    between atoms: O_7  and  C_8
REMARK    5  A    between atoms: C_8  and  C_9
REMARK    6  A    between atoms: C_11  and  N_12
REMARK                            x       y       z     vdW  Elec       q    Type
REMARK                         _______ _______ _______ _____ _____    ______ ____
ROOT
ATOM      1  O   UNL     1      46.796   5.177  14.358  0.00  0.00    +0.000 OA
ENDROOT
BRANCH   1   5
ATOM      2  C   UNL     1      45.006   4.451  10.655  0.00  0.00    +0.000 A 
ATOM      3  C   UNL     1      44.983   3.506  11.690  0.00  0.00    +0.000 A 
ATOM      4  C   UNL     1      45.572   3.790  12.925  0.00  0.00    +0.000 A 
ATOM      5  C   UNL     1      46.201   5.019  13.137  0.00  0.00    +0.000 A 
ATOM      6  C   UNL     1      46.188   5.981  12.125  0.00  0.00    +0.000 A 
ATOM      7  C   UNL     1      45.604   5.694  10.890  0.00  0.00    +0.000 A 
BRANCH   2   8
ATOM      8  C   UNL     1      44.406   4.143   9.308  0.00  0.00    +0.000 C 
BRANCH   8   9
ATOM      9  N   UNL     1      45.283   4.561   8.224  0.00  0.00    +0.000 NA
ATOM     10  H   UNL     1      45.822   5.369   8.527  0.00  0.00    +0.000 HD
ATOM     11  H   UNL     1      44.709   4.874   7.441  0.00  0.00    +0.000 HD
ENDBRANCH   8   9
ENDBRANCH   2   8
ENDBRANCH   1   5
BRANCH   1  12
ATOM     12  C   UNL     1      47.049   3.961  15.070  0.00  0.00    +0.000 C 
BRANCH  12  13
ATOM     13  C   UNL     1      47.824   4.263  16.329  0.00  0.00    +0.000 A 
ATOM     14  C   UNL     1      47.639   3.477  17.451  0.00  0.00    +0.000 A 
ATOM     15  C   UNL     1      48.406   3.778  18.551  0.00  0.00    +0.000 A 
ATOM     16  N   UNL     1      49.314   4.761  18.557  0.00  0.00    +0.000 NA
ATOM     17  C   UNL     1      49.429   5.460  17.418  0.00  0.00    +0.000 A 
ATOM     18  N   UNL     1      48.728   5.264  16.291  0.00  0.00    +0.000 NA
BRANCH  15  19
ATOM     19  N   UNL     1      48.295   3.016  19.714  0.00  0.00    +0.000 N 
ATOM     20  H   UNL     1      49.183   2.605  19.977  0.00  0.00    +0.000 HD
ATOM     21  H   UNL     1      47.582   2.312  19.549  0.00  0.00    +0.000 HD
ENDBRANCH  15  19
ENDBRANCH  12  13
ENDBRANCH   1  12
TORSDOF 6
ENDMDL
MODEL 8
REMARK VINA RESULT:    -5.155      4.682      6.075
REMARK INTER + INTRA:          -7.106
REMARK INTER:                  -6.723
REMARK INTRA:                  -0.383
REMARK UNBOUND:                -0.444
REMARK  Name = 
REMARK  6 active torsions:
REMARK  status: ('A' for Active; 'I' for Inactive)
REMARK    1  A    between atoms: N_1  and  C_2
REMARK    2  A    between atoms: C_2  and  C_3
REMARK    3  A    between atoms: C_6  and  O_7
REMARK    4  A    between atoms: O_7  and  C_8
REMARK    5  A    between atoms: C_8  and  C_9
REMARK    6  A    between atoms: C_11  and  N_12
REMARK                            x       y       z     vdW  Elec       q    Type
REMARK                         _______ _______ _______ _____ _____    ______ ____
ROOT
ATOM      1  O   UNL     1      48.108   5.722  13.690  0.00  0.00    +0.000 OA
ENDROOT
BRANCH   1   5
ATOM      2  C   UNL     1      44.196   5.265  12.298  0.00  0.00    +0.000 A 
ATOM      3  C   UNL     1      44.846   6.507  12.294  0.00  0.00    +0.000 A 
ATOM      4  C   UNL     1      46.164   6.620  12.745  0.00  0.00    +0.000 A 
ATOM      5  C   UNL     1      46.844   5.496  13.218  0.00  0.00    +0.000 A 
ATOM      6  C   UNL     1      46.216   4.249  13.183  0.00  0.00    +0.000 A 
ATOM      7  C   UNL     1      44.898   4.137  12.738  0.00  0.00    +0.000 A 
BRANCH   2   8
ATOM      8  C   UNL     1      42.764   5.137  11.848  0.00  0.00    +0.000 C 
BRANCH   8   9
ATOM      9  N   UNL     1      42.118   6.438  11.745  0.00  0.00    +0.000 NA
ATOM     10  H   UNL     1      41.626   6.634  12.614  0.00  0.00    +0.000 HD
ATOM     11  H   UNL     1      41.408   6.394  11.015  0.00  0.00    +0.000 HD
ENDBRANCH   8   9
ENDBRANCH   2   8
ENDBRANCH   1   5
BRANCH   1  12
ATOM     12  C   UNL     1      48.176   6.524  14.874  0.00  0.00    +0.000 C 
BRANCH  12  13
ATOM     13  C   UNL     1      48.590   5.666  16.044  0.00  0.00    +0.000 A 
ATOM     14  C   UNL     1      47.706   4.736  16.558  0.00  0.00    +0.000 A 
ATOM     15  C   UNL     1      48.159   3.958  17.596  0.00  0.00    +0.000 A 
ATOM     16  N   UNL     1      49.399   4.055  18.089  0.00  0.00    +0.000 NA
ATOM     17  C   UNL     1      50.187   4.977  17.518  0.00  0.00    +0.000 A 
ATOM     18  N   UNL     1      49.849   5.797  16.511  0.00  0.00    +0.000 NA
BRANCH  15  19
ATOM     19  N   UNL     1      47.334   2.980  18.152  0.00  0.00    +0.000 N 
ATOM     20  H   UNL     1      47.696   2.049  17.988  0.00  0.00    +0.000 HD
ATOM     21  H   UNL     1      46.406   3.104  17.758  0.00  0.00    +0.000 HD
ENDBRANCH  15  19
ENDBRANCH  12  13
ENDBRANCH   1  12
TORSDOF 6
ENDMDL
MODEL 9
REMARK VINA RESULT:    -5.148      2.059      3.242
REMARK INTER + INTRA:          -7.098
REMARK INTER:                  -6.904
REMARK INTRA:                  -0.193
REMARK UNBOUND:                -0.444
REMARK  Name = 
REMARK  6 active torsions:
REMARK  status: ('A' for Active; 'I' for Inactive)
REMARK    1  A    between atoms: N_1  and  C_2
REMARK    2  A    between atoms: C_2  and  C_3
REMARK    3  A    between atoms: C_6  and  O_7
REMARK    4  A    between atoms: O_7  and  C_8
REMARK    5  A    between atoms: C_8  and  C_9
REMARK    6  A    between atoms: C_11  and  N_12
REMARK                            x       y       z     vdW  Elec       q    Type
REMARK                         _______ _______ _______ _____ _____    ______ ____
ROOT
ATOM      1  O   UNL     1      44.939   6.203  12.134  0.00  0.00    +0.000 OA
ENDROOT
BRANCH   1   5
ATOM      2  C   UNL     1      44.725   2.912   9.572  0.00  0.00    +0.000 A 
ATOM      3  C   UNL     1      44.152   2.896  10.851  0.00  0.00    +0.000 A 
ATOM      4  C   UNL     1      44.221   4.024  11.674  0.00  0.00    +0.000 A 
ATOM      5  C   UNL     1      44.876   5.176  11.233  0.00  0.00    +0.000 A 
ATOM      6  C   UNL     1      45.410   5.212   9.944  0.00  0.00    +0.000 A 
ATOM      7  C   UNL     1      45.345   4.084   9.124  0.00  0.00    +0.000 A 
BRANCH   2   8
ATOM      8  C   UNL     1      44.687   1.691   8.690  0.00  0.00    +0.000 C 
BRANCH   8   9
ATOM      9  N   UNL     1      46.026   1.199   8.400  0.00  0.00    +0.000 NA
ATOM     10  H   UNL     1      46.141   0.280   8.821  0.00  0.00    +0.000 HD
ATOM     11  H   UNL     1      46.705   1.811   8.853  0.00  0.00    +0.000 HD
ENDBRANCH   8   9
ENDBRANCH   2   8
ENDBRANCH   1   5
BRANCH   1  12
ATOM     12  C   UNL     1      46.207   6.864  12.210  0.00  0.00    +0.000 C 
BRANCH  12  13
ATOM     13  C   UNL     1      46.952   6.391  13.435  0.00  0.00    +0.000 A 
ATOM     14  C   UNL     1      46.631   5.174  14.004  0.00  0.00    +0.000 A 
ATOM     15  C   UNL     1      47.375   4.783  15.092  0.00  0.00    +0.000 A 
ATOM     16  N   UNL     1      48.384   5.512  15.581  0.00  0.00    +0.000 NA
ATOM     17  C   UNL     1      48.627   6.673  14.955  0.00  0.00    +0.000 A 
ATOM     18  N   UNL     1      47.961   7.159  13.897  0.00  0.00    +0.000 NA
BRANCH  15  19
ATOM     19  N   UNL     1      47.128   3.555  15.706  0.00  0.00    +0.000 N 
ATOM     20  H   UNL     1      46.422   3.025  15.211  0.00  0.00    +0.000 HD
ATOM     21  H   UNL     1      46.860   3.745  16.667  0.00  0.00    +0.000 HD
ENDBRANCH  15  19
ENDBRANCH  12  13
ENDBRANCH   1  12
TORSDOF 6
ENDMDL
