MODEL 1
REMARK VINA RESULT:    -7.400      0.000      0.000
REMARK INTER + INTRA:          -9.944
REMARK INTER:                  -9.347
REMARK INTRA:                  -0.596
REMARK UNBOUND:                -0.596
REMARK  Name = 
REMARK  5 active torsions:
REMARK  status: ('A' for Active; 'I' for Inactive)
REMARK    1  A    between atoms: N_1  and  C_2
REMARK    2  A    between atoms: C_2  and  C_3
REMARK    3  A    between atoms: C_3  and  C_4
REMARK    4  A    between atoms: C_8  and  C_9
REMARK    5  A    between atoms: C_9  and  N_10
REMARK                            x       y       z     vdW  Elec       q    Type
REMARK                         _______ _______ _______ _____ _____    ______ ____
ROOT
ATOM      1  C   UNL     1      45.859   3.451   7.925  0.00  0.00    +0.000 A 
ATOM      2  C   UNL     1      45.654   2.088   8.171  0.00  0.00    +0.000 A 
ATOM      3  C   UNL     1      44.809   1.673   9.198  0.00  0.00    +0.000 A 
ATOM      4  C   UNL     1      44.175   2.616  10.008  0.00  0.00    +0.000 A 
ATOM      5  C   UNL     1      44.376   3.987   9.797  0.00  0.00    +0.000 A 
ATOM      6  C   UNL     1      45.196   4.391   8.731  0.00  0.00    +0.000 A 
ENDROOT
BRANCH   1   7
ATOM      7  C   UNL     1      46.763   3.888   6.793  0.00  0.00    +0.000 C 
BRANCH   7   8
ATOM      8  C   UNL     1      47.223   2.725   5.904  0.00  0.00    +0.000 C 
BRANCH   8   9
ATOM      9  N   UNL     1      48.634   2.411   6.132  0.00  0.00    +0.000 NA
ATOM     10  H   UNL     1      48.872   2.616   7.101  0.00  0.00    +0.000 HD
ATOM     11  H   UNL     1      49.218   3.015   5.557  0.00  0.00    +0.000 HD
ENDBRANCH   8   9
ENDBRANCH   7   8
ENDBRANCH   1   7
BRANCH   5  12
ATOM     12  C   UNL     1      43.753   5.009  10.717  0.00  0.00    +0.000 C 
BRANCH  12  13
ATOM     13  N   UNL     1      44.744   5.773  11.466  0.00  0.00    +0.000 N 
ATOM     14  C   UNL     1      44.969   7.119  11.294  0.00  0.00    +0.000 A 
ATOM     15  C   UNL     1      45.987   7.492  12.142  0.00  0.00    +0.000 A 
ATOM     16  C   UNL     1      46.423   6.329  12.835  0.00  0.00    +0.000 A 
ATOM     17  C   UNL     1      47.407   6.086  13.801  0.00  0.00    +0.000 A 
ATOM     18  N   UNL     1      47.622   4.833  14.271  0.00  0.00    +0.000 NA
ATOM     19  C   UNL     1      46.872   3.822  13.786  0.00  0.00    +0.000 A 
ATOM     20  C   UNL     1      45.874   3.957  12.832  0.00  0.00    +0.000 A 
ATOM     21  C   UNL     1      45.653   5.257  12.371  0.00  0.00    +0.000 A 
ENDBRANCH  12  13
ENDBRANCH   5  12
TORSDOF 5
ENDMDL
MODEL 2
REMARK VINA RESULT:    -7.200      1.099      1.876
REMARK INTER + INTRA:          -9.690
REMARK INTER:                  -9.074
REMARK INTRA:                  -0.616
REMARK UNBOUND:                -0.596
REMARK  Name = 
REMARK  5 active torsions:
REMARK  status: ('A' for Active; 'I' for Inactive)
REMARK    1  A    between atoms: N_1  and  C_2
REMARK    2  A    between atoms: C_2  and  C_3
REMARK    3  A    between atoms: C_3  and  C_4
REMARK    4  A    between atoms: C_8  and  C_9
REMARK    5  A    between atoms: C_9  and  N_10
REMARK                            x       y       z     vdW  Elec       q    Type
REMARK                         _______ _______ _______ _____ _____    ______ ____
ROOT
ATOM      1  C   UNL     1      46.048   3.393   7.806  0.00  0.00    +0.000 A 
ATOM      2  C   UNL     1      45.602   2.087   8.046  0.00  0.00    +0.000 A 
ATOM      3  C   UNL     1      44.766   1.812   9.125  0.00  0.00    +0.000 A 
ATOM      4  C   UNL     1      44.382   2.834   9.993  0.00  0.00    +0.000 A 
ATOM      5  C   UNL     1      44.829   4.147   9.789  0.00  0.00    +0.000 A 
ATOM      6  C   UNL     1      45.636   4.418   8.673  0.00  0.00    +0.000 A 
ENDROOT
BRANCH   1   7
ATOM      7  C   UNL     1      46.940   3.681   6.618  0.00  0.00    +0.000 C 
BRANCH   7   8
ATOM      8  C   UNL     1      47.091   2.483   5.672  0.00  0.00    +0.000 C 
BRANCH   8   9
ATOM      9  N   UNL     1      48.439   1.919   5.744  0.00  0.00    +0.000 NA
ATOM     10  H   UNL     1      49.123   2.669   5.660  0.00  0.00    +0.000 HD
ATOM     11  H   UNL     1      48.595   1.297   4.953  0.00  0.00    +0.000 HD
ENDBRANCH   8   9
ENDBRANCH   7   8
ENDBRANCH   1   7
BRANCH   5  12
ATOM     12  C   UNL     1      44.479   5.242  10.768  0.00  0.00    +0.000 C 
BRANCH  12  13
ATOM     13  N   UNL     1      45.330   5.235  11.953  0.00  0.00    +0.000 N 
ATOM     14  C   UNL     1      45.058   4.513  13.091  0.00  0.00    +0.000 A 
ATOM     15  C   UNL     1      46.055   4.768  14.005  0.00  0.00    +0.000 A 
ATOM     16  C   UNL     1      46.952   5.703  13.419  0.00  0.00    +0.000 A 
ATOM     17  C   UNL     1      48.126   6.328  13.856  0.00  0.00    +0.000 A 
ATOM     18  N   UNL     1      48.771   7.222  13.068  0.00  0.00    +0.000 NA
ATOM     19  C   UNL     1      48.255   7.504  11.854  0.00  0.00    +0.000 A 
ATOM     20  C   UNL     1      47.102   6.941  11.328  0.00  0.00    +0.000 A 
ATOM     21  C   UNL     1      46.460   6.008  12.146  0.00  0.00    +0.000 A 
ENDBRANCH  12  13
ENDBRANCH   5  12
TORSDOF 5
ENDMDL
MODEL 3
REMARK VINA RESULT:    -6.555      1.500      2.670
REMARK INTER + INTRA:          -8.876
REMARK INTER:                  -8.366
REMARK INTRA:                  -0.510
REMARK UNBOUND:                -0.596
REMARK  Name = 
REMARK  5 active torsions:
REMARK  status: ('A' for Active; 'I' for Inactive)
REMARK    1  A    between atoms: N_1  and  C_2
REMARK    2  A    between atoms: C_2  and  C_3
REMARK    3  A    between atoms: C_3  and  C_4
REMARK    4  A    between atoms: C_8  and  C_9
REMARK    5  A    between atoms: C_9  and  N_10
REMARK                            x       y       z     vdW  Elec       q    Type
REMARK                         _______ _______ _______ _____ _____    ______ ____
ROOT
ATOM      1  C   UNL     1      45.791   3.641   8.320  0.00  0.00    +0.000 A 
ATOM      2  C   UNL     1      45.300   2.349   8.547  0.00  0.00    +0.000 A 
ATOM      3  C   UNL     1      44.409   2.105   9.591  0.00  0.00    +0.000 A 
ATOM      4  C   UNL     1      44.015   3.144  10.434  0.00  0.00    +0.000 A 
ATOM      5  C   UNL     1      44.506   4.443  10.241  0.00  0.00    +0.000 A 
ATOM      6  C   UNL     1      45.369   4.683   9.161  0.00  0.00    +0.000 A 
ENDROOT
BRANCH   1   7
ATOM      7  C   UNL     1      46.743   3.896   7.171  0.00  0.00    +0.000 C 
BRANCH   7   8
ATOM      8  C   UNL     1      47.199   2.610   6.468  0.00  0.00    +0.000 C 
BRANCH   8   9
ATOM      9  N   UNL     1      48.659   2.535   6.400  0.00  0.00    +0.000 NA
ATOM     10  H   UNL     1      49.059   3.021   7.201  0.00  0.00    +0.000 HD
ATOM     11  H   UNL     1      48.991   3.025   5.571  0.00  0.00    +0.000 HD
ENDBRANCH   8   9
ENDBRANCH   7   8
ENDBRANCH   1   7
BRANCH   5  12
ATOM     12  C   UNL     1      44.143   5.555  11.197  0.00  0.00    +0.000 C 
BRANCH  12  13
ATOM     13  N   UNL     1      45.312   6.224  11.755  0.00  0.00    +0.000 N 
ATOM     14  C   UNL     1      46.346   5.571  12.384  0.00  0.00    +0.000 A 
ATOM     15  C   UNL     1      47.253   6.516  12.804  0.00  0.00    +0.000 A 
ATOM     16  C   UNL     1      46.744   7.796  12.449  0.00  0.00    +0.000 A 
ATOM     17  C   UNL     1      47.209   9.106  12.613  0.00  0.00    +0.000 A 
ATOM     18  N   UNL     1      46.474  10.161  12.186  0.00  0.00    +0.000 NA
ATOM     19  C   UNL     1      45.280   9.924  11.603  0.00  0.00    +0.000 A 
ATOM     20  C   UNL     1      44.732   8.668  11.392  0.00  0.00    +0.000 A 
ATOM     21  C   UNL     1      45.510   7.591  11.823  0.00  0.00    +0.000 A 
ENDBRANCH  12  13
ENDBRANCH   5  12
TORSDOF 5
ENDMDL
MODEL 4
REMARK VINA RESULT:    -6.313      1.616      6.079
REMARK INTER + INTRA:          -8.570
REMARK INTER:                  -7.879
REMARK INTRA:                  -0.691
REMARK UNBOUND:                -0.596
REMARK  Name = 
REMARK  5 active torsions:
REMARK  status: ('A' for Active; 'I' for Inactive)
REMARK    1  A    between atoms: N_1  and  C_2
REMARK    2  A    between atoms: C_2  and  C_3
REMARK    3  A    between atoms: C_3  and  C_4
REMARK    4  A    between atoms: C_8  and  C_9
REMARK    5  A    between atoms: C_9  and  N_10
REMARK                            x       y       z     vdW  Elec       q    Type
REMARK                         _______ _______ _______ _____ _____    ______ ____
ROOT
ATOM      1  C   UNL     1      47.584   5.994  14.094  0.00  0.00    +0.000 A 
ATOM      2  C   UNL     1      48.583   6.624  13.342  0.00  0.00    +0.000 A 
ATOM      3  C   UNL     1      48.287   7.185  12.102  0.00  0.00    +0.000 A 
ATOM      4  C   UNL     1      46.994   7.105  11.586  0.00  0.00    +0.000 A 
ATOM      5  C   UNL     1      45.978   6.464  12.309  0.00  0.00    +0.000 A 
ATOM      6  C   UNL     1      46.280   5.940  13.576  0.00  0.00    +0.000 A 
ENDROOT
BRANCH   1   7
ATOM      7  C   UNL     1      47.914   5.406  15.449  0.00  0.00    +0.000 C 
BRANCH   7   8
ATOM      8  C   UNL     1      47.137   4.118  15.753  0.00  0.00    +0.000 C 
BRANCH   8   9
ATOM      9  N   UNL     1      47.780   2.955  15.140  0.00  0.00    +0.000 NA
ATOM     10  H   UNL     1      47.128   2.173  15.136  0.00  0.00    +0.000 HD
ATOM     11  H   UNL     1      48.576   2.664  15.705  0.00  0.00    +0.000 HD
ENDBRANCH   8   9
ENDBRANCH   7   8
ENDBRANCH   1   7
BRANCH   5  12
ATOM     12  C   UNL     1      44.595   6.307  11.722  0.00  0.00    +0.000 C 
BRANCH  12  13
ATOM     13  N   UNL     1      44.300   4.934  11.329  0.00  0.00    +0.000 N 
ATOM     14  C   UNL     1      43.596   4.045  12.107  0.00  0.00    +0.000 A 
ATOM     15  C   UNL     1      43.536   2.846  11.435  0.00  0.00    +0.000 A 
ATOM     16  C   UNL     1      44.256   2.994  10.217  0.00  0.00    +0.000 A 
ATOM     17  C   UNL     1      44.541   2.138   9.146  0.00  0.00    +0.000 A 
ATOM     18  N   UNL     1      45.296   2.560   8.103  0.00  0.00    +0.000 NA
ATOM     19  C   UNL     1      45.776   3.821   8.120  0.00  0.00    +0.000 A 
ATOM     20  C   UNL     1      45.551   4.746   9.129  0.00  0.00    +0.000 A 
ATOM     21  C   UNL     1      44.755   4.301  10.188  0.00  0.00    +0.000 A 
ENDBRANCH  12  13
ENDBRANCH   5  12
TORSDOF 5
ENDMDL
MODEL 5
REMARK VINA RESULT:    -6.213      1.880      6.338
REMARK INTER + INTRA:          -8.443
REMARK INTER:                  -8.371
REMARK INTRA:                  -0.072
REMARK UNBOUND:                -0.596
REMARK  Name = 
REMARK  5 active torsions:
REMARK  status: ('A' for Active; 'I' for Inactive)
REMARK    1  A    between atoms: N_1  and  C_2
REMARK    2  A    between atoms: C_2  and  C_3
REMARK    3  A    between atoms: C_3  and  C_4
REMARK    4  A    between atoms: C_8  and  C_9
REMARK    5  A    between atoms: C_9  and  N_10
REMARK                            x       y       z     vdW  Elec       q    Type
REMARK                         _______ _______ _______ _____ _____    ______ ____
ROOT
ATOM      1  C   UNL     1      45.565   6.905  12.368  0.00  0.00    +0.000 A 
ATOM      2  C   UNL     1      45.803   5.878  13.290  0.00  0.00    +0.000 A 
ATOM      3  C   UNL     1      45.807   4.546  12.879  0.00  0.00    +0.000 A 
ATOM      4  C   UNL     1      45.550   4.222  11.547  0.00  0.00    +0.000 A 
ATOM      5  C   UNL     1      45.290   5.229  10.607  0.00  0.00    +0.000 A 
ATOM      6  C   UNL     1      45.332   6.569  11.025  0.00  0.00    +0.000 A 
ENDROOT
BRANCH   1   7
ATOM      7  C   UNL     1      45.584   8.348  12.824  0.00  0.00    +0.000 C 
BRANCH   7   8
ATOM      8  C   UNL     1      45.054   9.322  11.763  0.00  0.00    +0.000 C 
BRANCH   8   9
ATOM      9  N   UNL     1      44.026  10.202  12.321  0.00  0.00    +0.000 NA
ATOM     10  H   UNL     1      43.107   9.798  12.147  0.00  0.00    +0.000 HD
ATOM     11  H   UNL     1      44.042  11.099  11.838  0.00  0.00    +0.000 HD
ENDBRANCH   8   9
ENDBRANCH   7   8
ENDBRANCH   1   7
BRANCH   5  12
ATOM     12  C   UNL     1      44.937   4.880   9.181  0.00  0.00    +0.000 C 
BRANCH  12  13
ATOM     13  N   UNL     1      45.161   3.473   8.870  0.00  0.00    +0.000 N 
ATOM     14  C   UNL     1      44.433   2.440   9.413  0.00  0.00    +0.000 A 
ATOM     15  C   UNL     1      44.937   1.260   8.919  0.00  0.00    +0.000 A 
ATOM     16  C   UNL     1      46.032   1.576   8.068  0.00  0.00    +0.000 A 
ATOM     17  C   UNL     1      46.921   0.812   7.302  0.00  0.00    +0.000 A 
ATOM     18  N   UNL     1      47.911   1.404   6.593  0.00  0.00    +0.000 NA
ATOM     19  C   UNL     1      48.029   2.748   6.644  0.00  0.00    +0.000 A 
ATOM     20  C   UNL     1      47.203   3.593   7.368  0.00  0.00    +0.000 A 
ATOM     21  C   UNL     1      46.175   2.968   8.079  0.00  0.00    +0.000 A 
ENDBRANCH  12  13
ENDBRANCH   5  12
TORSDOF 5
ENDMDL
MODEL 6
REMARK VINA RESULT:    -5.949      2.153      6.034
REMARK INTER + INTRA:          -8.110
REMARK INTER:                  -7.469
REMARK INTRA:                  -0.641
REMARK UNBOUND:                -0.596
REMARK  Name = 
REMARK  5 active torsions:
REMARK  status: ('A' for Active; 'I' for Inactive)
REMARK    1  A    between atoms: N_1  and  C_2
REMARK    2  A    between atoms: C_2  and  C_3
REMARK    3  A    between atoms: C_3  and  C_4
REMARK    4  A    between atoms: C_8  and  C_9
REMARK    5  A    between atoms: C_9  and  N_10
REMARK                            x       y       z     vdW  Elec       q    Type
REMARK                         _______ _______ _______ _____ _____    ______ ____
ROOT
ATOM      1  C   UNL     1      47.947   7.729  12.353  0.00  0.00    +0.000 A 
ATOM      2  C   UNL     1      48.398   6.918  13.402  0.00  0.00    +0.000 A 
ATOM      3  C   UNL     1      47.606   5.876  13.881  0.00  0.00    +0.000 A 
ATOM      4  C   UNL     1      46.344   5.647  13.335  0.00  0.00    +0.000 A 
ATOM      5  C   UNL     1      45.858   6.455  12.298  0.00  0.00    +0.000 A 
ATOM      6  C   UNL     1      46.684   7.474  11.795  0.00  0.00    +0.000 A 
ENDROOT
BRANCH   1   7
ATOM      7  C   UNL     1      48.825   8.845  11.828  0.00  0.00    +0.000 C 
BRANCH   7   8
ATOM      8  C   UNL     1      48.151  10.222  11.885  0.00  0.00    +0.000 C 
BRANCH   8   9
ATOM      9  N   UNL     1      47.871  10.617  13.267  0.00  0.00    +0.000 NA
ATOM     10  H   UNL     1      46.914  10.959  13.331  0.00  0.00    +0.000 HD
ATOM     11  H   UNL     1      48.474  11.394  13.531  0.00  0.00    +0.000 HD
ENDBRANCH   8   9
ENDBRANCH   7   8
ENDBRANCH   1   7
BRANCH   5  12
ATOM     12  C   UNL     1      44.463   6.260  11.755  0.00  0.00    +0.000 C 
BRANCH  12  13
ATOM     13  N   UNL     1      44.213   4.891  11.318  0.00  0.00    +0.000 N 
ATOM     14  C   UNL     1      43.507   3.966  12.052  0.00  0.00    +0.000 A 
ATOM     15  C   UNL     1      43.496   2.784  11.349  0.00  0.00    +0.000 A 
ATOM     16  C   UNL     1      44.248   2.980  10.158  0.00  0.00    +0.000 A 
ATOM     17  C   UNL     1      44.584   2.159   9.075  0.00  0.00    +0.000 A 
ATOM     18  N   UNL     1      45.360   2.624   8.066  0.00  0.00    +0.000 NA
ATOM     19  C   UNL     1      45.808   3.896   8.128  0.00  0.00    +0.000 A 
ATOM     20  C   UNL     1      45.532   4.788   9.153  0.00  0.00    +0.000 A 
ATOM     21  C   UNL     1      44.716   4.298  10.176  0.00  0.00    +0.000 A 
ENDBRANCH  12  13
ENDBRANCH   5  12
TORSDOF 5
ENDMDL
MODEL 7
REMARK VINA RESULT:    -5.676      2.135      4.039
REMARK INTER + INTRA:          -7.766
REMARK INTER:                  -7.159
REMARK INTRA:                  -0.606
REMARK UNBOUND:                -0.596
REMARK  Name = 
REMARK  5 active torsions:
REMARK  status: ('A' for Active; 'I' for Inactive)
REMARK    1  A    between atoms: N_1  and  C_2
REMARK    2  A    between atoms: C_2  and  C_3
REMARK    3  A    between atoms: C_3  and  C_4
REMARK    4  A    between atoms: C_8  and  C_9
REMARK    5  A    between atoms: C_9  and  N_10
REMARK                            x       y       z     vdW  Elec       q    Type
REMARK                         _______ _______ _______ _____ _____    ______ ____
ROOT
ATOM      1  C   UNL     1      44.517   3.780  10.767  0.00  0.00    +0.000 A 
ATOM      2  C   UNL     1      43.175   4.098  11.010  0.00  0.00    +0.000 A 
ATOM      3  C   UNL     1      42.825   4.911  12.086  0.00  0.00    +0.000 A 
ATOM      4  C   UNL     1      43.809   5.399  12.946  0.00  0.00    +0.000 A 
ATOM      5  C   UNL     1      45.159   5.081  12.737  0.00  0.00    +0.000 A 
ATOM      6  C   UNL     1      45.502   4.296  11.625  0.00  0.00    +0.000 A 
ENDROOT
BRANCH   1   7
ATOM      7  C   UNL     1      44.886   2.912   9.583  0.00  0.00    +0.000 C 
BRANCH   7   8
ATOM      8  C   UNL     1      44.788   3.648   8.241  0.00  0.00    +0.000 C 
BRANCH   8   9
ATOM      9  N   UNL     1      45.690   4.800   8.203  0.00  0.00    +0.000 NA
ATOM     10  H   UNL     1      46.654   4.474   8.243  0.00  0.00    +0.000 HD
ATOM     11  H   UNL     1      45.546   5.377   9.030  0.00  0.00    +0.000 HD
ENDBRANCH   8   9
ENDBRANCH   7   8
ENDBRANCH   1   7
BRANCH   5  12
ATOM     12  C   UNL     1      46.220   5.543  13.708  0.00  0.00    +0.000 C 
BRANCH  12  13
ATOM     13  N   UNL     1      47.129   6.524  13.127  0.00  0.00    +0.000 N 
ATOM     14  C   UNL     1      48.478   6.317  12.958  0.00  0.00    +0.000 A 
ATOM     15  C   UNL     1      49.018   7.459  12.412  0.00  0.00    +0.000 A 
ATOM     16  C   UNL     1      47.971   8.410  12.270  0.00  0.00    +0.000 A 
ATOM     17  C   UNL     1      47.909   9.723  11.788  0.00  0.00    +0.000 A 
ATOM     18  N   UNL     1      46.743  10.413  11.801  0.00  0.00    +0.000 NA
ATOM     19  C   UNL     1      45.641   9.811  12.295  0.00  0.00    +0.000 A 
ATOM     20  C   UNL     1      45.595   8.518  12.793  0.00  0.00    +0.000 A 
ATOM     21  C   UNL     1      46.802   7.814  12.756  0.00  0.00    +0.000 A 
ENDBRANCH  12  13
ENDBRANCH   5  12
TORSDOF 5
ENDMDL
MODEL 8
REMARK VINA RESULT:    -5.494      2.454      3.710
REMARK INTER + INTRA:          -7.536
REMARK INTER:                  -6.934
REMARK INTRA:                  -0.602
REMARK UNBOUND:                -0.596
REMARK  Name = 
REMARK  5 active torsions:
REMARK  status: ('A' for Active; 'I' for Inactive)
REMARK    1  A    between atoms: N_1  and  C_2
REMARK    2  A    between atoms: C_2  and  C_3
REMARK    3  A    between atoms: C_3  and  C_4
REMARK    4  A    between atoms: C_8  and  C_9
REMARK    5  A    between atoms: C_9  and  N_10
REMARK                            x       y       z     vdW  Elec       q    Type
REMARK                         _______ _______ _______ _____ _____    ______ ____
ROOT
ATOM      1  C   UNL     1      44.503   4.200  10.316  0.00  0.00    +0.000 A 
ATOM      2  C   UNL     1      43.460   3.616  11.045  0.00  0.00    +0.000 A 
ATOM      3  C   UNL     1      43.387   3.775  12.427  0.00  0.00    +0.000 A 
ATOM      4  C   UNL     1      44.369   4.501  13.102  0.00  0.00    +0.000 A 
ATOM      5  C   UNL     1      45.435   5.080  12.400  0.00  0.00    +0.000 A 
ATOM      6  C   UNL     1      45.472   4.949  11.003  0.00  0.00    +0.000 A 
ENDROOT
BRANCH   1   7
ATOM      7  C   UNL     1      44.558   4.036   8.812  0.00  0.00    +0.000 C 
BRANCH   7   8
ATOM      8  C   UNL     1      45.923   4.405   8.215  0.00  0.00    +0.000 C 
BRANCH   8   9
ATOM      9  N   UNL     1      46.141   3.726   6.937  0.00  0.00    +0.000 NA
ATOM     10  H   UNL     1      45.830   2.759   7.012  0.00  0.00    +0.000 HD
ATOM     11  H   UNL     1      47.138   3.693   6.730  0.00  0.00    +0.000 HD
ENDBRANCH   8   9
ENDBRANCH   7   8
ENDBRANCH   1   7
BRANCH   5  12
ATOM     12  C   UNL     1      46.541   5.802  13.133  0.00  0.00    +0.000 C 
BRANCH  12  13
ATOM     13  N   UNL     1      46.594   7.225  12.817  0.00  0.00    +0.000 N 
ATOM     14  C   UNL     1      45.508   8.067  12.877  0.00  0.00    +0.000 A 
ATOM     15  C   UNL     1      45.921   9.320  12.487  0.00  0.00    +0.000 A 
ATOM     16  C   UNL     1      47.299   9.238  12.146  0.00  0.00    +0.000 A 
ATOM     17  C   UNL     1      48.244  10.164  11.688  0.00  0.00    +0.000 A 
ATOM     18  N   UNL     1      49.514   9.780  11.412  0.00  0.00    +0.000 NA
ATOM     19  C   UNL     1      49.850   8.485  11.582  0.00  0.00    +0.000 A 
ATOM     20  C   UNL     1      48.992   7.492  12.031  0.00  0.00    +0.000 A 
ATOM     21  C   UNL     1      47.691   7.907  12.328  0.00  0.00    +0.000 A 
ENDBRANCH  12  13
ENDBRANCH   5  12
TORSDOF 5
ENDMDL
MODEL 9
REMARK VINA RESULT:    -5.348      2.275      6.687
REMARK INTER + INTRA:          -7.351
REMARK INTER:                  -6.757
REMARK INTRA:                  -0.594
REMARK UNBOUND:                -0.596
REMARK  Name = 
REMARK  5 active torsions:
REMARK  status: ('A' for Active; 'I' for Inactive)
REMARK    1  A    between atoms: N_1  and  C_2
REMARK    2  A    between atoms: C_2  and  C_3
REMARK    3  A    between atoms: C_3  and  C_4
REMARK    4  A    between atoms: C_8  and  C_9
REMARK    5  A    between atoms: C_9  and  N_10
REMARK                            x       y       z     vdW  Elec       q    Type
REMARK                         _______ _______ _______ _____ _____    ______ ____
ROOT
ATOM      1  C   UNL     1      48.540   7.333  14.044  0.00  0.00    +0.000 A 
ATOM      2  C   UNL     1      49.553   7.416  13.081  0.00  0.00    +0.000 A 
ATOM      3  C   UNL     1      49.240   7.404  11.723  0.00  0.00    +0.000 A 
ATOM      4  C   UNL     1      47.914   7.286  11.310  0.00  0.00    +0.000 A 
ATOM      5  C   UNL     1      46.881   7.181  12.252  0.00  0.00    +0.000 A 
ATOM      6  C   UNL     1      47.206   7.238  13.617  0.00  0.00    +0.000 A 
ENDROOT
BRANCH   1   7
ATOM      7  C   UNL     1      48.892   7.367  15.516  0.00  0.00    +0.000 C 
BRANCH   7   8
ATOM      8  C   UNL     1      48.930   8.787  16.094  0.00  0.00    +0.000 C 
BRANCH   8   9
ATOM      9  N   UNL     1      47.591   9.240  16.474  0.00  0.00    +0.000 NA
ATOM     10  H   UNL     1      47.391   8.938  17.426  0.00  0.00    +0.000 HD
ATOM     11  H   UNL     1      46.895   8.794  15.879  0.00  0.00    +0.000 HD
ENDBRANCH   8   9
ENDBRANCH   7   8
ENDBRANCH   1   7
BRANCH   5  12
ATOM     12  C   UNL     1      45.451   6.977  11.811  0.00  0.00    +0.000 C 
BRANCH  12  13
ATOM     13  N   UNL     1      45.094   5.568  11.689  0.00  0.00    +0.000 N 
ATOM     14  C   UNL     1      44.707   4.778  12.745  0.00  0.00    +0.000 A 
ATOM     15  C   UNL     1      44.477   3.509  12.266  0.00  0.00    +0.000 A 
ATOM     16  C   UNL     1      44.762   3.513  10.873  0.00  0.00    +0.000 A 
ATOM     17  C   UNL     1      44.718   2.537   9.869  0.00  0.00    +0.000 A 
ATOM     18  N   UNL     1      45.083   2.833   8.598  0.00  0.00    +0.000 NA
ATOM     19  C   UNL     1      45.498   4.086   8.319  0.00  0.00    +0.000 A 
ATOM     20  C   UNL     1      45.577   5.122   9.237  0.00  0.00    +0.000 A 
ATOM     21  C   UNL     1      45.179   4.806  10.539  0.00  0.00    +0.000 A 
ENDBRANCH  12  13
ENDBRANCH   5  12
TORSDOF 5
ENDMDL
