MODEL 1
REMARK VINA RESULT:    -7.965      0.000      0.000
REMARK INTER + INTRA:         -11.909
REMARK INTER:                 -10.759
REMARK INTRA:                  -1.150
REMARK UNBOUND:                -1.150
REMARK  Name = 
REMARK  10 active torsions:
REMARK  status: ('A' for Active; 'I' for Inactive)
REMARK    1  A    between atoms: C_1  and  C_2
REMARK    2  A    between atoms: N_4  and  C_5
REMARK    3  A    between atoms: C_9  and  C_10
REMARK    4  A    between atoms: C_10  and  C_11
REMARK    5  A    between atoms: C_10  and  C_12
REMARK    6  A    between atoms: C_10  and  C_13
REMARK    7  A    between atoms: C_13  and  N_14
REMARK    8  A    between atoms: N_14  and  C_15
REMARK    9  A    between atoms: C_18  and  C_19
REMARK   10  A    between atoms: C_26  and  C_27
REMARK                            x       y       z     vdW  Elec       q    Type
REMARK                         _______ _______ _______ _____ _____    ______ ____
ROOT
ATOM      1  C   UNL     1      43.917   4.558  12.047  0.00  0.00    +0.000 C 
ATOM      2  C   UNL     1      43.704   3.085  12.448  0.00  0.00    +0.000 C 
ATOM      3  C   UNL     1      42.825   5.447  12.685  0.00  0.00    +0.000 C 
ENDROOT
BRANCH   1   8
ATOM      4  C   UNL     1      47.136   6.707  12.542  0.00  0.00    +0.000 A 
ATOM      5  C   UNL     1      47.667   6.086  13.676  0.00  0.00    +0.000 A 
ATOM      6  C   UNL     1      47.069   4.959  14.236  0.00  0.00    +0.000 A 
ATOM      7  C   UNL     1      45.890   4.447  13.694  0.00  0.00    +0.000 A 
ATOM      8  C   UNL     1      45.295   5.045  12.574  0.00  0.00    +0.000 A 
ATOM      9  C   UNL     1      45.974   6.139  11.998  0.00  0.00    +0.000 A 
BRANCH   4  13
ATOM     10  C   UNL     1      48.490   9.567  14.542  0.00  0.00    +0.000 C 
ATOM     11  C   UNL     1      48.381   9.980  13.076  0.00  0.00    +0.000 C 
ATOM     12  C   UNL     1      47.300   9.200  12.298  0.00  0.00    +0.000 C 
ATOM     13  N   UNL     1      47.734   7.828  11.999  0.00  0.00    +0.000 N 
ATOM     14  C   UNL     1      49.071   7.736  11.388  0.00  0.00    +0.000 C 
ATOM     15  C   UNL     1      50.099   8.555  12.200  0.00  0.00    +0.000 C 
ATOM     16  C   UNL     1      51.436   8.613  11.469  0.00  0.00    +0.000 C 
ATOM     17  O   UNL     1      49.661   9.910  12.416  0.00  0.00    +0.000 OA
ENDBRANCH   4  13
ENDBRANCH   1   8
BRANCH   1  18
ATOM     18  C   UNL     1      43.816   4.662  10.492  0.00  0.00    +0.000 C 
BRANCH  18  19
ATOM     19  N   UNL     1      43.718   3.373   9.786  0.00  0.00    +0.000 N 
ATOM     20  H   UNL     1      42.827   3.254   9.308  0.00  0.00    +0.000 HD
BRANCH  19  21
ATOM     21  C   UNL     1      44.784   3.088   8.911  0.00  0.00    +0.000 A 
ATOM     22  C   UNL     1      45.289   1.787   8.829  0.00  0.00    +0.000 A 
ATOM     23  C   UNL     1      46.364   1.495   7.987  0.00  0.00    +0.000 A 
ATOM     24  C   UNL     1      46.932   2.539   7.263  0.00  0.00    +0.000 A 
ATOM     25  N   UNL     1      46.517   3.827   7.347  0.00  0.00    +0.000 NA
ATOM     26  C   UNL     1      45.479   4.062   8.181  0.00  0.00    +0.000 A 
BRANCH  24  27
ATOM     27  C   UNL     1      48.063   2.272   6.326  0.00  0.00    +0.000 C 
ATOM     28  N   UNL     1      49.212   2.973   6.580  0.00  0.00    +0.000 N 
ATOM     29  O   UNL     1      47.977   1.489   5.388  0.00  0.00    +0.000 OA
ATOM     30  H   UNL     1      49.241   3.611   7.366  0.00  0.00    +0.000 HD
ATOM     31  H   UNL     1      50.015   2.853   5.982  0.00  0.00    +0.000 HD
ENDBRANCH  24  27
ENDBRANCH  19  21
ENDBRANCH  18  19
ENDBRANCH   1  18
TORSDOF 6
ENDMDL
MODEL 2
REMARK VINA RESULT:    -7.850      1.257      2.081
REMARK INTER + INTRA:         -11.754
REMARK INTER:                 -10.892
REMARK INTRA:                  -0.862
REMARK UNBOUND:                -1.150
REMARK  Name = 
REMARK  10 active torsions:
REMARK  status: ('A' for Active; 'I' for Inactive)
REMARK    1  A    between atoms: C_1  and  C_2
REMARK    2  A    between atoms: N_4  and  C_5
REMARK    3  A    between atoms: C_9  and  C_10
REMARK    4  A    between atoms: C_10  and  C_11
REMARK    5  A    between atoms: C_10  and  C_12
REMARK    6  A    between atoms: C_10  and  C_13
REMARK    7  A    between atoms: C_13  and  N_14
REMARK    8  A    between atoms: N_14  and  C_15
REMARK    9  A    between atoms: C_18  and  C_19
REMARK   10  A    between atoms: C_26  and  C_27
REMARK                            x       y       z     vdW  Elec       q    Type
REMARK                         _______ _______ _______ _____ _____    ______ ____
ROOT
ATOM      1  C   UNL     1      44.272   4.904  12.128  0.00  0.00    +0.000 C 
ATOM      2  C   UNL     1      45.116   3.686  12.556  0.00  0.00    +0.000 C 
ATOM      3  C   UNL     1      43.047   5.054  13.058  0.00  0.00    +0.000 C 
ENDROOT
BRANCH   1   8
ATOM      4  C   UNL     1      47.334   7.284  12.553  0.00  0.00    +0.000 A 
ATOM      5  C   UNL     1      46.735   8.506  12.236  0.00  0.00    +0.000 A 
ATOM      6  C   UNL     1      45.371   8.599  11.968  0.00  0.00    +0.000 A 
ATOM      7  C   UNL     1      44.574   7.453  11.969  0.00  0.00    +0.000 A 
ATOM      8  C   UNL     1      45.126   6.195  12.252  0.00  0.00    +0.000 A 
ATOM      9  C   UNL     1      46.495   6.159  12.587  0.00  0.00    +0.000 A 
BRANCH   4  13
ATOM     10  C   UNL     1      49.826   9.931  11.659  0.00  0.00    +0.000 C 
ATOM     11  C   UNL     1      50.562   8.640  12.014  0.00  0.00    +0.000 C 
ATOM     12  C   UNL     1      49.720   7.369  11.776  0.00  0.00    +0.000 C 
ATOM     13  N   UNL     1      48.689   7.202  12.810  0.00  0.00    +0.000 N 
ATOM     14  C   UNL     1      49.193   7.318  14.190  0.00  0.00    +0.000 C 
ATOM     15  C   UNL     1      50.045   8.596  14.355  0.00  0.00    +0.000 C 
ATOM     16  C   UNL     1      50.717   8.619  15.723  0.00  0.00    +0.000 C 
ATOM     17  O   UNL     1      51.080   8.687  13.359  0.00  0.00    +0.000 OA
ENDBRANCH   4  13
ENDBRANCH   1   8
BRANCH   1  18
ATOM     18  C   UNL     1      43.778   4.667  10.666  0.00  0.00    +0.000 C 
BRANCH  18  19
ATOM     19  N   UNL     1      43.850   3.271  10.201  0.00  0.00    +0.000 N 
ATOM     20  H   UNL     1      42.937   2.890   9.962  0.00  0.00    +0.000 HD
BRANCH  19  21
ATOM     21  C   UNL     1      44.768   3.035   9.158  0.00  0.00    +0.000 A 
ATOM     22  C   UNL     1      45.348   1.771   9.015  0.00  0.00    +0.000 A 
ATOM     23  C   UNL     1      46.280   1.530   8.003  0.00  0.00    +0.000 A 
ATOM     24  C   UNL     1      46.633   2.588   7.171  0.00  0.00    +0.000 A 
ATOM     25  N   UNL     1      46.143   3.845   7.301  0.00  0.00    +0.000 NA
ATOM     26  C   UNL     1      45.250   4.032   8.299  0.00  0.00    +0.000 A 
BRANCH  24  27
ATOM     27  C   UNL     1      47.602   2.372   6.056  0.00  0.00    +0.000 C 
ATOM     28  N   UNL     1      47.515   3.267   5.022  0.00  0.00    +0.000 N 
ATOM     29  O   UNL     1      48.417   1.457   6.052  0.00  0.00    +0.000 OA
ATOM     30  H   UNL     1      46.827   4.008   5.064  0.00  0.00    +0.000 HD
ATOM     31  H   UNL     1      48.130   3.177   4.228  0.00  0.00    +0.000 HD
ENDBRANCH  24  27
ENDBRANCH  19  21
ENDBRANCH  18  19
ENDBRANCH   1  18
TORSDOF 6
ENDMDL
MODEL 3
REMARK VINA RESULT:    -7.160      1.776      2.698
REMARK INTER + INTRA:         -10.821
REMARK INTER:                  -9.883
REMARK INTRA:                  -0.938
REMARK UNBOUND:                -1.150
REMARK  Name = 
REMARK  10 active torsions:
REMARK  status: ('A' for Active; 'I' for Inactive)
REMARK    1  A    between atoms: C_1  and  C_2
REMARK    2  A    between atoms: N_4  and  C_5
REMARK    3  A    between atoms: C_9  and  C_10
REMARK    4  A    between atoms: C_10  and  C_11
REMARK    5  A    between atoms: C_10  and  C_12
REMARK    6  A    between atoms: C_10  and  C_13
REMARK    7  A    between atoms: C_13  and  N_14
REMARK    8  A    between atoms: N_14  and  C_15
REMARK    9  A    between atoms: C_18  and  C_19
REMARK   10  A    between atoms: C_26  and  C_27
REMARK                            x       y       z     vdW  Elec       q    Type
REMARK                         _______ _______ _______ _____ _____    ______ ____
ROOT
ATOM      1  C   UNL     1      44.995   6.242  11.763  0.00  0.00    +0.000 C 
ATOM      2  C   UNL     1      46.167   5.265  11.980  0.00  0.00    +0.000 C 
ATOM      3  C   UNL     1      43.885   5.980  12.806  0.00  0.00    +0.000 C 
ENDROOT
BRANCH   1   8
ATOM      4  C   UNL     1      47.361   9.305  12.251  0.00  0.00    +0.000 A 
ATOM      5  C   UNL     1      46.450  10.346  12.056  0.00  0.00    +0.000 A 
ATOM      6  C   UNL     1      45.094  10.098  11.851  0.00  0.00    +0.000 A 
ATOM      7  C   UNL     1      44.620   8.787  11.794  0.00  0.00    +0.000 A 
ATOM      8  C   UNL     1      45.493   7.700  11.954  0.00  0.00    +0.000 A 
ATOM      9  C   UNL     1      46.843   8.001  12.230  0.00  0.00    +0.000 A 
BRANCH   4  13
ATOM     10  C   UNL     1      49.575   7.381  14.578  0.00  0.00    +0.000 C 
ATOM     11  C   UNL     1      50.275   8.674  14.163  0.00  0.00    +0.000 C 
ATOM     12  C   UNL     1      49.298   9.801  13.769  0.00  0.00    +0.000 C 
ATOM     13  N   UNL     1      48.704   9.563  12.446  0.00  0.00    +0.000 N 
ATOM     14  C   UNL     1      49.683   9.246  11.392  0.00  0.00    +0.000 C 
ATOM     15  C   UNL     1      50.644   8.129  11.858  0.00  0.00    +0.000 C 
ATOM     16  C   UNL     1      51.767   7.932  10.846  0.00  0.00    +0.000 C 
ATOM     17  O   UNL     1      51.249   8.433  13.129  0.00  0.00    +0.000 OA
ENDBRANCH   4  13
ENDBRANCH   1   8
BRANCH   1  18
ATOM     18  C   UNL     1      44.416   6.004  10.332  0.00  0.00    +0.000 C 
BRANCH  18  19
ATOM     19  N   UNL     1      43.829   4.671  10.111  0.00  0.00    +0.000 N 
ATOM     20  H   UNL     1      42.914   4.715   9.667  0.00  0.00    +0.000 HD
BRANCH  19  21
ATOM     21  C   UNL     1      44.659   3.758   9.431  0.00  0.00    +0.000 A 
ATOM     22  C   UNL     1      45.524   4.214   8.432  0.00  0.00    +0.000 A 
ATOM     23  C   UNL     1      46.332   3.316   7.730  0.00  0.00    +0.000 A 
ATOM     24  C   UNL     1      46.224   1.963   8.033  0.00  0.00    +0.000 A 
ATOM     25  N   UNL     1      45.363   1.462   8.953  0.00  0.00    +0.000 NA
ATOM     26  C   UNL     1      44.597   2.368   9.600  0.00  0.00    +0.000 A 
BRANCH  24  27
ATOM     27  C   UNL     1      47.089   0.968   7.331  0.00  0.00    +0.000 C 
ATOM     28  N   UNL     1      46.791  -0.346   7.580  0.00  0.00    +0.000 N 
ATOM     29  O   UNL     1      48.008   1.293   6.590  0.00  0.00    +0.000 OA
ATOM     30  H   UNL     1      46.022  -0.572   8.200  0.00  0.00    +0.000 HD
ATOM     31  H   UNL     1      47.339  -1.074   7.150  0.00  0.00    +0.000 HD
ENDBRANCH  24  27
ENDBRANCH  19  21
ENDBRANCH  18  19
ENDBRANCH   1  18
TORSDOF 6
ENDMDL
MODEL 4
REMARK VINA RESULT:    -7.149      3.449      7.943
REMARK INTER + INTRA:         -10.807
REMARK INTER:                  -9.762
REMARK INTRA:                  -1.045
REMARK UNBOUND:                -1.150
REMARK  Name = 
REMARK  10 active torsions:
REMARK  status: ('A' for Active; 'I' for Inactive)
REMARK    1  A    between atoms: C_1  and  C_2
REMARK    2  A    between atoms: N_4  and  C_5
REMARK    3  A    between atoms: C_9  and  C_10
REMARK    4  A    between atoms: C_10  and  C_11
REMARK    5  A    between atoms: C_10  and  C_12
REMARK    6  A    between atoms: C_10  and  C_13
REMARK    7  A    between atoms: C_13  and  N_14
REMARK    8  A    between atoms: N_14  and  C_15
REMARK    9  A    between atoms: C_18  and  C_19
REMARK   10  A    between atoms: C_26  and  C_27
REMARK                            x       y       z     vdW  Elec       q    Type
REMARK                         _______ _______ _______ _____ _____    ______ ____
ROOT
ATOM      1  C   UNL     1      49.323   8.454  12.320  0.00  0.00    +0.000 C 
ATOM      2  C   UNL     1      50.043   7.931  11.061  0.00  0.00    +0.000 C 
ATOM      3  C   UNL     1      49.501   9.985  12.437  0.00  0.00    +0.000 C 
ENDROOT
BRANCH   1   8
ATOM      4  C   UNL     1      45.949   6.532  11.936  0.00  0.00    +0.000 A 
ATOM      5  C   UNL     1      45.052   7.558  12.248  0.00  0.00    +0.000 A 
ATOM      6  C   UNL     1      45.490   8.856  12.499  0.00  0.00    +0.000 A 
ATOM      7  C   UNL     1      46.853   9.153  12.487  0.00  0.00    +0.000 A 
ATOM      8  C   UNL     1      47.802   8.159  12.209  0.00  0.00    +0.000 A 
ATOM      9  C   UNL     1      47.309   6.877  11.890  0.00  0.00    +0.000 A 
BRANCH   4  13
ATOM     10  C   UNL     1      42.346   5.528  11.790  0.00  0.00    +0.000 C 
ATOM     11  C   UNL     1      43.218   4.278  11.895  0.00  0.00    +0.000 C 
ATOM     12  C   UNL     1      44.575   4.534  12.582  0.00  0.00    +0.000 C 
ATOM     13  N   UNL     1      45.504   5.247  11.695  0.00  0.00    +0.000 N 
ATOM     14  C   UNL     1      45.634   4.654  10.352  0.00  0.00    +0.000 C 
ATOM     15  C   UNL     1      44.241   4.403   9.730  0.00  0.00    +0.000 C 
ATOM     16  C   UNL     1      44.370   3.622   8.427  0.00  0.00    +0.000 C 
ATOM     17  O   UNL     1      43.386   3.648  10.609  0.00  0.00    +0.000 OA
ENDBRANCH   4  13
ENDBRANCH   1   8
BRANCH   1  18
ATOM     18  C   UNL     1      49.961   7.769  13.570  0.00  0.00    +0.000 C 
BRANCH  18  19
ATOM     19  N   UNL     1      49.314   8.087  14.854  0.00  0.00    +0.000 N 
ATOM     20  H   UNL     1      48.558   8.763  14.756  0.00  0.00    +0.000 HD
BRANCH  19  21
ATOM     21  C   UNL     1      48.879   6.972  15.597  0.00  0.00    +0.000 A 
ATOM     22  C   UNL     1      49.234   6.852  16.944  0.00  0.00    +0.000 A 
ATOM     23  C   UNL     1      48.834   5.738  17.686  0.00  0.00    +0.000 A 
ATOM     24  C   UNL     1      48.105   4.746  17.038  0.00  0.00    +0.000 A 
ATOM     25  N   UNL     1      47.781   4.787  15.722  0.00  0.00    +0.000 NA
ATOM     26  C   UNL     1      48.197   5.881  15.044  0.00  0.00    +0.000 A 
BRANCH  24  27
ATOM     27  C   UNL     1      47.628   3.551  17.796  0.00  0.00    +0.000 C 
ATOM     28  N   UNL     1      48.341   3.252  18.927  0.00  0.00    +0.000 N 
ATOM     29  O   UNL     1      46.673   2.874  17.435  0.00  0.00    +0.000 OA
ATOM     30  H   UNL     1      49.125   3.838  19.189  0.00  0.00    +0.000 HD
ATOM     31  H   UNL     1      48.085   2.452  19.484  0.00  0.00    +0.000 HD
ENDBRANCH  24  27
ENDBRANCH  19  21
ENDBRANCH  18  19
ENDBRANCH   1  18
TORSDOF 6
ENDMDL
MODEL 5
REMARK VINA RESULT:    -6.822      1.895      2.357
REMARK INTER + INTRA:         -10.365
REMARK INTER:                  -9.798
REMARK INTRA:                  -0.567
REMARK UNBOUND:                -1.150
REMARK  Name = 
REMARK  10 active torsions:
REMARK  status: ('A' for Active; 'I' for Inactive)
REMARK    1  A    between atoms: C_1  and  C_2
REMARK    2  A    between atoms: N_4  and  C_5
REMARK    3  A    between atoms: C_9  and  C_10
REMARK    4  A    between atoms: C_10  and  C_11
REMARK    5  A    between atoms: C_10  and  C_12
REMARK    6  A    between atoms: C_10  and  C_13
REMARK    7  A    between atoms: C_13  and  N_14
REMARK    8  A    between atoms: N_14  and  C_15
REMARK    9  A    between atoms: C_18  and  C_19
REMARK   10  A    between atoms: C_26  and  C_27
REMARK                            x       y       z     vdW  Elec       q    Type
REMARK                         _______ _______ _______ _____ _____    ______ ____
ROOT
ATOM      1  C   UNL     1      45.221   5.207  12.441  0.00  0.00    +0.000 C 
ATOM      2  C   UNL     1      43.854   5.540  13.073  0.00  0.00    +0.000 C 
ATOM      3  C   UNL     1      45.560   6.234  11.337  0.00  0.00    +0.000 C 
ENDROOT
BRANCH   1   8
ATOM      4  C   UNL     1      48.110   6.582  14.674  0.00  0.00    +0.000 A 
ATOM      5  C   UNL     1      48.171   5.571  15.637  0.00  0.00    +0.000 A 
ATOM      6  C   UNL     1      47.373   4.432  15.548  0.00  0.00    +0.000 A 
ATOM      7  C   UNL     1      46.455   4.297  14.507  0.00  0.00    +0.000 A 
ATOM      8  C   UNL     1      46.328   5.293  13.527  0.00  0.00    +0.000 A 
ATOM      9  C   UNL     1      47.206   6.393  13.618  0.00  0.00    +0.000 A 
BRANCH   4  13
ATOM     10  C   UNL     1      49.678   7.793  17.851  0.00  0.00    +0.000 C 
ATOM     11  C   UNL     1      49.750   8.895  16.796  0.00  0.00    +0.000 C 
ATOM     12  C   UNL     1      48.640   8.797  15.730  0.00  0.00    +0.000 C 
ATOM     13  N   UNL     1      48.901   7.710  14.776  0.00  0.00    +0.000 N 
ATOM     14  C   UNL     1      50.259   7.720  14.204  0.00  0.00    +0.000 C 
ATOM     15  C   UNL     1      51.320   7.843  15.321  0.00  0.00    +0.000 C 
ATOM     16  C   UNL     1      52.708   8.041  14.722  0.00  0.00    +0.000 C 
ATOM     17  O   UNL     1      51.058   8.958  16.194  0.00  0.00    +0.000 OA
ENDBRANCH   4  13
ENDBRANCH   1   8
BRANCH   1  18
ATOM     18  C   UNL     1      45.133   3.784  11.805  0.00  0.00    +0.000 C 
BRANCH  18  19
ATOM     19  N   UNL     1      44.338   3.702  10.568  0.00  0.00    +0.000 N 
ATOM     20  H   UNL     1      43.749   4.520  10.426  0.00  0.00    +0.000 HD
BRANCH  19  21
ATOM     21  C   UNL     1      45.076   3.422   9.401  0.00  0.00    +0.000 A 
ATOM     22  C   UNL     1      45.536   2.124   9.163  0.00  0.00    +0.000 A 
ATOM     23  C   UNL     1      46.292   1.837   8.024  0.00  0.00    +0.000 A 
ATOM     24  C   UNL     1      46.599   2.884   7.161  0.00  0.00    +0.000 A 
ATOM     25  N   UNL     1      46.226   4.170   7.372  0.00  0.00    +0.000 NA
ATOM     26  C   UNL     1      45.502   4.399   8.491  0.00  0.00    +0.000 A 
BRANCH  24  27
ATOM     27  C   UNL     1      47.380   2.622   5.915  0.00  0.00    +0.000 C 
ATOM     28  N   UNL     1      48.675   2.220   6.108  0.00  0.00    +0.000 N 
ATOM     29  O   UNL     1      46.906   2.762   4.793  0.00  0.00    +0.000 OA
ATOM     30  H   UNL     1      49.027   2.118   7.052  0.00  0.00    +0.000 HD
ATOM     31  H   UNL     1      49.266   2.036   5.313  0.00  0.00    +0.000 HD
ENDBRANCH  24  27
ENDBRANCH  19  21
ENDBRANCH  18  19
ENDBRANCH   1  18
TORSDOF 6
ENDMDL
MODEL 6
REMARK VINA RESULT:    -6.746      3.580      6.236
REMARK INTER + INTRA:         -10.262
REMARK INTER:                  -8.861
REMARK INTRA:                  -1.401
REMARK UNBOUND:                -1.150
REMARK  Name = 
REMARK  10 active torsions:
REMARK  status: ('A' for Active; 'I' for Inactive)
REMARK    1  A    between atoms: C_1  and  C_2
REMARK    2  A    between atoms: N_4  and  C_5
REMARK    3  A    between atoms: C_9  and  C_10
REMARK    4  A    between atoms: C_10  and  C_11
REMARK    5  A    between atoms: C_10  and  C_12
REMARK    6  A    between atoms: C_10  and  C_13
REMARK    7  A    between atoms: C_13  and  N_14
REMARK    8  A    between atoms: N_14  and  C_15
REMARK    9  A    between atoms: C_18  and  C_19
REMARK   10  A    between atoms: C_26  and  C_27
REMARK                            x       y       z     vdW  Elec       q    Type
REMARK                         _______ _______ _______ _____ _____    ______ ____
ROOT
ATOM      1  C   UNL     1      48.551   8.050  13.245  0.00  0.00    +0.000 C 
ATOM      2  C   UNL     1      49.529   9.111  12.702  0.00  0.00    +0.000 C 
ATOM      3  C   UNL     1      49.072   6.631  12.922  0.00  0.00    +0.000 C 
ENDROOT
BRANCH   1   8
ATOM      4  C   UNL     1      48.645   7.161  17.043  0.00  0.00    +0.000 A 
ATOM      5  C   UNL     1      48.520   8.440  17.592  0.00  0.00    +0.000 A 
ATOM      6  C   UNL     1      48.330   9.562  16.788  0.00  0.00    +0.000 A 
ATOM      7  C   UNL     1      48.302   9.435  15.399  0.00  0.00    +0.000 A 
ATOM      8  C   UNL     1      48.451   8.180  14.790  0.00  0.00    +0.000 A 
ATOM      9  C   UNL     1      48.570   7.065  15.645  0.00  0.00    +0.000 A 
BRANCH   4  13
ATOM     10  C   UNL     1      47.480   3.699  16.221  0.00  0.00    +0.000 C 
ATOM     11  C   UNL     1      47.874   3.766  17.695  0.00  0.00    +0.000 C 
ATOM     12  C   UNL     1      47.750   5.181  18.299  0.00  0.00    +0.000 C 
ATOM     13  N   UNL     1      48.841   6.057  17.850  0.00  0.00    +0.000 N 
ATOM     14  C   UNL     1      50.186   5.475  18.001  0.00  0.00    +0.000 C 
ATOM     15  C   UNL     1      50.235   4.053  17.397  0.00  0.00    +0.000 C 
ATOM     16  C   UNL     1      51.566   3.381  17.717  0.00  0.00    +0.000 C 
ATOM     17  O   UNL     1      49.187   3.211  17.912  0.00  0.00    +0.000 OA
ENDBRANCH   4  13
ENDBRANCH   1   8
BRANCH   1  18
ATOM     18  C   UNL     1      47.168   8.257  12.551  0.00  0.00    +0.000 C 
BRANCH  18  19
ATOM     19  N   UNL     1      46.013   7.713  13.286  0.00  0.00    +0.000 N 
ATOM     20  H   UNL     1      45.275   8.402  13.422  0.00  0.00    +0.000 HD
BRANCH  19  21
ATOM     21  C   UNL     1      45.479   6.520  12.761  0.00  0.00    +0.000 A 
ATOM     22  C   UNL     1      45.829   5.292  13.330  0.00  0.00    +0.000 A 
ATOM     23  C   UNL     1      45.329   4.099  12.803  0.00  0.00    +0.000 A 
ATOM     24  C   UNL     1      44.506   4.170  11.684  0.00  0.00    +0.000 A 
ATOM     25  N   UNL     1      44.180   5.329  11.061  0.00  0.00    +0.000 NA
ATOM     26  C   UNL     1      44.693   6.457  11.603  0.00  0.00    +0.000 A 
BRANCH  24  27
ATOM     27  C   UNL     1      43.922   2.924  11.103  0.00  0.00    +0.000 C 
ATOM     28  N   UNL     1      44.622   2.382  10.057  0.00  0.00    +0.000 N 
ATOM     29  O   UNL     1      42.887   2.419  11.520  0.00  0.00    +0.000 OA
ATOM     30  H   UNL     1      45.473   2.832   9.743  0.00  0.00    +0.000 HD
ATOM     31  H   UNL     1      44.282   1.547   9.606  0.00  0.00    +0.000 HD
ENDBRANCH  24  27
ENDBRANCH  19  21
ENDBRANCH  18  19
ENDBRANCH   1  18
TORSDOF 6
ENDMDL
MODEL 7
REMARK VINA RESULT:    -6.143      3.300      6.189
REMARK INTER + INTRA:          -9.448
REMARK INTER:                  -8.393
REMARK INTRA:                  -1.055
REMARK UNBOUND:                -1.150
REMARK  Name = 
REMARK  10 active torsions:
REMARK  status: ('A' for Active; 'I' for Inactive)
REMARK    1  A    between atoms: C_1  and  C_2
REMARK    2  A    between atoms: N_4  and  C_5
REMARK    3  A    between atoms: C_9  and  C_10
REMARK    4  A    between atoms: C_10  and  C_11
REMARK    5  A    between atoms: C_10  and  C_12
REMARK    6  A    between atoms: C_10  and  C_13
REMARK    7  A    between atoms: C_13  and  N_14
REMARK    8  A    between atoms: N_14  and  C_15
REMARK    9  A    between atoms: C_18  and  C_19
REMARK   10  A    between atoms: C_26  and  C_27
REMARK                            x       y       z     vdW  Elec       q    Type
REMARK                         _______ _______ _______ _____ _____    ______ ____
ROOT
ATOM      1  C   UNL     1      49.229   8.560  12.473  0.00  0.00    +0.000 C 
ATOM      2  C   UNL     1      48.946   9.948  11.864  0.00  0.00    +0.000 C 
ATOM      3  C   UNL     1      50.703   8.164  12.233  0.00  0.00    +0.000 C 
ENDROOT
BRANCH   1   8
ATOM      4  C   UNL     1      49.086   7.505  16.227  0.00  0.00    +0.000 A 
ATOM      5  C   UNL     1      48.814   8.744  16.814  0.00  0.00    +0.000 A 
ATOM      6  C   UNL     1      48.598   9.883  16.042  0.00  0.00    +0.000 A 
ATOM      7  C   UNL     1      48.694   9.819  14.652  0.00  0.00    +0.000 A 
ATOM      8  C   UNL     1      48.994   8.610  14.008  0.00  0.00    +0.000 A 
ATOM      9  C   UNL     1      49.133   7.469  14.825  0.00  0.00    +0.000 A 
BRANCH   4  13
ATOM     10  C   UNL     1      47.558   6.924  19.595  0.00  0.00    +0.000 C 
ATOM     11  C   UNL     1      48.699   5.932  19.377  0.00  0.00    +0.000 C 
ATOM     12  C   UNL     1      49.774   6.441  18.394  0.00  0.00    +0.000 C 
ATOM     13  N   UNL     1      49.305   6.383  17.002  0.00  0.00    +0.000 N 
ATOM     14  C   UNL     1      48.727   5.085  16.613  0.00  0.00    +0.000 C 
ATOM     15  C   UNL     1      47.677   4.623  17.648  0.00  0.00    +0.000 C 
ATOM     16  C   UNL     1      47.217   3.201  17.346  0.00  0.00    +0.000 C 
ATOM     17  O   UNL     1      48.199   4.637  18.990  0.00  0.00    +0.000 OA
ENDBRANCH   4  13
ENDBRANCH   1   8
BRANCH   1  18
ATOM     18  C   UNL     1      48.299   7.519  11.773  0.00  0.00    +0.000 C 
BRANCH  18  19
ATOM     19  N   UNL     1      46.914   7.483  12.274  0.00  0.00    +0.000 N 
ATOM     20  H   UNL     1      46.392   8.326  12.040  0.00  0.00    +0.000 HD
BRANCH  19  21
ATOM     21  C   UNL     1      46.179   6.336  11.916  0.00  0.00    +0.000 A 
ATOM     22  C   UNL     1      45.810   5.412  12.898  0.00  0.00    +0.000 A 
ATOM     23  C   UNL     1      45.105   4.256  12.555  0.00  0.00    +0.000 A 
ATOM     24  C   UNL     1      44.814   4.041  11.211  0.00  0.00    +0.000 A 
ATOM     25  N   UNL     1      45.196   4.876  10.214  0.00  0.00    +0.000 NA
ATOM     26  C   UNL     1      45.882   5.977  10.595  0.00  0.00    +0.000 A 
BRANCH  24  27
ATOM     27  C   UNL     1      44.036   2.835  10.798  0.00  0.00    +0.000 C 
ATOM     28  N   UNL     1      43.344   2.212  11.802  0.00  0.00    +0.000 N 
ATOM     29  O   UNL     1      44.018   2.420   9.645  0.00  0.00    +0.000 OA
ATOM     30  H   UNL     1      43.386   2.587  12.742  0.00  0.00    +0.000 HD
ATOM     31  H   UNL     1      42.805   1.384  11.600  0.00  0.00    +0.000 HD
ENDBRANCH  24  27
ENDBRANCH  19  21
ENDBRANCH  18  19
ENDBRANCH   1  18
TORSDOF 6
ENDMDL
MODEL 8
REMARK VINA RESULT:    -6.087      2.566      7.778
REMARK INTER + INTRA:          -9.373
REMARK INTER:                  -8.368
REMARK INTRA:                  -1.004
REMARK UNBOUND:                -1.150
REMARK  Name = 
REMARK  10 active torsions:
REMARK  status: ('A' for Active; 'I' for Inactive)
REMARK    1  A    between atoms: C_1  and  C_2
REMARK    2  A    between atoms: N_4  and  C_5
REMARK    3  A    between atoms: C_9  and  C_10
REMARK    4  A    between atoms: C_10  and  C_11
REMARK    5  A    between atoms: C_10  and  C_12
REMARK    6  A    between atoms: C_10  and  C_13
REMARK    7  A    between atoms: C_13  and  N_14
REMARK    8  A    between atoms: N_14  and  C_15
REMARK    9  A    between atoms: C_18  and  C_19
REMARK   10  A    between atoms: C_26  and  C_27
REMARK                            x       y       z     vdW  Elec       q    Type
REMARK                         _______ _______ _______ _____ _____    ______ ____
ROOT
ATOM      1  C   UNL     1      43.882   4.360  12.129  0.00  0.00    +0.000 C 
ATOM      2  C   UNL     1      42.631   5.252  12.005  0.00  0.00    +0.000 C 
ATOM      3  C   UNL     1      43.472   2.870  12.160  0.00  0.00    +0.000 C 
ENDROOT
BRANCH   1   8
ATOM      4  C   UNL     1      45.590   3.841   8.660  0.00  0.00    +0.000 A 
ATOM      5  C   UNL     1      46.256   5.063   8.534  0.00  0.00    +0.000 A 
ATOM      6  C   UNL     1      46.237   6.010   9.556  0.00  0.00    +0.000 A 
ATOM      7  C   UNL     1      45.508   5.772  10.722  0.00  0.00    +0.000 A 
ATOM      8  C   UNL     1      44.797   4.575  10.892  0.00  0.00    +0.000 A 
ATOM      9  C   UNL     1      44.904   3.617   9.863  0.00  0.00    +0.000 A 
BRANCH   4  13
ATOM     10  C   UNL     1      48.607   3.018   6.601  0.00  0.00    +0.000 C 
ATOM     11  C   UNL     1      47.360   2.451   5.924  0.00  0.00    +0.000 C 
ATOM     12  C   UNL     1      46.069   3.220   6.275  0.00  0.00    +0.000 C 
ATOM     13  N   UNL     1      45.611   2.912   7.637  0.00  0.00    +0.000 N 
ATOM     14  C   UNL     1      45.531   1.472   7.938  0.00  0.00    +0.000 C 
ATOM     15  C   UNL     1      46.844   0.759   7.543  0.00  0.00    +0.000 C 
ATOM     16  C   UNL     1      46.695  -0.752   7.680  0.00  0.00    +0.000 C 
ATOM     17  O   UNL     1      47.222   1.039   6.182  0.00  0.00    +0.000 OA
ENDBRANCH   4  13
ENDBRANCH   1   8
BRANCH   1  18
ATOM     18  C   UNL     1      44.609   4.718  13.464  0.00  0.00    +0.000 C 
BRANCH  18  19
ATOM     19  N   UNL     1      45.814   3.919  13.751  0.00  0.00    +0.000 N 
ATOM     20  H   UNL     1      46.203   3.484  12.917  0.00  0.00    +0.000 HD
BRANCH  19  21
ATOM     21  C   UNL     1      46.822   4.595  14.466  0.00  0.00    +0.000 A 
ATOM     22  C   UNL     1      47.116   4.217  15.779  0.00  0.00    +0.000 A 
ATOM     23  C   UNL     1      48.093   4.896  16.511  0.00  0.00    +0.000 A 
ATOM     24  C   UNL     1      48.735   5.972  15.906  0.00  0.00    +0.000 A 
ATOM     25  N   UNL     1      48.450   6.414  14.656  0.00  0.00    +0.000 NA
ATOM     26  C   UNL     1      47.492   5.730  13.991  0.00  0.00    +0.000 A 
BRANCH  24  27
ATOM     27  C   UNL     1      49.809   6.710  16.636  0.00  0.00    +0.000 C 
ATOM     28  N   UNL     1      49.584   6.900  17.973  0.00  0.00    +0.000 N 
ATOM     29  O   UNL     1      50.820   7.127  16.084  0.00  0.00    +0.000 OA
ATOM     30  H   UNL     1      48.734   6.539  18.390  0.00  0.00    +0.000 HD
ATOM     31  H   UNL     1      50.260   7.400  18.529  0.00  0.00    +0.000 HD
ENDBRANCH  24  27
ENDBRANCH  19  21
ENDBRANCH  18  19
ENDBRANCH   1  18
TORSDOF 6
ENDMDL
MODEL 9
REMARK VINA RESULT:    -5.884      3.669      8.262
REMARK INTER + INTRA:          -9.098
REMARK INTER:                  -7.631
REMARK INTRA:                  -1.467
REMARK UNBOUND:                -1.150
REMARK  Name = 
REMARK  10 active torsions:
REMARK  status: ('A' for Active; 'I' for Inactive)
REMARK    1  A    between atoms: C_1  and  C_2
REMARK    2  A    between atoms: N_4  and  C_5
REMARK    3  A    between atoms: C_9  and  C_10
REMARK    4  A    between atoms: C_10  and  C_11
REMARK    5  A    between atoms: C_10  and  C_12
REMARK    6  A    between atoms: C_10  and  C_13
REMARK    7  A    between atoms: C_13  and  N_14
REMARK    8  A    between atoms: N_14  and  C_15
REMARK    9  A    between atoms: C_18  and  C_19
REMARK   10  A    between atoms: C_26  and  C_27
REMARK                            x       y       z     vdW  Elec       q    Type
REMARK                         _______ _______ _______ _____ _____    ______ ____
ROOT
ATOM      1  C   UNL     1      49.582   9.157  12.533  0.00  0.00    +0.000 C 
ATOM      2  C   UNL     1      50.231   8.003  11.743  0.00  0.00    +0.000 C 
ATOM      3  C   UNL     1      50.147  10.513  12.052  0.00  0.00    +0.000 C 
ENDROOT
BRANCH   1   8
ATOM      4  C   UNL     1      45.875   7.970  12.269  0.00  0.00    +0.000 A 
ATOM      5  C   UNL     1      45.243   9.199  12.066  0.00  0.00    +0.000 A 
ATOM      6  C   UNL     1      45.972  10.379  11.933  0.00  0.00    +0.000 A 
ATOM      7  C   UNL     1      47.363  10.363  12.046  0.00  0.00    +0.000 A 
ATOM      8  C   UNL     1      48.050   9.162  12.279  0.00  0.00    +0.000 A 
ATOM      9  C   UNL     1      47.277   7.984  12.334  0.00  0.00    +0.000 A 
BRANCH   4  13
ATOM     10  C   UNL     1      45.567   5.333   9.629  0.00  0.00    +0.000 C 
ATOM     11  C   UNL     1      44.506   5.102  10.703  0.00  0.00    +0.000 C 
ATOM     12  C   UNL     1      44.103   6.390  11.453  0.00  0.00    +0.000 C 
ATOM     13  N   UNL     1      45.141   6.807  12.406  0.00  0.00    +0.000 N 
ATOM     14  C   UNL     1      45.608   5.733  13.301  0.00  0.00    +0.000 C 
ATOM     15  C   UNL     1      45.973   4.469  12.491  0.00  0.00    +0.000 C 
ATOM     16  C   UNL     1      46.275   3.303  13.426  0.00  0.00    +0.000 C 
ATOM     17  O   UNL     1      44.903   4.061  11.617  0.00  0.00    +0.000 OA
ENDBRANCH   4  13
ENDBRANCH   1   8
BRANCH   1  18
ATOM     18  C   UNL     1      49.924   8.969  14.045  0.00  0.00    +0.000 C 
BRANCH  18  19
ATOM     19  N   UNL     1      50.777   7.808  14.352  0.00  0.00    +0.000 N 
ATOM     20  H   UNL     1      51.750   8.067  14.506  0.00  0.00    +0.000 HD
BRANCH  19  21
ATOM     21  C   UNL     1      50.317   6.987  15.400  0.00  0.00    +0.000 A 
ATOM     22  C   UNL     1      48.947   6.753  15.550  0.00  0.00    +0.000 A 
ATOM     23  C   UNL     1      48.473   5.965  16.601  0.00  0.00    +0.000 A 
ATOM     24  C   UNL     1      49.398   5.453  17.505  0.00  0.00    +0.000 A 
ATOM     25  N   UNL     1      50.731   5.694  17.438  0.00  0.00    +0.000 NA
ATOM     26  C   UNL     1      51.141   6.468  16.407  0.00  0.00    +0.000 A 
BRANCH  24  27
ATOM     27  C   UNL     1      48.944   4.579  18.627  0.00  0.00    +0.000 C 
ATOM     28  N   UNL     1      48.017   3.628  18.292  0.00  0.00    +0.000 N 
ATOM     29  O   UNL     1      49.359   4.702  19.774  0.00  0.00    +0.000 OA
ATOM     30  H   UNL     1      47.700   3.561  17.332  0.00  0.00    +0.000 HD
ATOM     31  H   UNL     1      47.655   3.009  19.000  0.00  0.00    +0.000 HD
ENDBRANCH  24  27
ENDBRANCH  19  21
ENDBRANCH  18  19
ENDBRANCH   1  18
TORSDOF 6
ENDMDL
