MODEL 1
REMARK VINA RESULT:    -7.471      0.000      0.000
REMARK INTER + INTRA:          -9.823
REMARK INTER:                  -9.436
REMARK INTRA:                  -0.387
REMARK UNBOUND:                -0.387
REMARK  Name = 
REMARK  5 active torsions:
REMARK  status: ('A' for Active; 'I' for Inactive)
REMARK    1  A    between atoms: N_1  and  C_2
REMARK    2  A    between atoms: C_2  and  C_3
REMARK    3  A    between atoms: C_6  and  C_7
REMARK    4  A    between atoms: C_7  and  N_8
REMARK    5  A    between atoms: C_13  and  C_14
REMARK                            x       y       z     vdW  Elec       q    Type
REMARK                         _______ _______ _______ _____ _____    ______ ____
ROOT
ATOM      1  N   UNL     1      44.179   4.338  10.421  0.00  0.00    +0.000 N 
ATOM      2  C   UNL     1      43.682   3.170  10.946  0.00  0.00    +0.000 A 
ATOM      3  C   UNL     1      44.185   2.127  10.212  0.00  0.00    +0.000 A 
ATOM      4  C   UNL     1      45.069   2.670   9.242  0.00  0.00    +0.000 A 
ATOM      5  C   UNL     1      45.839   2.094   8.208  0.00  0.00    +0.000 A 
ATOM      6  C   UNL     1      46.641   2.916   7.402  0.00  0.00    +0.000 A 
ATOM      7  C   UNL     1      46.716   4.287   7.673  0.00  0.00    +0.000 A 
ATOM      8  C   UNL     1      45.963   4.879   8.695  0.00  0.00    +0.000 A 
ATOM      9  C   UNL     1      45.108   4.053   9.441  0.00  0.00    +0.000 A 
ENDROOT
BRANCH   6  10
ATOM     10  C   UNL     1      47.410   2.391   6.235  0.00  0.00    +0.000 C 
ATOM     11  N   UNL     1      47.298   3.024   5.031  0.00  0.00    +0.000 N 
ATOM     12  O   UNL     1      48.148   1.414   6.341  0.00  0.00    +0.000 OA
ATOM     13  H   UNL     1      46.709   3.814   4.838  0.00  0.00    +0.000 HD
ATOM     14  H   UNL     1      47.842   2.643   4.264  0.00  0.00    +0.000 HD
ENDBRANCH   6  10
BRANCH   1  15
ATOM     15  C   UNL     1      43.752   5.659  10.854  0.00  0.00    +0.000 C 
BRANCH  15  19
ATOM     16  C   UNL     1      47.077   7.168  13.258  0.00  0.00    +0.000 C 
ATOM     17  C   UNL     1      45.909   8.122  12.970  0.00  0.00    +0.000 C 
ATOM     18  C   UNL     1      44.981   7.598  11.875  0.00  0.00    +0.000 C 
ATOM     19  C   UNL     1      44.437   6.181  12.147  0.00  0.00    +0.000 C 
ATOM     20  C   UNL     1      45.530   5.215  12.646  0.00  0.00    +0.000 C 
ATOM     21  C   UNL     1      46.496   5.809  13.672  0.00  0.00    +0.000 C 
BRANCH  16  22
ATOM     22  C   UNL     1      48.074   7.039  12.088  0.00  0.00    +0.000 C 
BRANCH  22  23
ATOM     23  N   UNL     1      49.405   6.647  12.549  0.00  0.00    +0.000 NA
ATOM     24  H   UNL     1      49.688   5.784  12.085  0.00  0.00    +0.000 HD
ATOM     25  H   UNL     1      49.371   6.433  13.546  0.00  0.00    +0.000 HD
ENDBRANCH  22  23
ENDBRANCH  16  22
ENDBRANCH  15  19
ENDBRANCH   1  15
TORSDOF 5
ENDMDL
MODEL 2
REMARK VINA RESULT:    -6.103      4.912      8.589
REMARK INTER + INTRA:          -8.095
REMARK INTER:                  -7.730
REMARK INTRA:                  -0.365
REMARK UNBOUND:                -0.387
REMARK  Name = 
REMARK  5 active torsions:
REMARK  status: ('A' for Active; 'I' for Inactive)
REMARK    1  A    between atoms: N_1  and  C_2
REMARK    2  A    between atoms: C_2  and  C_3
REMARK    3  A    between atoms: C_6  and  C_7
REMARK    4  A    between atoms: C_7  and  N_8
REMARK    5  A    between atoms: C_13  and  C_14
REMARK                            x       y       z     vdW  Elec       q    Type
REMARK                         _______ _______ _______ _____ _____    ______ ____
ROOT
ATOM      1  N   UNL     1      47.476   5.090  14.840  0.00  0.00    +0.000 N 
ATOM      2  C   UNL     1      48.069   6.289  14.524  0.00  0.00    +0.000 A 
ATOM      3  C   UNL     1      48.752   6.728  15.628  0.00  0.00    +0.000 A 
ATOM      4  C   UNL     1      48.624   5.735  16.636  0.00  0.00    +0.000 A 
ATOM      5  C   UNL     1      49.079   5.650  17.970  0.00  0.00    +0.000 A 
ATOM      6  C   UNL     1      48.792   4.506  18.728  0.00  0.00    +0.000 A 
ATOM      7  C   UNL     1      48.112   3.437  18.133  0.00  0.00    +0.000 A 
ATOM      8  C   UNL     1      47.653   3.499  16.811  0.00  0.00    +0.000 A 
ATOM      9  C   UNL     1      47.883   4.682  16.093  0.00  0.00    +0.000 A 
ENDROOT
BRANCH   6  10
ATOM     10  C   UNL     1      49.161   4.383  20.169  0.00  0.00    +0.000 C 
ATOM     11  N   UNL     1      50.458   4.586  20.540  0.00  0.00    +0.000 N 
ATOM     12  O   UNL     1      48.320   4.118  21.026  0.00  0.00    +0.000 OA
ATOM     13  H   UNL     1      51.220   4.787  19.916  0.00  0.00    +0.000 HD
ATOM     14  H   UNL     1      50.669   4.502  21.528  0.00  0.00    +0.000 HD
ENDBRANCH   6  10
BRANCH   1  15
ATOM     15  C   UNL     1      46.552   4.394  13.957  0.00  0.00    +0.000 C 
BRANCH  15  19
ATOM     16  C   UNL     1      43.486   5.418  11.014  0.00  0.00    +0.000 C 
ATOM     17  C   UNL     1      43.037   5.164  12.461  0.00  0.00    +0.000 C 
ATOM     18  C   UNL     1      44.128   4.512  13.308  0.00  0.00    +0.000 C 
ATOM     19  C   UNL     1      45.460   5.288  13.308  0.00  0.00    +0.000 C 
ATOM     20  C   UNL     1      45.869   5.760  11.899  0.00  0.00    +0.000 C 
ATOM     21  C   UNL     1      44.728   6.319  11.049  0.00  0.00    +0.000 C 
BRANCH  16  22
ATOM     22  C   UNL     1      43.731   4.126  10.206  0.00  0.00    +0.000 C 
BRANCH  22  23
ATOM     23  N   UNL     1      44.081   4.414   8.816  0.00  0.00    +0.000 NA
ATOM     24  H   UNL     1      43.904   5.398   8.615  0.00  0.00    +0.000 HD
ATOM     25  H   UNL     1      43.470   3.885   8.194  0.00  0.00    +0.000 HD
ENDBRANCH  22  23
ENDBRANCH  16  22
ENDBRANCH  15  19
ENDBRANCH   1  15
TORSDOF 5
ENDMDL
MODEL 3
REMARK VINA RESULT:    -6.004      3.086      5.160
REMARK INTER + INTRA:          -7.971
REMARK INTER:                  -7.588
REMARK INTRA:                  -0.383
REMARK UNBOUND:                -0.387
REMARK  Name = 
REMARK  5 active torsions:
REMARK  status: ('A' for Active; 'I' for Inactive)
REMARK    1  A    between atoms: N_1  and  C_2
REMARK    2  A    between atoms: C_2  and  C_3
REMARK    3  A    between atoms: C_6  and  C_7
REMARK    4  A    between atoms: C_7  and  N_8
REMARK    5  A    between atoms: C_13  and  C_14
REMARK                            x       y       z     vdW  Elec       q    Type
REMARK                         _______ _______ _______ _____ _____    ______ ____
ROOT
ATOM      1  N   UNL     1      47.305   6.903  13.209  0.00  0.00    +0.000 N 
ATOM      2  C   UNL     1      47.746   6.258  14.339  0.00  0.00    +0.000 A 
ATOM      3  C   UNL     1      47.184   5.008  14.361  0.00  0.00    +0.000 A 
ATOM      4  C   UNL     1      46.421   4.859  13.172  0.00  0.00    +0.000 A 
ATOM      5  C   UNL     1      45.610   3.818  12.670  0.00  0.00    +0.000 A 
ATOM      6  C   UNL     1      44.979   3.969  11.427  0.00  0.00    +0.000 A 
ATOM      7  C   UNL     1      45.210   5.125  10.672  0.00  0.00    +0.000 A 
ATOM      8  C   UNL     1      46.012   6.170  11.149  0.00  0.00    +0.000 A 
ATOM      9  C   UNL     1      46.573   6.032  12.428  0.00  0.00    +0.000 A 
ENDROOT
BRANCH   6  10
ATOM     10  C   UNL     1      44.036   2.951  10.875  0.00  0.00    +0.000 C 
ATOM     11  N   UNL     1      44.428   2.197   9.808  0.00  0.00    +0.000 N 
ATOM     12  O   UNL     1      42.926   2.771  11.370  0.00  0.00    +0.000 OA
ATOM     13  H   UNL     1      45.303   2.282   9.322  0.00  0.00    +0.000 HD
ATOM     14  H   UNL     1      43.764   1.511   9.466  0.00  0.00    +0.000 HD
ENDBRANCH   6  10
BRANCH   1  15
ATOM     15  C   UNL     1      47.582   8.302  12.922  0.00  0.00    +0.000 C 
BRANCH  15  19
ATOM     16  C   UNL     1      51.576   9.018  11.297  0.00  0.00    +0.000 C 
ATOM     17  C   UNL     1      50.899   7.679  10.973  0.00  0.00    +0.000 C 
ATOM     18  C   UNL     1      49.671   7.417  11.843  0.00  0.00    +0.000 C 
ATOM     19  C   UNL     1      48.626   8.550  11.799  0.00  0.00    +0.000 C 
ATOM     20  C   UNL     1      49.266   9.948  11.909  0.00  0.00    +0.000 C 
ATOM     21  C   UNL     1      50.546  10.138  11.096  0.00  0.00    +0.000 C 
BRANCH  16  22
ATOM     22  C   UNL     1      52.216   9.065  12.700  0.00  0.00    +0.000 C 
BRANCH  22  23
ATOM     23  N   UNL     1      53.124   7.940  12.921  0.00  0.00    +0.000 NA
ATOM     24  H   UNL     1      52.705   7.287  13.582  0.00  0.00    +0.000 HD
ATOM     25  H   UNL     1      53.981   8.275  13.360  0.00  0.00    +0.000 HD
ENDBRANCH  22  23
ENDBRANCH  16  22
ENDBRANCH  15  19
ENDBRANCH   1  15
TORSDOF 5
ENDMDL
MODEL 4
REMARK VINA RESULT:    -5.998      3.536      5.827
REMARK INTER + INTRA:          -7.963
REMARK INTER:                  -8.325
REMARK INTRA:                   0.363
REMARK UNBOUND:                -0.387
REMARK  Name = 
REMARK  5 active torsions:
REMARK  status: ('A' for Active; 'I' for Inactive)
REMARK    1  A    between atoms: N_1  and  C_2
REMARK    2  A    between atoms: C_2  and  C_3
REMARK    3  A    between atoms: C_6  and  C_7
REMARK    4  A    between atoms: C_7  and  N_8
REMARK    5  A    between atoms: C_13  and  C_14
REMARK                            x       y       z     vdW  Elec       q    Type
REMARK                         _______ _______ _______ _____ _____    ______ ____
ROOT
ATOM      1  N   UNL     1      47.477   6.753  13.928  0.00  0.00    +0.000 N 
ATOM      2  C   UNL     1      47.148   8.071  13.725  0.00  0.00    +0.000 A 
ATOM      3  C   UNL     1      46.133   8.118  12.804  0.00  0.00    +0.000 A 
ATOM      4  C   UNL     1      45.786   6.780  12.478  0.00  0.00    +0.000 A 
ATOM      5  C   UNL     1      44.852   6.216  11.581  0.00  0.00    +0.000 A 
ATOM      6  C   UNL     1      44.735   4.822  11.489  0.00  0.00    +0.000 A 
ATOM      7  C   UNL     1      45.501   4.008  12.331  0.00  0.00    +0.000 A 
ATOM      8  C   UNL     1      46.433   4.545  13.229  0.00  0.00    +0.000 A 
ATOM      9  C   UNL     1      46.591   5.939  13.252  0.00  0.00    +0.000 A 
ENDROOT
BRANCH   6  10
ATOM     10  C   UNL     1      43.835   4.155  10.502  0.00  0.00    +0.000 C 
ATOM     11  N   UNL     1      43.876   4.550   9.197  0.00  0.00    +0.000 N 
ATOM     12  O   UNL     1      43.073   3.251  10.838  0.00  0.00    +0.000 OA
ATOM     13  H   UNL     1      44.447   5.289   8.828  0.00  0.00    +0.000 HD
ATOM     14  H   UNL     1      43.257   4.069   8.555  0.00  0.00    +0.000 HD
ENDBRANCH   6  10
BRANCH   1  15
ATOM     15  C   UNL     1      48.607   6.322  14.736  0.00  0.00    +0.000 C 
BRANCH  15  19
ATOM     16  C   UNL     1      48.917   3.432  18.001  0.00  0.00    +0.000 C 
ATOM     17  C   UNL     1      49.338   4.882  18.283  0.00  0.00    +0.000 C 
ATOM     18  C   UNL     1      49.489   5.707  17.006  0.00  0.00    +0.000 C 
ATOM     19  C   UNL     1      48.236   5.697  16.109  0.00  0.00    +0.000 C 
ATOM     20  C   UNL     1      47.632   4.287  15.952  0.00  0.00    +0.000 C 
ATOM     21  C   UNL     1      47.586   3.459  17.237  0.00  0.00    +0.000 C 
BRANCH  16  22
ATOM     22  C   UNL     1      49.992   2.607  17.263  0.00  0.00    +0.000 C 
BRANCH  22  23
ATOM     23  N   UNL     1      49.406   1.743  16.241  0.00  0.00    +0.000 NA
ATOM     24  H   UNL     1      49.896   0.849  16.226  0.00  0.00    +0.000 HD
ATOM     25  H   UNL     1      49.550   2.158  15.320  0.00  0.00    +0.000 HD
ENDBRANCH  22  23
ENDBRANCH  16  22
ENDBRANCH  15  19
ENDBRANCH   1  15
TORSDOF 5
ENDMDL
MODEL 5
REMARK VINA RESULT:    -5.983      3.796      5.952
REMARK INTER + INTRA:          -7.944
REMARK INTER:                  -7.357
REMARK INTRA:                  -0.587
REMARK UNBOUND:                -0.387
REMARK  Name = 
REMARK  5 active torsions:
REMARK  status: ('A' for Active; 'I' for Inactive)
REMARK    1  A    between atoms: N_1  and  C_2
REMARK    2  A    between atoms: C_2  and  C_3
REMARK    3  A    between atoms: C_6  and  C_7
REMARK    4  A    between atoms: C_7  and  N_8
REMARK    5  A    between atoms: C_13  and  C_14
REMARK                            x       y       z     vdW  Elec       q    Type
REMARK                         _______ _______ _______ _____ _____    ______ ____
ROOT
ATOM      1  N   UNL     1      47.570   6.769  13.838  0.00  0.00    +0.000 N 
ATOM      2  C   UNL     1      48.295   7.549  12.970  0.00  0.00    +0.000 A 
ATOM      3  C   UNL     1      47.852   7.294  11.698  0.00  0.00    +0.000 A 
ATOM      4  C   UNL     1      46.776   6.371  11.795  0.00  0.00    +0.000 A 
ATOM      5  C   UNL     1      45.964   5.731  10.833  0.00  0.00    +0.000 A 
ATOM      6  C   UNL     1      44.952   4.857  11.253  0.00  0.00    +0.000 A 
ATOM      7  C   UNL     1      44.719   4.677  12.621  0.00  0.00    +0.000 A 
ATOM      8  C   UNL     1      45.511   5.302  13.593  0.00  0.00    +0.000 A 
ATOM      9  C   UNL     1      46.567   6.114  13.153  0.00  0.00    +0.000 A 
ENDROOT
BRANCH   6  10
ATOM     10  C   UNL     1      44.115   4.077  10.294  0.00  0.00    +0.000 C 
ATOM     11  N   UNL     1      44.120   4.427   8.975  0.00  0.00    +0.000 N 
ATOM     12  O   UNL     1      43.436   3.122  10.665  0.00  0.00    +0.000 OA
ATOM     13  H   UNL     1      44.623   5.199   8.577  0.00  0.00    +0.000 HD
ATOM     14  H   UNL     1      43.545   3.869   8.353  0.00  0.00    +0.000 HD
ENDBRANCH   6  10
BRANCH   1  15
ATOM     15  C   UNL     1      47.858   6.668  15.260  0.00  0.00    +0.000 C 
BRANCH  15  19
ATOM     16  C   UNL     1      49.384   3.685  18.068  0.00  0.00    +0.000 C 
ATOM     17  C   UNL     1      48.371   3.223  17.010  0.00  0.00    +0.000 C 
ATOM     18  C   UNL     1      47.681   4.393  16.310  0.00  0.00    +0.000 C 
ATOM     19  C   UNL     1      48.659   5.406  15.682  0.00  0.00    +0.000 C 
ATOM     20  C   UNL     1      49.829   5.757  16.622  0.00  0.00    +0.000 C 
ATOM     21  C   UNL     1      50.430   4.570  17.376  0.00  0.00    +0.000 C 
BRANCH  16  22
ATOM     22  C   UNL     1      48.738   4.390  19.278  0.00  0.00    +0.000 C 
BRANCH  22  23
ATOM     23  N   UNL     1      48.344   3.438  20.315  0.00  0.00    +0.000 NA
ATOM     24  H   UNL     1      47.714   3.892  20.975  0.00  0.00    +0.000 HD
ATOM     25  H   UNL     1      49.165   3.162  20.854  0.00  0.00    +0.000 HD
ENDBRANCH  22  23
ENDBRANCH  16  22
ENDBRANCH  15  19
ENDBRANCH   1  15
TORSDOF 5
ENDMDL
MODEL 6
REMARK VINA RESULT:    -5.790      3.593      5.691
REMARK INTER + INTRA:          -7.700
REMARK INTER:                  -7.071
REMARK INTRA:                  -0.628
REMARK UNBOUND:                -0.387
REMARK  Name = 
REMARK  5 active torsions:
REMARK  status: ('A' for Active; 'I' for Inactive)
REMARK    1  A    between atoms: N_1  and  C_2
REMARK    2  A    between atoms: C_2  and  C_3
REMARK    3  A    between atoms: C_6  and  C_7
REMARK    4  A    between atoms: C_7  and  N_8
REMARK    5  A    between atoms: C_13  and  C_14
REMARK                            x       y       z     vdW  Elec       q    Type
REMARK                         _______ _______ _______ _____ _____    ______ ____
ROOT
ATOM      1  N   UNL     1      46.453   8.517  12.323  0.00  0.00    +0.000 N 
ATOM      2  C   UNL     1      45.494   9.367  11.828  0.00  0.00    +0.000 A 
ATOM      3  C   UNL     1      44.442   8.609  11.384  0.00  0.00    +0.000 A 
ATOM      4  C   UNL     1      44.740   7.250  11.674  0.00  0.00    +0.000 A 
ATOM      5  C   UNL     1      44.058   6.039  11.425  0.00  0.00    +0.000 A 
ATOM      6  C   UNL     1      44.620   4.828  11.853  0.00  0.00    +0.000 A 
ATOM      7  C   UNL     1      45.820   4.840  12.575  0.00  0.00    +0.000 A 
ATOM      8  C   UNL     1      46.512   6.030  12.834  0.00  0.00    +0.000 A 
ATOM      9  C   UNL     1      45.972   7.224  12.332  0.00  0.00    +0.000 A 
ENDROOT
BRANCH   6  10
ATOM     10  C   UNL     1      44.003   3.503  11.547  0.00  0.00    +0.000 C 
ATOM     11  N   UNL     1      43.885   2.581  12.547  0.00  0.00    +0.000 N 
ATOM     12  O   UNL     1      43.589   3.234  10.422  0.00  0.00    +0.000 OA
ATOM     13  H   UNL     1      44.209   2.698  13.490  0.00  0.00    +0.000 HD
ATOM     14  H   UNL     1      43.454   1.697  12.302  0.00  0.00    +0.000 HD
ENDBRANCH   6  10
BRANCH   1  15
ATOM     15  C   UNL     1      47.771   8.956  12.755  0.00  0.00    +0.000 C 
BRANCH  15  19
ATOM     16  C   UNL     1      51.861   8.912  11.211  0.00  0.00    +0.000 C 
ATOM     17  C   UNL     1      50.992   7.667  10.978  0.00  0.00    +0.000 C 
ATOM     18  C   UNL     1      49.720   7.673  11.825  0.00  0.00    +0.000 C 
ATOM     19  C   UNL     1      48.863   8.943  11.651  0.00  0.00    +0.000 C 
ATOM     20  C   UNL     1      49.708  10.232  11.664  0.00  0.00    +0.000 C 
ATOM     21  C   UNL     1      51.019  10.152  10.881  0.00  0.00    +0.000 C 
BRANCH  16  22
ATOM     22  C   UNL     1      52.471   8.985  12.626  0.00  0.00    +0.000 C 
BRANCH  22  23
ATOM     23  N   UNL     1      53.261   7.796  12.939  0.00  0.00    +0.000 NA
ATOM     24  H   UNL     1      53.526   7.324  12.075  0.00  0.00    +0.000 HD
ATOM     25  H   UNL     1      52.686   7.131  13.457  0.00  0.00    +0.000 HD
ENDBRANCH  22  23
ENDBRANCH  16  22
ENDBRANCH  15  19
ENDBRANCH   1  15
TORSDOF 5
ENDMDL
MODEL 7
REMARK VINA RESULT:    -5.723      4.862      6.640
REMARK INTER + INTRA:          -7.615
REMARK INTER:                  -7.019
REMARK INTRA:                  -0.596
REMARK UNBOUND:                -0.387
REMARK  Name = 
REMARK  5 active torsions:
REMARK  status: ('A' for Active; 'I' for Inactive)
REMARK    1  A    between atoms: N_1  and  C_2
REMARK    2  A    between atoms: C_2  and  C_3
REMARK    3  A    between atoms: C_6  and  C_7
REMARK    4  A    between atoms: C_7  and  N_8
REMARK    5  A    between atoms: C_13  and  C_14
REMARK                            x       y       z     vdW  Elec       q    Type
REMARK                         _______ _______ _______ _____ _____    ______ ____
ROOT
ATOM      1  N   UNL     1      46.331   5.076  13.645  0.00  0.00    +0.000 N 
ATOM      2  C   UNL     1      45.015   4.736  13.446  0.00  0.00    +0.000 A 
ATOM      3  C   UNL     1      44.366   5.830  12.936  0.00  0.00    +0.000 A 
ATOM      4  C   UNL     1      45.331   6.858  12.758  0.00  0.00    +0.000 A 
ATOM      5  C   UNL     1      45.247   8.193  12.305  0.00  0.00    +0.000 A 
ATOM      6  C   UNL     1      46.410   8.973  12.230  0.00  0.00    +0.000 A 
ATOM      7  C   UNL     1      47.647   8.400  12.547  0.00  0.00    +0.000 A 
ATOM      8  C   UNL     1      47.754   7.077  12.997  0.00  0.00    +0.000 A 
ATOM      9  C   UNL     1      46.571   6.336  13.138  0.00  0.00    +0.000 A 
ENDROOT
BRANCH   6  10
ATOM     10  C   UNL     1      46.386  10.416  11.848  0.00  0.00    +0.000 C 
ATOM     11  N   UNL     1      45.272  11.154  12.120  0.00  0.00    +0.000 N 
ATOM     12  O   UNL     1      47.352  10.951  11.308  0.00  0.00    +0.000 OA
ATOM     13  H   UNL     1      44.428  10.806  12.539  0.00  0.00    +0.000 HD
ATOM     14  H   UNL     1      45.296  12.132  11.853  0.00  0.00    +0.000 HD
ENDBRANCH   6  10
BRANCH   1  15
ATOM     15  C   UNL     1      47.294   4.209  14.306  0.00  0.00    +0.000 C 
BRANCH  15  19
ATOM     16  C   UNL     1      49.224   4.219  18.229  0.00  0.00    +0.000 C 
ATOM     17  C   UNL     1      48.676   5.550  17.694  0.00  0.00    +0.000 C 
ATOM     18  C   UNL     1      48.322   5.485  16.209  0.00  0.00    +0.000 C 
ATOM     19  C   UNL     1      47.349   4.344  15.852  0.00  0.00    +0.000 C 
ATOM     20  C   UNL     1      47.725   3.013  16.532  0.00  0.00    +0.000 C 
ATOM     21  C   UNL     1      48.164   3.134  17.991  0.00  0.00    +0.000 C 
BRANCH  16  22
ATOM     22  C   UNL     1      50.593   3.830  17.634  0.00  0.00    +0.000 C 
BRANCH  22  23
ATOM     23  N   UNL     1      50.979   2.469  18.003  0.00  0.00    +0.000 NA
ATOM     24  H   UNL     1      51.780   2.499  18.633  0.00  0.00    +0.000 HD
ATOM     25  H   UNL     1      51.293   1.966  17.172  0.00  0.00    +0.000 HD
ENDBRANCH  22  23
ENDBRANCH  16  22
ENDBRANCH  15  19
ENDBRANCH   1  15
TORSDOF 5
ENDMDL
MODEL 8
REMARK VINA RESULT:    -5.716      2.749      6.648
REMARK INTER + INTRA:          -7.607
REMARK INTER:                  -7.034
REMARK INTRA:                  -0.573
REMARK UNBOUND:                -0.387
REMARK  Name = 
REMARK  5 active torsions:
REMARK  status: ('A' for Active; 'I' for Inactive)
REMARK    1  A    between atoms: N_1  and  C_2
REMARK    2  A    between atoms: C_2  and  C_3
REMARK    3  A    between atoms: C_6  and  C_7
REMARK    4  A    between atoms: C_7  and  N_8
REMARK    5  A    between atoms: C_13  and  C_14
REMARK                            x       y       z     vdW  Elec       q    Type
REMARK                         _______ _______ _______ _____ _____    ______ ____
ROOT
ATOM      1  N   UNL     1      44.505   4.421  10.925  0.00  0.00    +0.000 N 
ATOM      2  C   UNL     1      43.162   4.707  10.961  0.00  0.00    +0.000 A 
ATOM      3  C   UNL     1      43.008   5.959  11.497  0.00  0.00    +0.000 A 
ATOM      4  C   UNL     1      44.306   6.485  11.740  0.00  0.00    +0.000 A 
ATOM      5  C   UNL     1      44.767   7.696  12.301  0.00  0.00    +0.000 A 
ATOM      6  C   UNL     1      46.145   7.932  12.401  0.00  0.00    +0.000 A 
ATOM      7  C   UNL     1      47.046   6.992  11.886  0.00  0.00    +0.000 A 
ATOM      8  C   UNL     1      46.611   5.785  11.324  0.00  0.00    +0.000 A 
ATOM      9  C   UNL     1      45.231   5.533  11.303  0.00  0.00    +0.000 A 
ENDROOT
BRANCH   6  10
ATOM     10  C   UNL     1      46.706   9.147  13.063  0.00  0.00    +0.000 C 
ATOM     11  N   UNL     1      47.036   9.087  14.386  0.00  0.00    +0.000 N 
ATOM     12  O   UNL     1      46.888  10.190  12.439  0.00  0.00    +0.000 OA
ATOM     13  H   UNL     1      46.907   8.291  14.984  0.00  0.00    +0.000 HD
ATOM     14  H   UNL     1      47.421   9.929  14.798  0.00  0.00    +0.000 HD
ENDBRANCH   6  10
BRANCH   1  15
ATOM     15  C   UNL     1      45.041   3.122  10.548  0.00  0.00    +0.000 C 
BRANCH  15  19
ATOM     16  C   UNL     1      46.612   2.160   6.583  0.00  0.00    +0.000 C 
ATOM     17  C   UNL     1      45.814   1.075   7.322  0.00  0.00    +0.000 C 
ATOM     18  C   UNL     1      45.599   1.409   8.798  0.00  0.00    +0.000 C 
ATOM     19  C   UNL     1      44.945   2.785   9.035  0.00  0.00    +0.000 C 
ATOM     20  C   UNL     1      45.565   3.892   8.160  0.00  0.00    +0.000 C 
ATOM     21  C   UNL     1      45.852   3.487   6.713  0.00  0.00    +0.000 C 
BRANCH  16  22
ATOM     22  C   UNL     1      48.076   2.282   7.056  0.00  0.00    +0.000 C 
BRANCH  22  23
ATOM     23  N   UNL     1      48.992   2.491   5.937  0.00  0.00    +0.000 NA
ATOM     24  H   UNL     1      48.485   2.895   5.150  0.00  0.00    +0.000 HD
ATOM     25  H   UNL     1      49.345   1.590   5.612  0.00  0.00    +0.000 HD
ENDBRANCH  22  23
ENDBRANCH  16  22
ENDBRANCH  15  19
ENDBRANCH   1  15
TORSDOF 5
ENDMDL
MODEL 9
REMARK VINA RESULT:    -5.385      4.020      6.193
REMARK INTER + INTRA:          -7.188
REMARK INTER:                  -6.552
REMARK INTRA:                  -0.636
REMARK UNBOUND:                -0.387
REMARK  Name = 
REMARK  5 active torsions:
REMARK  status: ('A' for Active; 'I' for Inactive)
REMARK    1  A    between atoms: N_1  and  C_2
REMARK    2  A    between atoms: C_2  and  C_3
REMARK    3  A    between atoms: C_6  and  C_7
REMARK    4  A    between atoms: C_7  and  N_8
REMARK    5  A    between atoms: C_13  and  C_14
REMARK                            x       y       z     vdW  Elec       q    Type
REMARK                         _______ _______ _______ _____ _____    ______ ____
ROOT
ATOM      1  N   UNL     1      47.668   8.379  13.091  0.00  0.00    +0.000 N 
ATOM      2  C   UNL     1      46.745   9.361  12.826  0.00  0.00    +0.000 A 
ATOM      3  C   UNL     1      45.540   8.757  12.578  0.00  0.00    +0.000 A 
ATOM      4  C   UNL     1      45.716   7.358  12.758  0.00  0.00    +0.000 A 
ATOM      5  C   UNL     1      44.852   6.251  12.612  0.00  0.00    +0.000 A 
ATOM      6  C   UNL     1      45.330   4.960  12.878  0.00  0.00    +0.000 A 
ATOM      7  C   UNL     1      46.640   4.792  13.344  0.00  0.00    +0.000 A 
ATOM      8  C   UNL     1      47.513   5.876  13.497  0.00  0.00    +0.000 A 
ATOM      9  C   UNL     1      47.040   7.151  13.153  0.00  0.00    +0.000 A 
ENDROOT
BRANCH   6  10
ATOM     10  C   UNL     1      44.504   3.736  12.659  0.00  0.00    +0.000 C 
ATOM     11  N   UNL     1      44.904   2.826  11.725  0.00  0.00    +0.000 N 
ATOM     12  O   UNL     1      43.483   3.528  13.311  0.00  0.00    +0.000 OA
ATOM     13  H   UNL     1      45.709   2.914  11.130  0.00  0.00    +0.000 HD
ATOM     14  H   UNL     1      44.322   2.004  11.611  0.00  0.00    +0.000 HD
ENDBRANCH   6  10
BRANCH   1  15
ATOM     15  C   UNL     1      49.090   8.636  13.262  0.00  0.00    +0.000 C 
BRANCH  15  19
ATOM     16  C   UNL     1      49.501   7.112  17.338  0.00  0.00    +0.000 C 
ATOM     17  C   UNL     1      50.758   7.157  16.458  0.00  0.00    +0.000 C 
ATOM     18  C   UNL     1      50.435   7.398  14.985  0.00  0.00    +0.000 C 
ATOM     19  C   UNL     1      49.582   8.658  14.734  0.00  0.00    +0.000 C 
ATOM     20  C   UNL     1      48.411   8.786  15.729  0.00  0.00    +0.000 C 
ATOM     21  C   UNL     1      48.756   8.444  17.179  0.00  0.00    +0.000 C 
BRANCH  16  22
ATOM     22  C   UNL     1      48.589   5.901  17.053  0.00  0.00    +0.000 C 
BRANCH  22  23
ATOM     23  N   UNL     1      47.446   5.855  17.963  0.00  0.00    +0.000 NA
ATOM     24  H   UNL     1      47.049   4.916  17.968  0.00  0.00    +0.000 HD
ATOM     25  H   UNL     1      46.709   6.470  17.616  0.00  0.00    +0.000 HD
ENDBRANCH  22  23
ENDBRANCH  16  22
ENDBRANCH  15  19
ENDBRANCH   1  15
TORSDOF 5
ENDMDL
