MODEL 1
REMARK VINA RESULT:    -7.708      0.000      0.000
REMARK INTER + INTRA:         -10.804
REMARK INTER:                 -10.186
REMARK INTRA:                  -0.617
REMARK UNBOUND:                -0.617
REMARK  Name = 
REMARK  6 active torsions:
REMARK  status: ('A' for Active; 'I' for Inactive)
REMARK    1  A    between atoms: C_2  and  O_3
REMARK    2  A    between atoms: C_2  and  C_4
REMARK    3  A    between atoms: C_7  and  C_8
REMARK    4  A    between atoms: C_8  and  C_9
REMARK    5  A    between atoms: C_9  and  C_10
REMARK    6  A    between atoms: C_14  and  N_15
REMARK                            x       y       z     vdW  Elec       q    Type
REMARK                         _______ _______ _______ _____ _____    ______ ____
ROOT
ATOM      1  C   UNK     1      45.139   4.410  12.101  0.00  0.00    +0.000 A 
ATOM      2  C   UNK     1      45.594   3.333  12.848  0.00  0.00    +0.000 A 
ATOM      3  N   UNK     1      46.625   3.433  13.704  0.00  0.00    +0.000 NA
ATOM      4  C   UNK     1      47.178   4.671  13.787  0.00  0.00    +0.000 A 
ATOM      5  C   UNK     1      46.740   5.794  13.078  0.00  0.00    +0.000 A 
ATOM      6  N   UNK     1      45.699   5.643  12.226  0.00  0.00    +0.000 NA
ENDROOT
BRANCH   5   7
ATOM      7  N   UNK     1      47.345   7.030  13.180  0.00  0.00    +0.000 N 
ATOM      8  C   UNK     1      46.587   8.265  13.343  0.00  0.00    +0.000 C 
ATOM      9  C   UNK     1      46.801   9.174  12.134  0.00  0.00    +0.000 C 
ATOM     10  C   UNK     1      48.285   9.399  11.857  0.00  0.00    +0.000 C 
ATOM     11  C   UNK     1      49.025   8.070  11.720  0.00  0.00    +0.000 C 
ATOM     12  C   UNK     1      48.777   7.163  12.924  0.00  0.00    +0.000 C 
ENDBRANCH   5   7
BRANCH   1  13
ATOM     13  C   UNK     1      43.982   4.248  11.153  0.00  0.00    +0.000 C 
BRANCH  13  14
ATOM     14  C   UNK     1      43.962   2.867  10.493  0.00  0.00    +0.000 C 
BRANCH  14  18
ATOM     15  C   UNK     1      46.377   2.026   7.859  0.00  0.00    +0.000 A 
ATOM     16  C   UNK     1      46.284   3.329   7.412  0.00  0.00    +0.000 A 
ATOM     17  S   UNK     1      45.203   4.215   8.394  0.00  0.00    +0.000 S 
ATOM     18  C   UNK     1      44.919   2.807   9.342  0.00  0.00    +0.000 A 
ATOM     19  N   UNK     1      45.579   1.726   8.971  0.00  0.00    +0.000 NA
BRANCH  15  21
ATOM     20  O   UNK     1      48.057   1.221   6.388  0.00  0.00    +0.000 OA
ATOM     21  C   UNK     1      47.214   0.998   7.246  0.00  0.00    +0.000 C 
BRANCH  21  22
ATOM     22  O   UNK     1      46.960  -0.247   7.728  0.00  0.00    +0.000 OA
ATOM     23  H   UNK     1      46.291  -0.159   8.447  0.00  0.00    +0.000 HD
ENDBRANCH  21  22
ENDBRANCH  15  21
ENDBRANCH  14  18
ENDBRANCH  13  14
ENDBRANCH   1  13
TORSDOF 6
ENDMDL
MODEL 2
REMARK VINA RESULT:    -7.584      4.110      7.143
REMARK INTER + INTRA:         -10.639
REMARK INTER:                 -10.047
REMARK INTRA:                  -0.593
REMARK UNBOUND:                -0.617
REMARK  Name = 
REMARK  6 active torsions:
REMARK  status: ('A' for Active; 'I' for Inactive)
REMARK    1  A    between atoms: C_2  and  O_3
REMARK    2  A    between atoms: C_2  and  C_4
REMARK    3  A    between atoms: C_7  and  C_8
REMARK    4  A    between atoms: C_8  and  C_9
REMARK    5  A    between atoms: C_9  and  C_10
REMARK    6  A    between atoms: C_14  and  N_15
REMARK                            x       y       z     vdW  Elec       q    Type
REMARK                         _______ _______ _______ _____ _____    ______ ____
ROOT
ATOM      1  C   UNK     1      45.070   5.037  12.393  0.00  0.00    +0.000 A 
ATOM      2  C   UNK     1      44.196   4.371  13.241  0.00  0.00    +0.000 A 
ATOM      3  N   UNK     1      43.461   3.320  12.839  0.00  0.00    +0.000 NA
ATOM      4  C   UNK     1      43.649   2.956  11.543  0.00  0.00    +0.000 A 
ATOM      5  C   UNK     1      44.537   3.576  10.657  0.00  0.00    +0.000 A 
ATOM      6  N   UNK     1      45.254   4.631  11.109  0.00  0.00    +0.000 NA
ENDROOT
BRANCH   5   7
ATOM      7  N   UNK     1      44.682   3.183   9.343  0.00  0.00    +0.000 N 
ATOM      8  C   UNK     1      44.767   1.782   8.946  0.00  0.00    +0.000 C 
ATOM      9  C   UNK     1      46.132   1.497   8.322  0.00  0.00    +0.000 C 
ATOM     10  C   UNK     1      46.448   2.473   7.192  0.00  0.00    +0.000 C 
ATOM     11  C   UNK     1      46.319   3.920   7.665  0.00  0.00    +0.000 C 
ATOM     12  C   UNK     1      44.959   4.180   8.311  0.00  0.00    +0.000 C 
ENDBRANCH   5   7
BRANCH   1  13
ATOM     13  C   UNK     1      45.870   6.210  12.890  0.00  0.00    +0.000 C 
BRANCH  13  14
ATOM     14  C   UNK     1      47.361   5.884  13.014  0.00  0.00    +0.000 C 
BRANCH  14  18
ATOM     15  C   UNK     1      47.935   4.687  16.437  0.00  0.00    +0.000 A 
ATOM     16  C   UNK     1      48.666   5.834  16.674  0.00  0.00    +0.000 A 
ATOM     17  S   UNK     1      48.694   6.817  15.277  0.00  0.00    +0.000 S 
ATOM     18  C   UNK     1      47.742   5.649  14.443  0.00  0.00    +0.000 A 
ATOM     19  N   UNK     1      47.409   4.580  15.143  0.00  0.00    +0.000 NA
BRANCH  15  21
ATOM     20  O   UNK     1      48.556   3.241  18.215  0.00  0.00    +0.000 OA
ATOM     21  C   UNK     1      47.711   3.631  17.420  0.00  0.00    +0.000 C 
BRANCH  21  22
ATOM     22  O   UNK     1      46.455   3.114  17.363  0.00  0.00    +0.000 OA
ATOM     23  H   UNK     1      46.221   2.795  18.265  0.00  0.00    +0.000 HD
ENDBRANCH  21  22
ENDBRANCH  15  21
ENDBRANCH  14  18
ENDBRANCH  13  14
ENDBRANCH   1  13
TORSDOF 6
ENDMDL
MODEL 3
REMARK VINA RESULT:    -7.048      3.980      6.825
REMARK INTER + INTRA:          -9.931
REMARK INTER:                  -9.258
REMARK INTRA:                  -0.673
REMARK UNBOUND:                -0.617
REMARK  Name = 
REMARK  6 active torsions:
REMARK  status: ('A' for Active; 'I' for Inactive)
REMARK    1  A    between atoms: C_2  and  O_3
REMARK    2  A    between atoms: C_2  and  C_4
REMARK    3  A    between atoms: C_7  and  C_8
REMARK    4  A    between atoms: C_8  and  C_9
REMARK    5  A    between atoms: C_9  and  C_10
REMARK    6  A    between atoms: C_14  and  N_15
REMARK                            x       y       z     vdW  Elec       q    Type
REMARK                         _______ _______ _______ _____ _____    ______ ____
ROOT
ATOM      1  C   UNK     1      45.254   4.644  12.498  0.00  0.00    +0.000 A 
ATOM      2  C   UNK     1      44.275   4.047  13.280  0.00  0.00    +0.000 A 
ATOM      3  N   UNK     1      43.424   3.128  12.792  0.00  0.00    +0.000 NA
ATOM      4  C   UNK     1      43.605   2.824  11.481  0.00  0.00    +0.000 A 
ATOM      5  C   UNK     1      44.594   3.375  10.659  0.00  0.00    +0.000 A 
ATOM      6  N   UNK     1      45.426   4.298  11.195  0.00  0.00    +0.000 NA
ENDROOT
BRANCH   5   7
ATOM      7  N   UNK     1      44.728   3.049   9.325  0.00  0.00    +0.000 N 
ATOM      8  C   UNK     1      44.911   1.677   8.866  0.00  0.00    +0.000 C 
ATOM      9  C   UNK     1      46.275   1.527   8.193  0.00  0.00    +0.000 C 
ATOM     10  C   UNK     1      46.478   2.571   7.098  0.00  0.00    +0.000 C 
ATOM     11  C   UNK     1      46.249   3.982   7.636  0.00  0.00    +0.000 C 
ATOM     12  C   UNK     1      44.894   4.106   8.329  0.00  0.00    +0.000 C 
ENDBRANCH   5   7
BRANCH   1  13
ATOM     13  C   UNK     1      46.183   5.670  13.089  0.00  0.00    +0.000 C 
BRANCH  13  14
ATOM     14  C   UNK     1      46.794   6.582  12.021  0.00  0.00    +0.000 C 
BRANCH  14  18
ATOM     15  C   UNK     1      44.336   9.203  11.271  0.00  0.00    +0.000 A 
ATOM     16  C   UNK     1      45.158  10.105  11.917  0.00  0.00    +0.000 A 
ATOM     17  S   UNK     1      46.563   9.319  12.489  0.00  0.00    +0.000 S 
ATOM     18  C   UNK     1      45.982   7.829  11.851  0.00  0.00    +0.000 A 
ATOM     19  N   UNK     1      44.812   7.886  11.243  0.00  0.00    +0.000 NA
BRANCH  15  21
ATOM     20  O   UNK     1      42.895  10.438   9.843  0.00  0.00    +0.000 OA
ATOM     21  C   UNK     1      43.052   9.542  10.662  0.00  0.00    +0.000 C 
BRANCH  21  22
ATOM     22  O   UNK     1      42.035   8.757  11.103  0.00  0.00    +0.000 OA
ATOM     23  H   UNK     1      41.192   9.248  10.957  0.00  0.00    +0.000 HD
ENDBRANCH  21  22
ENDBRANCH  15  21
ENDBRANCH  14  18
ENDBRANCH  13  14
ENDBRANCH   1  13
TORSDOF 6
ENDMDL
MODEL 4
REMARK VINA RESULT:    -6.811      4.000      6.966
REMARK INTER + INTRA:          -9.618
REMARK INTER:                  -9.007
REMARK INTRA:                  -0.611
REMARK UNBOUND:                -0.617
REMARK  Name = 
REMARK  6 active torsions:
REMARK  status: ('A' for Active; 'I' for Inactive)
REMARK    1  A    between atoms: C_2  and  O_3
REMARK    2  A    between atoms: C_2  and  C_4
REMARK    3  A    between atoms: C_7  and  C_8
REMARK    4  A    between atoms: C_8  and  C_9
REMARK    5  A    between atoms: C_9  and  C_10
REMARK    6  A    between atoms: C_14  and  N_15
REMARK                            x       y       z     vdW  Elec       q    Type
REMARK                         _______ _______ _______ _____ _____    ______ ____
ROOT
ATOM      1  C   UNK     1      44.808   5.306  12.168  0.00  0.00    +0.000 A 
ATOM      2  C   UNK     1      44.200   4.507  13.126  0.00  0.00    +0.000 A 
ATOM      3  N   UNK     1      43.740   3.274  12.850  0.00  0.00    +0.000 NA
ATOM      4  C   UNK     1      43.927   2.871  11.566  0.00  0.00    +0.000 A 
ATOM      5  C   UNK     1      44.558   3.627  10.572  0.00  0.00    +0.000 A 
ATOM      6  N   UNK     1      45.003   4.863  10.898  0.00  0.00    +0.000 NA
ENDROOT
BRANCH   5   7
ATOM      7  N   UNK     1      44.709   3.183   9.274  0.00  0.00    +0.000 N 
ATOM      8  C   UNK     1      44.813   1.769   8.935  0.00  0.00    +0.000 C 
ATOM      9  C   UNK     1      46.182   1.477   8.323  0.00  0.00    +0.000 C 
ATOM     10  C   UNK     1      46.485   2.411   7.154  0.00  0.00    +0.000 C 
ATOM     11  C   UNK     1      46.336   3.874   7.568  0.00  0.00    +0.000 C 
ATOM     12  C   UNK     1      44.972   4.141   8.203  0.00  0.00    +0.000 C 
ENDBRANCH   5   7
BRANCH   1  13
ATOM     13  C   UNK     1      45.305   6.681  12.525  0.00  0.00    +0.000 C 
BRANCH  13  14
ATOM     14  C   UNK     1      46.588   7.046  11.773  0.00  0.00    +0.000 C 
BRANCH  14  18
ATOM     15  C   UNK     1      49.026   6.912  14.514  0.00  0.00    +0.000 A 
ATOM     16  C   UNK     1      49.884   7.664  13.736  0.00  0.00    +0.000 A 
ATOM     17  S   UNK     1      49.154   8.030  12.236  0.00  0.00    +0.000 S 
ATOM     18  C   UNK     1      47.749   7.157  12.713  0.00  0.00    +0.000 A 
ATOM     19  N   UNK     1      47.795   6.614  13.915  0.00  0.00    +0.000 NA
BRANCH  15  21
ATOM     20  O   UNK     1      50.461   6.135  16.239  0.00  0.00    +0.000 OA
ATOM     21  C   UNK     1      49.336   6.428  15.857  0.00  0.00    +0.000 C 
BRANCH  21  22
ATOM     22  O   UNK     1      48.237   6.331  16.650  0.00  0.00    +0.000 OA
ATOM     23  H   UNK     1      47.813   7.220  16.684  0.00  0.00    +0.000 HD
ENDBRANCH  21  22
ENDBRANCH  15  21
ENDBRANCH  14  18
ENDBRANCH  13  14
ENDBRANCH   1  13
TORSDOF 6
ENDMDL
MODEL 5
REMARK VINA RESULT:    -6.457      4.169      7.160
REMARK INTER + INTRA:          -9.151
REMARK INTER:                  -8.412
REMARK INTRA:                  -0.739
REMARK UNBOUND:                -0.617
REMARK  Name = 
REMARK  6 active torsions:
REMARK  status: ('A' for Active; 'I' for Inactive)
REMARK    1  A    between atoms: C_2  and  O_3
REMARK    2  A    between atoms: C_2  and  C_4
REMARK    3  A    between atoms: C_7  and  C_8
REMARK    4  A    between atoms: C_8  and  C_9
REMARK    5  A    between atoms: C_9  and  C_10
REMARK    6  A    between atoms: C_14  and  N_15
REMARK                            x       y       z     vdW  Elec       q    Type
REMARK                         _______ _______ _______ _____ _____    ______ ____
ROOT
ATOM      1  C   UNK     1      47.236   7.324  12.435  0.00  0.00    +0.000 A 
ATOM      2  C   UNK     1      46.897   8.660  12.279  0.00  0.00    +0.000 A 
ATOM      3  N   UNK     1      45.678   9.053  11.873  0.00  0.00    +0.000 NA
ATOM      4  C   UNK     1      44.803   8.041  11.638  0.00  0.00    +0.000 A 
ATOM      5  C   UNK     1      45.085   6.681  11.808  0.00  0.00    +0.000 A 
ATOM      6  N   UNK     1      46.328   6.335  12.217  0.00  0.00    +0.000 NA
ENDROOT
BRANCH   5   7
ATOM      7  N   UNK     1      44.169   5.685  11.539  0.00  0.00    +0.000 N 
ATOM      8  C   UNK     1      43.164   5.260  12.506  0.00  0.00    +0.000 C 
ATOM      9  C   UNK     1      43.400   3.802  12.900  0.00  0.00    +0.000 C 
ATOM     10  C   UNK     1      43.491   2.898  11.674  0.00  0.00    +0.000 C 
ATOM     11  C   UNK     1      44.542   3.409  10.691  0.00  0.00    +0.000 C 
ATOM     12  C   UNK     1      44.307   4.875  10.331  0.00  0.00    +0.000 C 
ENDBRANCH   5   7
BRANCH   1  13
ATOM     13  C   UNK     1      48.616   6.933  12.890  0.00  0.00    +0.000 C 
BRANCH  13  14
ATOM     14  C   UNK     1      48.980   7.560  14.239  0.00  0.00    +0.000 C 
BRANCH  14  18
ATOM     15  C   UNK     1      48.114   4.778  16.473  0.00  0.00    +0.000 A 
ATOM     16  C   UNK     1      48.452   5.583  17.542  0.00  0.00    +0.000 A 
ATOM     17  S   UNK     1      48.952   7.121  16.991  0.00  0.00    +0.000 S 
ATOM     18  C   UNK     1      48.698   6.614  15.365  0.00  0.00    +0.000 A 
ATOM     19  N   UNK     1      48.266   5.375  15.215  0.00  0.00    +0.000 NA
BRANCH  15  21
ATOM     20  O   UNK     1      46.697   3.053  17.281  0.00  0.00    +0.000 OA
ATOM     21  C   UNK     1      47.645   3.400  16.589  0.00  0.00    +0.000 C 
BRANCH  21  22
ATOM     22  O   UNK     1      48.375   2.529  15.845  0.00  0.00    +0.000 OA
ATOM     23  H   UNK     1      48.197   2.723  14.896  0.00  0.00    +0.000 HD
ENDBRANCH  21  22
ENDBRANCH  15  21
ENDBRANCH  14  18
ENDBRANCH  13  14
ENDBRANCH   1  13
TORSDOF 6
ENDMDL
MODEL 6
REMARK VINA RESULT:    -6.439      3.835      6.987
REMARK INTER + INTRA:          -9.127
REMARK INTER:                  -8.583
REMARK INTRA:                  -0.544
REMARK UNBOUND:                -0.617
REMARK  Name = 
REMARK  6 active torsions:
REMARK  status: ('A' for Active; 'I' for Inactive)
REMARK    1  A    between atoms: C_2  and  O_3
REMARK    2  A    between atoms: C_2  and  C_4
REMARK    3  A    between atoms: C_7  and  C_8
REMARK    4  A    between atoms: C_8  and  C_9
REMARK    5  A    between atoms: C_9  and  C_10
REMARK    6  A    between atoms: C_14  and  N_15
REMARK                            x       y       z     vdW  Elec       q    Type
REMARK                         _______ _______ _______ _____ _____    ______ ____
ROOT
ATOM      1  C   UNK     1      44.799   4.978  12.062  0.00  0.00    +0.000 A 
ATOM      2  C   UNK     1      44.056   4.206  12.943  0.00  0.00    +0.000 A 
ATOM      3  N   UNK     1      43.519   3.025  12.591  0.00  0.00    +0.000 NA
ATOM      4  C   UNK     1      43.770   2.644  11.311  0.00  0.00    +0.000 A 
ATOM      5  C   UNK     1      44.536   3.372  10.393  0.00  0.00    +0.000 A 
ATOM      6  N   UNK     1      45.054   4.557  10.795  0.00  0.00    +0.000 NA
ENDROOT
BRANCH   5   7
ATOM      7  N   UNK     1      44.749   2.955   9.096  0.00  0.00    +0.000 N 
ATOM      8  C   UNK     1      44.961   1.555   8.745  0.00  0.00    +0.000 C 
ATOM      9  C   UNK     1      46.362   1.366   8.166  0.00  0.00    +0.000 C 
ATOM     10  C   UNK     1      46.628   2.332   7.015  0.00  0.00    +0.000 C 
ATOM     11  C   UNK     1      46.367   3.776   7.439  0.00  0.00    +0.000 C 
ATOM     12  C   UNK     1      44.973   3.941   8.041  0.00  0.00    +0.000 C 
ENDBRANCH   5   7
BRANCH   1  13
ATOM     13  C   UNK     1      45.378   6.296  12.502  0.00  0.00    +0.000 C 
BRANCH  13  14
ATOM     14  C   UNK     1      46.550   6.737  11.621  0.00  0.00    +0.000 C 
BRANCH  14  18
ATOM     15  C   UNK     1      49.707   7.904  13.087  0.00  0.00    +0.000 A 
ATOM     16  C   UNK     1      49.398   7.188  14.227  0.00  0.00    +0.000 A 
ATOM     17  S   UNK     1      47.903   6.385  14.033  0.00  0.00    +0.000 S 
ATOM     18  C   UNK     1      47.757   7.049  12.451  0.00  0.00    +0.000 A 
ATOM     19  N   UNK     1      48.752   7.828  12.066  0.00  0.00    +0.000 NA
BRANCH  15  21
ATOM     20  O   UNK     1      50.930   9.930  12.890  0.00  0.00    +0.000 OA
ATOM     21  C   UNK     1      50.915   8.706  12.916  0.00  0.00    +0.000 C 
BRANCH  21  22
ATOM     22  O   UNK     1      52.037   7.950  12.785  0.00  0.00    +0.000 OA
ATOM     23  H   UNK     1      52.619   8.142  13.557  0.00  0.00    +0.000 HD
ENDBRANCH  21  22
ENDBRANCH  15  21
ENDBRANCH  14  18
ENDBRANCH  13  14
ENDBRANCH   1  13
TORSDOF 6
ENDMDL
MODEL 7
REMARK VINA RESULT:    -6.302      5.390      7.792
REMARK INTER + INTRA:          -8.946
REMARK INTER:                  -8.429
REMARK INTRA:                  -0.516
REMARK UNBOUND:                -0.617
REMARK  Name = 
REMARK  6 active torsions:
REMARK  status: ('A' for Active; 'I' for Inactive)
REMARK    1  A    between atoms: C_2  and  O_3
REMARK    2  A    between atoms: C_2  and  C_4
REMARK    3  A    between atoms: C_7  and  C_8
REMARK    4  A    between atoms: C_8  and  C_9
REMARK    5  A    between atoms: C_9  and  C_10
REMARK    6  A    between atoms: C_14  and  N_15
REMARK                            x       y       z     vdW  Elec       q    Type
REMARK                         _______ _______ _______ _____ _____    ______ ____
ROOT
ATOM      1  C   UNK     1      47.426   4.740  15.543  0.00  0.00    +0.000 A 
ATOM      2  C   UNK     1      48.265   5.738  15.068  0.00  0.00    +0.000 A 
ATOM      3  N   UNK     1      48.069   6.342  13.883  0.00  0.00    +0.000 NA
ATOM      4  C   UNK     1      46.982   5.905  13.195  0.00  0.00    +0.000 A 
ATOM      5  C   UNK     1      46.091   4.924  13.642  0.00  0.00    +0.000 A 
ATOM      6  N   UNK     1      46.331   4.344  14.841  0.00  0.00    +0.000 NA
ENDROOT
BRANCH   5   7
ATOM      7  N   UNK     1      45.009   4.499  12.899  0.00  0.00    +0.000 N 
ATOM      8  C   UNK     1      45.030   3.270  12.113  0.00  0.00    +0.000 C 
ATOM      9  C   UNK     1      44.877   3.596  10.628  0.00  0.00    +0.000 C 
ATOM     10  C   UNK     1      43.652   4.468  10.368  0.00  0.00    +0.000 C 
ATOM     11  C   UNK     1      43.678   5.724  11.236  0.00  0.00    +0.000 C 
ATOM     12  C   UNK     1      43.859   5.381  12.714  0.00  0.00    +0.000 C 
ENDBRANCH   5   7
BRANCH   1  13
ATOM     13  C   UNK     1      47.687   4.092  16.875  0.00  0.00    +0.000 C 
BRANCH  13  14
ATOM     14  C   UNK     1      48.264   2.681  16.730  0.00  0.00    +0.000 C 
BRANCH  14  18
ATOM     15  C   UNK     1      51.744   1.885  17.585  0.00  0.00    +0.000 A 
ATOM     16  C   UNK     1      51.904   3.196  17.986  0.00  0.00    +0.000 A 
ATOM     17  S   UNK     1      50.444   4.059  17.783  0.00  0.00    +0.000 S 
ATOM     18  C   UNK     1      49.696   2.638  17.165  0.00  0.00    +0.000 A 
ATOM     19  N   UNK     1      50.468   1.568  17.102  0.00  0.00    +0.000 NA
BRANCH  15  21
ATOM     20  O   UNK     1      53.890   0.996  17.092  0.00  0.00    +0.000 OA
ATOM     21  C   UNK     1      52.795   0.872  17.625  0.00  0.00    +0.000 C 
BRANCH  21  22
ATOM     22  O   UNK     1      52.433  -0.238  18.321  0.00  0.00    +0.000 OA
ATOM     23  H   UNK     1      53.196  -0.499  18.887  0.00  0.00    +0.000 HD
ENDBRANCH  21  22
ENDBRANCH  15  21
ENDBRANCH  14  18
ENDBRANCH  13  14
ENDBRANCH   1  13
TORSDOF 6
ENDMDL
MODEL 8
REMARK VINA RESULT:    -6.199      2.913      4.957
REMARK INTER + INTRA:          -8.809
REMARK INTER:                  -8.244
REMARK INTRA:                  -0.566
REMARK UNBOUND:                -0.617
REMARK  Name = 
REMARK  6 active torsions:
REMARK  status: ('A' for Active; 'I' for Inactive)
REMARK    1  A    between atoms: C_2  and  O_3
REMARK    2  A    between atoms: C_2  and  C_4
REMARK    3  A    between atoms: C_7  and  C_8
REMARK    4  A    between atoms: C_8  and  C_9
REMARK    5  A    between atoms: C_9  and  C_10
REMARK    6  A    between atoms: C_14  and  N_15
REMARK                            x       y       z     vdW  Elec       q    Type
REMARK                         _______ _______ _______ _____ _____    ______ ____
ROOT
ATOM      1  C   UNK     1      47.856   6.806  13.199  0.00  0.00    +0.000 A 
ATOM      2  C   UNK     1      48.881   7.734  13.087  0.00  0.00    +0.000 A 
ATOM      3  N   UNK     1      49.794   7.924  14.056  0.00  0.00    +0.000 NA
ATOM      4  C   UNK     1      49.638   7.129  15.146  0.00  0.00    +0.000 A 
ATOM      5  C   UNK     1      48.640   6.160  15.297  0.00  0.00    +0.000 A 
ATOM      6  N   UNK     1      47.744   6.008  14.294  0.00  0.00    +0.000 NA
ENDROOT
BRANCH   5   7
ATOM      7  N   UNK     1      48.509   5.387  16.432  0.00  0.00    +0.000 N 
ATOM      8  C   UNK     1      49.482   5.416  17.519  0.00  0.00    +0.000 C 
ATOM      9  C   UNK     1      50.150   4.049  17.661  0.00  0.00    +0.000 C 
ATOM     10  C   UNK     1      49.118   2.933  17.792  0.00  0.00    +0.000 C 
ATOM     11  C   UNK     1      48.117   2.971  16.639  0.00  0.00    +0.000 C 
ATOM     12  C   UNK     1      47.480   4.352  16.495  0.00  0.00    +0.000 C 
ENDBRANCH   5   7
BRANCH   1  13
ATOM     13  C   UNK     1      46.857   6.633  12.088  0.00  0.00    +0.000 C 
BRANCH  13  14
ATOM     14  C   UNK     1      45.446   6.356  12.615  0.00  0.00    +0.000 C 
BRANCH  14  18
ATOM     15  C   UNK     1      44.451   3.581  10.428  0.00  0.00    +0.000 A 
ATOM     16  C   UNK     1      43.503   3.231  11.369  0.00  0.00    +0.000 A 
ATOM     17  S   UNK     1      43.554   4.312  12.690  0.00  0.00    +0.000 S 
ATOM     18  C   UNK     1      44.840   5.169  11.932  0.00  0.00    +0.000 A 
ATOM     19  N   UNK     1      45.228   4.698  10.762  0.00  0.00    +0.000 NA
BRANCH  15  21
ATOM     20  O   UNK     1      45.249   1.788   9.091  0.00  0.00    +0.000 OA
ATOM     21  C   UNK     1      44.676   2.867   9.174  0.00  0.00    +0.000 C 
BRANCH  21  22
ATOM     22  O   UNK     1      44.183   3.528   8.094  0.00  0.00    +0.000 OA
ATOM     23  H   UNK     1      43.689   2.876   7.545  0.00  0.00    +0.000 HD
ENDBRANCH  21  22
ENDBRANCH  15  21
ENDBRANCH  14  18
ENDBRANCH  13  14
ENDBRANCH   1  13
TORSDOF 6
ENDMDL
MODEL 9
REMARK VINA RESULT:    -5.952      3.376      5.621
REMARK INTER + INTRA:          -8.483
REMARK INTER:                  -7.839
REMARK INTRA:                  -0.644
REMARK UNBOUND:                -0.617
REMARK  Name = 
REMARK  6 active torsions:
REMARK  status: ('A' for Active; 'I' for Inactive)
REMARK    1  A    between atoms: C_2  and  O_3
REMARK    2  A    between atoms: C_2  and  C_4
REMARK    3  A    between atoms: C_7  and  C_8
REMARK    4  A    between atoms: C_8  and  C_9
REMARK    5  A    between atoms: C_9  and  C_10
REMARK    6  A    between atoms: C_14  and  N_15
REMARK                            x       y       z     vdW  Elec       q    Type
REMARK                         _______ _______ _______ _____ _____    ______ ____
ROOT
ATOM      1  C   UNK     1      48.394   7.041  13.562  0.00  0.00    +0.000 A 
ATOM      2  C   UNK     1      48.805   8.317  13.918  0.00  0.00    +0.000 A 
ATOM      3  N   UNK     1      49.128   8.646  15.181  0.00  0.00    +0.000 NA
ATOM      4  C   UNK     1      49.031   7.629  16.076  0.00  0.00    +0.000 A 
ATOM      5  C   UNK     1      48.650   6.319  15.763  0.00  0.00    +0.000 A 
ATOM      6  N   UNK     1      48.332   6.038  14.478  0.00  0.00    +0.000 NA
ENDROOT
BRANCH   5   7
ATOM      7  N   UNK     1      48.547   5.321  16.711  0.00  0.00    +0.000 N 
ATOM      8  C   UNK     1      49.557   5.108  17.741  0.00  0.00    +0.000 C 
ATOM      9  C   UNK     1      50.208   3.738  17.560  0.00  0.00    +0.000 C 
ATOM     10  C   UNK     1      49.165   2.627  17.488  0.00  0.00    +0.000 C 
ATOM     11  C   UNK     1      48.125   2.920  16.408  0.00  0.00    +0.000 C 
ATOM     12  C   UNK     1      47.505   4.304  16.587  0.00  0.00    +0.000 C 
ENDBRANCH   5   7
BRANCH   1  13
ATOM     13  C   UNK     1      48.040   6.722  12.135  0.00  0.00    +0.000 C 
BRANCH  13  14
ATOM     14  C   UNK     1      46.605   7.130  11.789  0.00  0.00    +0.000 C 
BRANCH  14  18
ATOM     15  C   UNK     1      44.435   4.172  11.671  0.00  0.00    +0.000 A 
ATOM     16  C   UNK     1      44.602   4.152  10.300  0.00  0.00    +0.000 A 
ATOM     17  S   UNK     1      45.625   5.429   9.811  0.00  0.00    +0.000 S 
ATOM     18  C   UNK     1      45.773   5.932  11.451  0.00  0.00    +0.000 A 
ATOM     19  N   UNK     1      45.107   5.208  12.332  0.00  0.00    +0.000 NA
BRANCH  15  21
ATOM     20  O   UNK     1      43.363   3.322  13.612  0.00  0.00    +0.000 OA
ATOM     21  C   UNK     1      43.620   3.219  12.419  0.00  0.00    +0.000 C 
BRANCH  21  22
ATOM     22  O   UNK     1      43.171   2.191  11.652  0.00  0.00    +0.000 OA
ATOM     23  H   UNK     1      42.319   2.472  11.243  0.00  0.00    +0.000 HD
ENDBRANCH  21  22
ENDBRANCH  15  21
ENDBRANCH  14  18
ENDBRANCH  13  14
ENDBRANCH   1  13
TORSDOF 6
ENDMDL
