MODEL 1
REMARK VINA RESULT:    -8.590      0.000      0.000
REMARK INTER + INTRA:         -13.117
REMARK INTER:                 -12.105
REMARK INTRA:                  -1.012
REMARK UNBOUND:                -1.012
REMARK  Name = 
REMARK  8 active torsions:
REMARK  status: ('A' for Active; 'I' for Inactive)
REMARK    1  A    between atoms: C_1  and  C_2
REMARK    2  A    between atoms: C_5  and  C_6
REMARK    3  A    between atoms: C_6  and  O_7
REMARK    4  A    between atoms: O_7  and  C_8
REMARK    5  A    between atoms: C_8  and  C_9
REMARK    6  A    between atoms: C_12  and  C_13
REMARK    7  A    between atoms: C_13  and  N_14
REMARK    8  A    between atoms: C_15  and  C_17
REMARK                            x       y       z     vdW  Elec       q    Type
REMARK                         _______ _______ _______ _____ _____    ______ ____
ROOT
ATOM      1  C   UNL     1      44.503   5.176  11.875  0.00  0.00    +0.000 A 
ATOM      2  C   UNL     1      44.992   4.678  13.091  0.00  0.00    +0.000 A 
ATOM      3  C   UNL     1      46.193   5.154  13.628  0.00  0.00    +0.000 A 
ATOM      4  C   UNL     1      46.924   6.147  12.964  0.00  0.00    +0.000 A 
ATOM      5  C   UNL     1      46.454   6.619  11.732  0.00  0.00    +0.000 A 
ATOM      6  C   UNL     1      45.253   6.143  11.195  0.00  0.00    +0.000 A 
ENDROOT
BRANCH   1   7
ATOM      7  C   UNL     1      43.195   4.673  11.319  0.00  0.00    +0.000 C 
BRANCH   7   8
ATOM      8  O   UNL     1      43.449   4.100  10.041  0.00  0.00    +0.000 OA
BRANCH   8   9
ATOM      9  C   UNL     1      44.167   2.869  10.136  0.00  0.00    +0.000 C 
BRANCH   9  14
ATOM     10  C   UNL     1      47.958   2.196   5.840  0.00  0.00    +0.000 C 
ATOM     11  C   UNL     1      46.980   2.425   6.948  0.00  0.00    +0.000 A 
ATOM     12  C   UNL     1      46.426   3.680   7.190  0.00  0.00    +0.000 A 
ATOM     13  C   UNL     1      45.510   3.840   8.226  0.00  0.00    +0.000 A 
ATOM     14  C   UNL     1      45.153   2.734   8.996  0.00  0.00    +0.000 A 
ATOM     15  N   UNL     1      45.698   1.508   8.793  0.00  0.00    +0.000 NA
ATOM     16  C   UNL     1      46.586   1.383   7.779  0.00  0.00    +0.000 A 
ENDBRANCH   9  14
ENDBRANCH   8   9
ENDBRANCH   7   8
ENDBRANCH   1   7
BRANCH   4  17
ATOM     17  C   UNL     1      48.213   6.674  13.539  0.00  0.00    +0.000 C 
BRANCH  17  18
ATOM     18  N   UNL     1      48.138   6.771  14.973  0.00  0.00    +0.000 N 
ATOM     19  C   UNL     1      49.268   6.799  15.749  0.00  0.00    +0.000 C 
ATOM     20  O   UNL     1      50.395   6.780  15.260  0.00  0.00    +0.000 OA
ATOM     21  H   UNL     1      47.243   6.558  15.401  0.00  0.00    +0.000 HD
BRANCH  19  22
ATOM     22  C   UNL     1      49.063   6.915  17.198  0.00  0.00    +0.000 A 
ATOM     23  C   UNL     1      48.889   8.167  17.770  0.00  0.00    +0.000 A 
ATOM     24  S   UNL     1      48.611   8.118  19.453  0.00  0.00    +0.000 S 
ATOM     25  C   UNL     1      48.771   6.423  19.480  0.00  0.00    +0.000 A 
ATOM     26  N   UNL     1      48.664   5.734  20.647  0.00  0.00    +0.000 NA
ATOM     27  C   UNL     1      48.837   4.458  20.534  0.00  0.00    +0.000 A 
ATOM     28  N   UNL     1      49.094   3.811  19.351  0.00  0.00    +0.000 N 
ATOM     29  C   UNL     1      49.177   4.463  18.146  0.00  0.00    +0.000 A 
ATOM     30  O   UNL     1      49.366   3.847  17.102  0.00  0.00    +0.000 OA
ATOM     31  C   UNL     1      49.007   5.901  18.224  0.00  0.00    +0.000 A 
ATOM     32  H   UNL     1      49.210   2.807  19.325  0.00  0.00    +0.000 HD
ENDBRANCH  19  22
ENDBRANCH  17  18
ENDBRANCH   4  17
TORSDOF 7
ENDMDL
MODEL 2
REMARK VINA RESULT:    -8.213      1.392      2.055
REMARK INTER + INTRA:         -12.586
REMARK INTER:                 -11.484
REMARK INTRA:                  -1.102
REMARK UNBOUND:                -1.012
REMARK  Name = 
REMARK  8 active torsions:
REMARK  status: ('A' for Active; 'I' for Inactive)
REMARK    1  A    between atoms: C_1  and  C_2
REMARK    2  A    between atoms: C_5  and  C_6
REMARK    3  A    between atoms: C_6  and  O_7
REMARK    4  A    between atoms: O_7  and  C_8
REMARK    5  A    between atoms: C_8  and  C_9
REMARK    6  A    between atoms: C_12  and  C_13
REMARK    7  A    between atoms: C_13  and  N_14
REMARK    8  A    between atoms: C_15  and  C_17
REMARK                            x       y       z     vdW  Elec       q    Type
REMARK                         _______ _______ _______ _____ _____    ______ ____
ROOT
ATOM      1  C   UNL     1      44.634   5.321  12.064  0.00  0.00    +0.000 A 
ATOM      2  C   UNL     1      45.138   4.623  13.170  0.00  0.00    +0.000 A 
ATOM      3  C   UNL     1      46.303   5.052  13.816  0.00  0.00    +0.000 A 
ATOM      4  C   UNL     1      46.980   6.195  13.375  0.00  0.00    +0.000 A 
ATOM      5  C   UNL     1      46.495   6.873  12.249  0.00  0.00    +0.000 A 
ATOM      6  C   UNL     1      45.331   6.444  11.602  0.00  0.00    +0.000 A 
ENDROOT
BRANCH   1   7
ATOM      7  C   UNL     1      43.364   4.864  11.392  0.00  0.00    +0.000 C 
BRANCH   7   8
ATOM      8  O   UNL     1      43.692   4.430  10.076  0.00  0.00    +0.000 OA
BRANCH   8   9
ATOM      9  C   UNL     1      44.166   3.084  10.056  0.00  0.00    +0.000 C 
BRANCH   9  14
ATOM     10  C   UNL     1      47.967   2.154   5.817  0.00  0.00    +0.000 C 
ATOM     11  C   UNL     1      46.986   2.449   6.906  0.00  0.00    +0.000 A 
ATOM     12  C   UNL     1      46.425   3.714   7.065  0.00  0.00    +0.000 A 
ATOM     13  C   UNL     1      45.506   3.935   8.088  0.00  0.00    +0.000 A 
ATOM     14  C   UNL     1      45.155   2.880   8.928  0.00  0.00    +0.000 A 
ATOM     15  N   UNL     1      45.708   1.646   8.806  0.00  0.00    +0.000 NA
ATOM     16  C   UNL     1      46.598   1.462   7.803  0.00  0.00    +0.000 A 
ENDBRANCH   9  14
ENDBRANCH   8   9
ENDBRANCH   7   8
ENDBRANCH   1   7
BRANCH   4  17
ATOM     17  C   UNL     1      48.228   6.671  14.071  0.00  0.00    +0.000 C 
BRANCH  17  18
ATOM     18  N   UNL     1      48.112   6.528  15.498  0.00  0.00    +0.000 N 
ATOM     19  C   UNL     1      49.214   6.332  16.290  0.00  0.00    +0.000 C 
ATOM     20  O   UNL     1      50.352   6.306  15.828  0.00  0.00    +0.000 OA
ATOM     21  H   UNL     1      47.189   6.318  15.864  0.00  0.00    +0.000 HD
BRANCH  19  22
ATOM     22  C   UNL     1      48.969   6.215  17.733  0.00  0.00    +0.000 A 
ATOM     23  C   UNL     1      49.282   5.035  18.390  0.00  0.00    +0.000 A 
ATOM     24  S   UNL     1      48.983   5.087  20.069  0.00  0.00    +0.000 S 
ATOM     25  C   UNL     1      48.372   6.672  19.962  0.00  0.00    +0.000 A 
ATOM     26  N   UNL     1      47.910   7.315  21.067  0.00  0.00    +0.000 NA
ATOM     27  C   UNL     1      47.445   8.500  20.843  0.00  0.00    +0.000 A 
ATOM     28  N   UNL     1      47.415   9.102  19.610  0.00  0.00    +0.000 N 
ATOM     29  C   UNL     1      47.901   8.503  18.475  0.00  0.00    +0.000 A 
ATOM     30  O   UNL     1      47.897   9.088  17.396  0.00  0.00    +0.000 OA
ATOM     31  C   UNL     1      48.418   7.162  18.672  0.00  0.00    +0.000 A 
ATOM     32  H   UNL     1      47.047  10.037  19.500  0.00  0.00    +0.000 HD
ENDBRANCH  19  22
ENDBRANCH  17  18
ENDBRANCH   4  17
TORSDOF 7
ENDMDL
MODEL 3
REMARK VINA RESULT:    -7.972      2.427      3.088
REMARK INTER + INTRA:         -12.247
REMARK INTER:                 -11.349
REMARK INTRA:                  -0.898
REMARK UNBOUND:                -1.012
REMARK  Name = 
REMARK  8 active torsions:
REMARK  status: ('A' for Active; 'I' for Inactive)
REMARK    1  A    between atoms: C_1  and  C_2
REMARK    2  A    between atoms: C_5  and  C_6
REMARK    3  A    between atoms: C_6  and  O_7
REMARK    4  A    between atoms: O_7  and  C_8
REMARK    5  A    between atoms: C_8  and  C_9
REMARK    6  A    between atoms: C_12  and  C_13
REMARK    7  A    between atoms: C_13  and  N_14
REMARK    8  A    between atoms: C_15  and  C_17
REMARK                            x       y       z     vdW  Elec       q    Type
REMARK                         _______ _______ _______ _____ _____    ______ ____
ROOT
ATOM      1  C   UNL     1      46.153   4.884  13.158  0.00  0.00    +0.000 A 
ATOM      2  C   UNL     1      46.586   4.345  14.379  0.00  0.00    +0.000 A 
ATOM      3  C   UNL     1      47.516   5.026  15.172  0.00  0.00    +0.000 A 
ATOM      4  C   UNL     1      48.025   6.265  14.765  0.00  0.00    +0.000 A 
ATOM      5  C   UNL     1      47.619   6.787  13.530  0.00  0.00    +0.000 A 
ATOM      6  C   UNL     1      46.689   6.107  12.737  0.00  0.00    +0.000 A 
ENDROOT
BRANCH   1   7
ATOM      7  C   UNL     1      45.131   4.154  12.325  0.00  0.00    +0.000 C 
BRANCH   7   8
ATOM      8  O   UNL     1      44.969   4.864  11.103  0.00  0.00    +0.000 OA
BRANCH   8   9
ATOM      9  C   UNL     1      44.247   4.106  10.132  0.00  0.00    +0.000 C 
BRANCH   9  14
ATOM     10  C   UNL     1      47.836   2.074   6.098  0.00  0.00    +0.000 C 
ATOM     11  C   UNL     1      46.890   2.549   7.154  0.00  0.00    +0.000 A 
ATOM     12  C   UNL     1      46.271   1.666   8.036  0.00  0.00    +0.000 A 
ATOM     13  C   UNL     1      45.407   2.159   9.010  0.00  0.00    +0.000 A 
ATOM     14  C   UNL     1      45.186   3.533   9.092  0.00  0.00    +0.000 A 
ATOM     15  N   UNL     1      45.760   4.408   8.228  0.00  0.00    +0.000 NA
ATOM     16  C   UNL     1      46.594   3.900   7.291  0.00  0.00    +0.000 A 
ENDBRANCH   9  14
ENDBRANCH   8   9
ENDBRANCH   7   8
ENDBRANCH   1   7
BRANCH   4  17
ATOM     17  C   UNL     1      49.018   7.011  15.617  0.00  0.00    +0.000 C 
BRANCH  17  18
ATOM     18  N   UNL     1      50.031   6.125  16.127  0.00  0.00    +0.000 N 
ATOM     19  C   UNL     1      50.164   5.888  17.471  0.00  0.00    +0.000 C 
ATOM     20  O   UNL     1      49.407   6.389  18.299  0.00  0.00    +0.000 OA
ATOM     21  H   UNL     1      50.794   5.890  15.500  0.00  0.00    +0.000 HD
BRANCH  19  22
ATOM     22  C   UNL     1      51.224   4.953  17.868  0.00  0.00    +0.000 A 
ATOM     23  C   UNL     1      52.366   5.433  18.493  0.00  0.00    +0.000 A 
ATOM     24  S   UNL     1      53.472   4.210  18.932  0.00  0.00    +0.000 S 
ATOM     25  C   UNL     1      52.484   3.003  18.249  0.00  0.00    +0.000 A 
ATOM     26  N   UNL     1      52.868   1.699  18.266  0.00  0.00    +0.000 NA
ATOM     27  C   UNL     1      52.043   0.890  17.689  0.00  0.00    +0.000 A 
ATOM     28  N   UNL     1      50.861   1.272  17.106  0.00  0.00    +0.000 N 
ATOM     29  C   UNL     1      50.418   2.571  17.096  0.00  0.00    +0.000 A 
ATOM     30  O   UNL     1      49.335   2.869  16.603  0.00  0.00    +0.000 OA
ATOM     31  C   UNL     1      51.320   3.521  17.718  0.00  0.00    +0.000 A 
ATOM     32  H   UNL     1      50.251   0.589  16.677  0.00  0.00    +0.000 HD
ENDBRANCH  19  22
ENDBRANCH  17  18
ENDBRANCH   4  17
TORSDOF 7
ENDMDL
MODEL 4
REMARK VINA RESULT:    -7.493      1.675      2.099
REMARK INTER + INTRA:         -11.571
REMARK INTER:                 -10.435
REMARK INTRA:                  -1.136
REMARK UNBOUND:                -1.012
REMARK  Name = 
REMARK  8 active torsions:
REMARK  status: ('A' for Active; 'I' for Inactive)
REMARK    1  A    between atoms: C_1  and  C_2
REMARK    2  A    between atoms: C_5  and  C_6
REMARK    3  A    between atoms: C_6  and  O_7
REMARK    4  A    between atoms: O_7  and  C_8
REMARK    5  A    between atoms: C_8  and  C_9
REMARK    6  A    between atoms: C_12  and  C_13
REMARK    7  A    between atoms: C_13  and  N_14
REMARK    8  A    between atoms: C_15  and  C_17
REMARK                            x       y       z     vdW  Elec       q    Type
REMARK                         _______ _______ _______ _____ _____    ______ ____
ROOT
ATOM      1  C   UNL     1      45.443   6.804  11.777  0.00  0.00    +0.000 A 
ATOM      2  C   UNL     1      45.193   8.018  12.433  0.00  0.00    +0.000 A 
ATOM      3  C   UNL     1      46.213   8.683  13.122  0.00  0.00    +0.000 A 
ATOM      4  C   UNL     1      47.508   8.152  13.158  0.00  0.00    +0.000 A 
ATOM      5  C   UNL     1      47.750   6.923  12.532  0.00  0.00    +0.000 A 
ATOM      6  C   UNL     1      46.730   6.258  11.844  0.00  0.00    +0.000 A 
ENDROOT
BRANCH   1   7
ATOM      7  C   UNL     1      44.342   6.111  11.017  0.00  0.00    +0.000 C 
BRANCH   7   8
ATOM      8  O   UNL     1      44.605   4.712  11.037  0.00  0.00    +0.000 OA
BRANCH   8   9
ATOM      9  C   UNL     1      43.982   4.032   9.947  0.00  0.00    +0.000 C 
BRANCH   9  14
ATOM     10  C   UNL     1      47.950   2.073   6.247  0.00  0.00    +0.000 C 
ATOM     11  C   UNL     1      46.907   2.528   7.216  0.00  0.00    +0.000 A 
ATOM     12  C   UNL     1      46.265   1.639   8.075  0.00  0.00    +0.000 A 
ATOM     13  C   UNL     1      45.309   2.114   8.968  0.00  0.00    +0.000 A 
ATOM     14  C   UNL     1      45.021   3.478   8.996  0.00  0.00    +0.000 A 
ATOM     15  N   UNL     1      45.618   4.358   8.152  0.00  0.00    +0.000 NA
ATOM     16  C   UNL     1      46.542   3.867   7.294  0.00  0.00    +0.000 A 
ENDBRANCH   9  14
ENDBRANCH   8   9
ENDBRANCH   7   8
ENDBRANCH   1   7
BRANCH   4  17
ATOM     17  C   UNL     1      48.617   8.866  13.887  0.00  0.00    +0.000 C 
BRANCH  17  18
ATOM     18  N   UNL     1      48.990   8.158  15.083  0.00  0.00    +0.000 N 
ATOM     19  C   UNL     1      50.247   7.632  15.241  0.00  0.00    +0.000 C 
ATOM     20  O   UNL     1      51.122   7.770  14.390  0.00  0.00    +0.000 OA
ATOM     21  H   UNL     1      48.236   7.839  15.682  0.00  0.00    +0.000 HD
BRANCH  19  22
ATOM     22  C   UNL     1      50.512   6.946  16.511  0.00  0.00    +0.000 A 
ATOM     23  C   UNL     1      51.584   7.344  17.297  0.00  0.00    +0.000 A 
ATOM     24  S   UNL     1      51.718   6.478  18.761  0.00  0.00    +0.000 S 
ATOM     25  C   UNL     1      50.380   5.502  18.364  0.00  0.00    +0.000 A 
ATOM     26  N   UNL     1      49.966   4.516  19.203  0.00  0.00    +0.000 NA
ATOM     27  C   UNL     1      48.960   3.831  18.770  0.00  0.00    +0.000 A 
ATOM     28  N   UNL     1      48.325   4.056  17.574  0.00  0.00    +0.000 N 
ATOM     29  C   UNL     1      48.688   5.061  16.713  0.00  0.00    +0.000 A 
ATOM     30  O   UNL     1      48.069   5.260  15.672  0.00  0.00    +0.000 OA
ATOM     31  C   UNL     1      49.825   5.848  17.148  0.00  0.00    +0.000 A 
ATOM     32  H   UNL     1      47.535   3.490  17.293  0.00  0.00    +0.000 HD
ENDBRANCH  19  22
ENDBRANCH  17  18
ENDBRANCH   4  17
TORSDOF 7
ENDMDL
MODEL 5
REMARK VINA RESULT:    -6.985      4.841      9.753
REMARK INTER + INTRA:         -10.855
REMARK INTER:                  -9.965
REMARK INTRA:                  -0.890
REMARK UNBOUND:                -1.012
REMARK  Name = 
REMARK  8 active torsions:
REMARK  status: ('A' for Active; 'I' for Inactive)
REMARK    1  A    between atoms: C_1  and  C_2
REMARK    2  A    between atoms: C_5  and  C_6
REMARK    3  A    between atoms: C_6  and  O_7
REMARK    4  A    between atoms: O_7  and  C_8
REMARK    5  A    between atoms: C_8  and  C_9
REMARK    6  A    between atoms: C_12  and  C_13
REMARK    7  A    between atoms: C_13  and  N_14
REMARK    8  A    between atoms: C_15  and  C_17
REMARK                            x       y       z     vdW  Elec       q    Type
REMARK                         _______ _______ _______ _____ _____    ______ ____
ROOT
ATOM      1  C   UNL     1      51.608   3.335  17.914  0.00  0.00    +0.000 A 
ATOM      2  C   UNL     1      51.000   2.202  17.353  0.00  0.00    +0.000 A 
ATOM      3  C   UNL     1      49.633   2.196  17.057  0.00  0.00    +0.000 A 
ATOM      4  C   UNL     1      48.847   3.327  17.307  0.00  0.00    +0.000 A 
ATOM      5  C   UNL     1      49.447   4.447  17.899  0.00  0.00    +0.000 A 
ATOM      6  C   UNL     1      50.814   4.453  18.195  0.00  0.00    +0.000 A 
ENDROOT
BRANCH   1   7
ATOM      7  C   UNL     1      53.087   3.339  18.204  0.00  0.00    +0.000 C 
BRANCH   7   8
ATOM      8  O   UNL     1      53.338   2.389  19.234  0.00  0.00    +0.000 OA
BRANCH   8   9
ATOM      9  C   UNL     1      54.677   1.896  19.197  0.00  0.00    +0.000 C 
BRANCH   9  14
ATOM     10  C   UNL     1      54.894  -3.314  16.730  0.00  0.00    +0.000 C 
ATOM     11  C   UNL     1      54.857  -1.942  17.323  0.00  0.00    +0.000 A 
ATOM     12  C   UNL     1      55.030  -0.801  16.543  0.00  0.00    +0.000 A 
ATOM     13  C   UNL     1      54.975   0.455  17.140  0.00  0.00    +0.000 A 
ATOM     14  C   UNL     1      54.735   0.549  18.510  0.00  0.00    +0.000 A 
ATOM     15  N   UNL     1      54.588  -0.551  19.293  0.00  0.00    +0.000 NA
ATOM     16  C   UNL     1      54.647  -1.758  18.685  0.00  0.00    +0.000 A 
ENDBRANCH   9  14
ENDBRANCH   8   9
ENDBRANCH   7   8
ENDBRANCH   1   7
BRANCH   4  17
ATOM     17  C   UNL     1      47.376   3.334  16.982  0.00  0.00    +0.000 C 
BRANCH  17  18
ATOM     18  N   UNL     1      47.059   4.374  16.039  0.00  0.00    +0.000 N 
ATOM     19  C   UNL     1      47.105   4.153  14.687  0.00  0.00    +0.000 C 
ATOM     20  O   UNL     1      47.381   3.053  14.216  0.00  0.00    +0.000 OA
ATOM     21  H   UNL     1      47.056   5.327  16.391  0.00  0.00    +0.000 HD
BRANCH  19  22
ATOM     22  C   UNL     1      46.745   5.288  13.828  0.00  0.00    +0.000 A 
ATOM     23  C   UNL     1      47.598   6.378  13.735  0.00  0.00    +0.000 A 
ATOM     24  S   UNL     1      47.055   7.583  12.655  0.00  0.00    +0.000 S 
ATOM     25  C   UNL     1      45.632   6.711  12.320  0.00  0.00    +0.000 A 
ATOM     26  N   UNL     1      44.697   7.207  11.467  0.00  0.00    +0.000 NA
ATOM     27  C   UNL     1      43.652   6.461  11.324  0.00  0.00    +0.000 A 
ATOM     28  N   UNL     1      43.467   5.255  11.952  0.00  0.00    +0.000 N 
ATOM     29  C   UNL     1      44.398   4.701  12.794  0.00  0.00    +0.000 A 
ATOM     30  O   UNL     1      44.218   3.599  13.304  0.00  0.00    +0.000 OA
ATOM     31  C   UNL     1      45.584   5.510  13.000  0.00  0.00    +0.000 A 
ATOM     32  H   UNL     1      42.630   4.711  11.791  0.00  0.00    +0.000 HD
ENDBRANCH  19  22
ENDBRANCH  17  18
ENDBRANCH   4  17
TORSDOF 7
ENDMDL
MODEL 6
REMARK VINA RESULT:    -6.816      2.973      9.030
REMARK INTER + INTRA:         -10.617
REMARK INTER:                  -9.233
REMARK INTRA:                  -1.385
REMARK UNBOUND:                -1.012
REMARK  Name = 
REMARK  8 active torsions:
REMARK  status: ('A' for Active; 'I' for Inactive)
REMARK    1  A    between atoms: C_1  and  C_2
REMARK    2  A    between atoms: C_5  and  C_6
REMARK    3  A    between atoms: C_6  and  O_7
REMARK    4  A    between atoms: O_7  and  C_8
REMARK    5  A    between atoms: C_8  and  C_9
REMARK    6  A    between atoms: C_12  and  C_13
REMARK    7  A    between atoms: C_13  and  N_14
REMARK    8  A    between atoms: C_15  and  C_17
REMARK                            x       y       z     vdW  Elec       q    Type
REMARK                         _______ _______ _______ _____ _____    ______ ____
ROOT
ATOM      1  C   UNL     1      50.195   8.276  14.397  0.00  0.00    +0.000 A 
ATOM      2  C   UNL     1      50.234   7.658  13.138  0.00  0.00    +0.000 A 
ATOM      3  C   UNL     1      49.099   7.626  12.321  0.00  0.00    +0.000 A 
ATOM      4  C   UNL     1      47.904   8.222  12.742  0.00  0.00    +0.000 A 
ATOM      5  C   UNL     1      47.855   8.810  14.013  0.00  0.00    +0.000 A 
ATOM      6  C   UNL     1      48.990   8.842  14.830  0.00  0.00    +0.000 A 
ENDROOT
BRANCH   1   7
ATOM      7  C   UNL     1      51.432   8.326  15.257  0.00  0.00    +0.000 C 
BRANCH   7   8
ATOM      8  O   UNL     1      51.744   6.997  15.660  0.00  0.00    +0.000 OA
BRANCH   8   9
ATOM      9  C   UNL     1      51.454   6.771  17.040  0.00  0.00    +0.000 C 
BRANCH   9  14
ATOM     10  C   UNL     1      47.332   2.774  17.605  0.00  0.00    +0.000 C 
ATOM     11  C   UNL     1      48.361   3.848  17.448  0.00  0.00    +0.000 A 
ATOM     12  C   UNL     1      48.013   5.195  17.390  0.00  0.00    +0.000 A 
ATOM     13  C   UNL     1      49.010   6.158  17.255  0.00  0.00    +0.000 A 
ATOM     14  C   UNL     1      50.343   5.755  17.194  0.00  0.00    +0.000 A 
ATOM     15  N   UNL     1      50.702   4.446  17.226  0.00  0.00    +0.000 NA
ATOM     16  C   UNL     1      49.712   3.533  17.356  0.00  0.00    +0.000 A 
ENDBRANCH   9  14
ENDBRANCH   8   9
ENDBRANCH   7   8
ENDBRANCH   1   7
BRANCH   4  17
ATOM     17  C   UNL     1      46.679   8.203  11.865  0.00  0.00    +0.000 C 
BRANCH  17  18
ATOM     18  N   UNL     1      46.210   6.859  11.660  0.00  0.00    +0.000 N 
ATOM     19  C   UNL     1      44.879   6.586  11.474  0.00  0.00    +0.000 C 
ATOM     20  O   UNL     1      44.031   7.473  11.436  0.00  0.00    +0.000 OA
ATOM     21  H   UNL     1      46.844   6.108  11.914  0.00  0.00    +0.000 HD
BRANCH  19  22
ATOM     22  C   UNL     1      44.525   5.177  11.260  0.00  0.00    +0.000 A 
ATOM     23  C   UNL     1      43.768   4.506  12.210  0.00  0.00    +0.000 A 
ATOM     24  S   UNL     1      43.404   2.895  11.781  0.00  0.00    +0.000 S 
ATOM     25  C   UNL     1      44.296   3.025  10.337  0.00  0.00    +0.000 A 
ATOM     26  N   UNL     1      44.411   1.965   9.493  0.00  0.00    +0.000 NA
ATOM     27  C   UNL     1      45.139   2.188   8.449  0.00  0.00    +0.000 A 
ATOM     28  N   UNL     1      45.753   3.383   8.171  0.00  0.00    +0.000 N 
ATOM     29  C   UNL     1      45.636   4.488   8.977  0.00  0.00    +0.000 A 
ATOM     30  O   UNL     1      46.164   5.554   8.674  0.00  0.00    +0.000 OA
ATOM     31  C   UNL     1      44.841   4.283  10.172  0.00  0.00    +0.000 A 
ATOM     32  H   UNL     1      46.304   3.499   7.331  0.00  0.00    +0.000 HD
ENDBRANCH  19  22
ENDBRANCH  17  18
ENDBRANCH   4  17
TORSDOF 7
ENDMDL
MODEL 7
REMARK VINA RESULT:    -6.789      2.583      3.452
REMARK INTER + INTRA:         -10.579
REMARK INTER:                  -9.731
REMARK INTRA:                  -0.848
REMARK UNBOUND:                -1.012
REMARK  Name = 
REMARK  8 active torsions:
REMARK  status: ('A' for Active; 'I' for Inactive)
REMARK    1  A    between atoms: C_1  and  C_2
REMARK    2  A    between atoms: C_5  and  C_6
REMARK    3  A    between atoms: C_6  and  O_7
REMARK    4  A    between atoms: O_7  and  C_8
REMARK    5  A    between atoms: C_8  and  C_9
REMARK    6  A    between atoms: C_12  and  C_13
REMARK    7  A    between atoms: C_13  and  N_14
REMARK    8  A    between atoms: C_15  and  C_17
REMARK                            x       y       z     vdW  Elec       q    Type
REMARK                         _______ _______ _______ _____ _____    ______ ____
ROOT
ATOM      1  C   UNL     1      45.127   4.933  12.322  0.00  0.00    +0.000 A 
ATOM      2  C   UNL     1      45.392   6.059  11.529  0.00  0.00    +0.000 A 
ATOM      3  C   UNL     1      46.419   6.947  11.868  0.00  0.00    +0.000 A 
ATOM      4  C   UNL     1      47.209   6.719  13.002  0.00  0.00    +0.000 A 
ATOM      5  C   UNL     1      46.923   5.613  13.812  0.00  0.00    +0.000 A 
ATOM      6  C   UNL     1      45.896   4.725  13.473  0.00  0.00    +0.000 A 
ENDROOT
BRANCH   1   7
ATOM      7  C   UNL     1      44.035   3.970  11.932  0.00  0.00    +0.000 C 
BRANCH   7   8
ATOM      8  O   UNL     1      44.607   2.969  11.096  0.00  0.00    +0.000 OA
BRANCH   8   9
ATOM      9  C   UNL     1      44.033   2.967   9.789  0.00  0.00    +0.000 C 
BRANCH   9  14
ATOM     10  C   UNL     1      48.052   2.280   5.707  0.00  0.00    +0.000 C 
ATOM     11  C   UNL     1      47.011   2.404   6.774  0.00  0.00    +0.000 A 
ATOM     12  C   UNL     1      46.712   1.349   7.633  0.00  0.00    +0.000 A 
ATOM     13  C   UNL     1      45.743   1.518   8.619  0.00  0.00    +0.000 A 
ATOM     14  C   UNL     1      45.098   2.748   8.736  0.00  0.00    +0.000 A 
ATOM     15  N   UNL     1      45.357   3.781   7.894  0.00  0.00    +0.000 NA
ATOM     16  C   UNL     1      46.303   3.587   6.946  0.00  0.00    +0.000 A 
ENDBRANCH   9  14
ENDBRANCH   8   9
ENDBRANCH   7   8
ENDBRANCH   1   7
BRANCH   4  17
ATOM     17  C   UNL     1      48.325   7.663  13.369  0.00  0.00    +0.000 C 
BRANCH  17  18
ATOM     18  N   UNL     1      49.314   7.005  14.182  0.00  0.00    +0.000 N 
ATOM     19  C   UNL     1      49.677   7.499  15.408  0.00  0.00    +0.000 C 
ATOM     20  O   UNL     1      49.153   8.501  15.888  0.00  0.00    +0.000 OA
ATOM     21  H   UNL     1      49.910   6.327  13.719  0.00  0.00    +0.000 HD
BRANCH  19  22
ATOM     22  C   UNL     1      50.685   6.731  16.149  0.00  0.00    +0.000 A 
ATOM     23  C   UNL     1      50.281   5.799  17.094  0.00  0.00    +0.000 A 
ATOM     24  S   UNL     1      51.575   4.959  17.823  0.00  0.00    +0.000 S 
ATOM     25  C   UNL     1      52.721   5.856  16.939  0.00  0.00    +0.000 A 
ATOM     26  N   UNL     1      54.053   5.644  17.111  0.00  0.00    +0.000 NA
ATOM     27  C   UNL     1      54.814   6.411  16.403  0.00  0.00    +0.000 A 
ATOM     28  N   UNL     1      54.356   7.364  15.527  0.00  0.00    +0.000 N 
ATOM     29  C   UNL     1      53.022   7.588  15.298  0.00  0.00    +0.000 A 
ATOM     30  O   UNL     1      52.650   8.420  14.475  0.00  0.00    +0.000 OA
ATOM     31  C   UNL     1      52.126   6.762  16.084  0.00  0.00    +0.000 A 
ATOM     32  H   UNL     1      55.003   7.928  14.993  0.00  0.00    +0.000 HD
ENDBRANCH  19  22
ENDBRANCH  17  18
ENDBRANCH   4  17
TORSDOF 7
ENDMDL
MODEL 8
REMARK VINA RESULT:    -6.566      4.870      8.365
REMARK INTER + INTRA:         -10.266
REMARK INTER:                  -9.280
REMARK INTRA:                  -0.986
REMARK UNBOUND:                -1.012
REMARK  Name = 
REMARK  8 active torsions:
REMARK  status: ('A' for Active; 'I' for Inactive)
REMARK    1  A    between atoms: C_1  and  C_2
REMARK    2  A    between atoms: C_5  and  C_6
REMARK    3  A    between atoms: C_6  and  O_7
REMARK    4  A    between atoms: O_7  and  C_8
REMARK    5  A    between atoms: C_8  and  C_9
REMARK    6  A    between atoms: C_12  and  C_13
REMARK    7  A    between atoms: C_13  and  N_14
REMARK    8  A    between atoms: C_15  and  C_17
REMARK                            x       y       z     vdW  Elec       q    Type
REMARK                         _______ _______ _______ _____ _____    ______ ____
ROOT
ATOM      1  C   UNL     1      50.416   8.901  11.601  0.00  0.00    +0.000 A 
ATOM      2  C   UNL     1      49.841   7.631  11.451  0.00  0.00    +0.000 A 
ATOM      3  C   UNL     1      48.522   7.391  11.852  0.00  0.00    +0.000 A 
ATOM      4  C   UNL     1      47.748   8.421  12.401  0.00  0.00    +0.000 A 
ATOM      5  C   UNL     1      48.334   9.681  12.582  0.00  0.00    +0.000 A 
ATOM      6  C   UNL     1      49.653   9.921  12.181  0.00  0.00    +0.000 A 
ENDROOT
BRANCH   1   7
ATOM      7  C   UNL     1      51.830   9.154  11.141  0.00  0.00    +0.000 C 
BRANCH   7   8
ATOM      8  O   UNL     1      52.528   7.914  11.162  0.00  0.00    +0.000 OA
BRANCH   8   9
ATOM      9  C   UNL     1      53.730   7.961  10.391  0.00  0.00    +0.000 C 
BRANCH   9  14
ATOM     10  C   UNL     1      53.837   3.858   6.337  0.00  0.00    +0.000 C 
ATOM     11  C   UNL     1      53.771   4.948   7.359  0.00  0.00    +0.000 A 
ATOM     12  C   UNL     1      52.749   5.894   7.356  0.00  0.00    +0.000 A 
ATOM     13  C   UNL     1      52.724   6.882   8.337  0.00  0.00    +0.000 A 
ATOM     14  C   UNL     1      53.718   6.898   9.314  0.00  0.00    +0.000 A 
ATOM     15  N   UNL     1      54.736   5.999   9.321  0.00  0.00    +0.000 NA
ATOM     16  C   UNL     1      54.734   5.051   8.355  0.00  0.00    +0.000 A 
ENDBRANCH   9  14
ENDBRANCH   8   9
ENDBRANCH   7   8
ENDBRANCH   1   7
BRANCH   4  17
ATOM     17  C   UNL     1      46.324   8.176  12.825  0.00  0.00    +0.000 C 
BRANCH  17  18
ATOM     18  N   UNL     1      45.910   6.836  12.501  0.00  0.00    +0.000 N 
ATOM     19  C   UNL     1      44.806   6.596  11.725  0.00  0.00    +0.000 C 
ATOM     20  O   UNL     1      44.140   7.506  11.238  0.00  0.00    +0.000 OA
ATOM     21  H   UNL     1      46.296   6.088  13.068  0.00  0.00    +0.000 HD
BRANCH  19  22
ATOM     22  C   UNL     1      44.495   5.187  11.452  0.00  0.00    +0.000 A 
ATOM     23  C   UNL     1      43.761   4.454  12.374  0.00  0.00    +0.000 A 
ATOM     24  S   UNL     1      43.444   2.852  11.878  0.00  0.00    +0.000 S 
ATOM     25  C   UNL     1      44.328   3.070  10.439  0.00  0.00    +0.000 A 
ATOM     26  N   UNL     1      44.472   2.050   9.551  0.00  0.00    +0.000 NA
ATOM     27  C   UNL     1      45.190   2.339   8.516  0.00  0.00    +0.000 A 
ATOM     28  N   UNL     1      45.767   3.563   8.288  0.00  0.00    +0.000 N 
ATOM     29  C   UNL     1      45.619   4.629   9.140  0.00  0.00    +0.000 A 
ATOM     30  O   UNL     1      46.113   5.722   8.882  0.00  0.00    +0.000 OA
ATOM     31  C   UNL     1      44.834   4.350  10.327  0.00  0.00    +0.000 A 
ATOM     32  H   UNL     1      46.311   3.731   7.452  0.00  0.00    +0.000 HD
ENDBRANCH  19  22
ENDBRANCH  17  18
ENDBRANCH   4  17
TORSDOF 7
ENDMDL
MODEL 9
REMARK VINA RESULT:    -6.550      4.982      6.474
REMARK INTER + INTRA:         -10.243
REMARK INTER:                  -9.314
REMARK INTRA:                  -0.929
REMARK UNBOUND:                -1.012
REMARK  Name = 
REMARK  8 active torsions:
REMARK  status: ('A' for Active; 'I' for Inactive)
REMARK    1  A    between atoms: C_1  and  C_2
REMARK    2  A    between atoms: C_5  and  C_6
REMARK    3  A    between atoms: C_6  and  O_7
REMARK    4  A    between atoms: O_7  and  C_8
REMARK    5  A    between atoms: C_8  and  C_9
REMARK    6  A    between atoms: C_12  and  C_13
REMARK    7  A    between atoms: C_13  and  N_14
REMARK    8  A    between atoms: C_15  and  C_17
REMARK                            x       y       z     vdW  Elec       q    Type
REMARK                         _______ _______ _______ _____ _____    ______ ____
ROOT
ATOM      1  C   UNL     1      45.394   7.624  11.896  0.00  0.00    +0.000 A 
ATOM      2  C   UNL     1      45.053   8.978  11.765  0.00  0.00    +0.000 A 
ATOM      3  C   UNL     1      45.981   9.982  12.062  0.00  0.00    +0.000 A 
ATOM      4  C   UNL     1      47.273   9.651  12.487  0.00  0.00    +0.000 A 
ATOM      5  C   UNL     1      47.603   8.299  12.651  0.00  0.00    +0.000 A 
ATOM      6  C   UNL     1      46.675   7.295  12.354  0.00  0.00    +0.000 A 
ENDROOT
BRANCH   1   7
ATOM      7  C   UNL     1      44.393   6.552  11.548  0.00  0.00    +0.000 C 
BRANCH   7   8
ATOM      8  O   UNL     1      45.096   5.473  10.941  0.00  0.00    +0.000 OA
BRANCH   8   9
ATOM      9  C   UNL     1      44.256   4.696  10.087  0.00  0.00    +0.000 C 
BRANCH   9  14
ATOM     10  C   UNL     1      47.448   1.575   6.433  0.00  0.00    +0.000 C 
ATOM     11  C   UNL     1      46.596   2.338   7.397  0.00  0.00    +0.000 A 
ATOM     12  C   UNL     1      45.842   1.696   8.376  0.00  0.00    +0.000 A 
ATOM     13  C   UNL     1      45.074   2.451   9.258  0.00  0.00    +0.000 A 
ATOM     14  C   UNL     1      45.084   3.841   9.152  0.00  0.00    +0.000 A 
ATOM     15  N   UNL     1      45.793   4.485   8.189  0.00  0.00    +0.000 NA
ATOM     16  C   UNL     1      46.529   3.725   7.346  0.00  0.00    +0.000 A 
ENDBRANCH   9  14
ENDBRANCH   8   9
ENDBRANCH   7   8
ENDBRANCH   1   7
BRANCH   4  17
ATOM     17  C   UNL     1      48.283  10.724  12.799  0.00  0.00    +0.000 C 
BRANCH  17  18
ATOM     18  N   UNL     1      49.539  10.459  12.147  0.00  0.00    +0.000 N 
ATOM     19  C   UNL     1      49.769  10.849  10.853  0.00  0.00    +0.000 C 
ATOM     20  O   UNL     1      48.935  11.473  10.202  0.00  0.00    +0.000 OA
ATOM     21  H   UNL     1      50.139   9.760  12.573  0.00  0.00    +0.000 HD
BRANCH  19  22
ATOM     22  C   UNL     1      51.094  10.536  10.303  0.00  0.00    +0.000 A 
ATOM     23  C   UNL     1      51.805  11.513   9.622  0.00  0.00    +0.000 A 
ATOM     24  S   UNL     1      53.345  10.998   9.096  0.00  0.00    +0.000 S 
ATOM     25  C   UNL     1      53.087   9.432   9.712  0.00  0.00    +0.000 A 
ATOM     26  N   UNL     1      54.032   8.466   9.571  0.00  0.00    +0.000 NA
ATOM     27  C   UNL     1      53.699   7.315  10.056  0.00  0.00    +0.000 A 
ATOM     28  N   UNL     1      52.505   7.052  10.681  0.00  0.00    +0.000 N 
ATOM     29  C   UNL     1      51.537   8.006  10.874  0.00  0.00    +0.000 A 
ATOM     30  O   UNL     1      50.500   7.745  11.475  0.00  0.00    +0.000 OA
ATOM     31  C   UNL     1      51.858   9.312  10.331  0.00  0.00    +0.000 A 
ATOM     32  H   UNL     1      52.306   6.132  11.049  0.00  0.00    +0.000 HD
ENDBRANCH  19  22
ENDBRANCH  17  18
ENDBRANCH   4  17
TORSDOF 7
ENDMDL
