MODEL 1
REMARK VINA RESULT:    -8.372      0.000      0.000
REMARK INTER + INTRA:         -13.673
REMARK INTER:                 -12.288
REMARK INTRA:                  -1.386
REMARK UNBOUND:                -1.386
REMARK  Name = 
REMARK  10 active torsions:
REMARK  status: ('A' for Active; 'I' for Inactive)
REMARK    1  A    between atoms: C_1  and  O_2
REMARK    2  A    between atoms: O_2  and  C_3
REMARK    3  A    between atoms: C_10  and  C_11
REMARK    4  A    between atoms: N_13  and  C_14
REMARK    5  A    between atoms: C_14  and  C_15
REMARK    6  A    between atoms: C_18  and  C_19
REMARK    7  A    between atoms: C_19  and  N_20
REMARK    8  A    between atoms: N_20  and  C_21
REMARK    9  A    between atoms: N_20  and  C_22
REMARK   10  A    between atoms: C_22  and  C_23
REMARK                            x       y       z     vdW  Elec       q    Type
REMARK                         _______ _______ _______ _____ _____    ______ ____
ROOT
ATOM      1  C   UNL     1      47.274   8.416  13.216  0.00  0.00    +0.000 C 
ENDROOT
BRANCH   1   2
ATOM      2  C   UNL     1      46.396   7.582  12.318  0.00  0.00    +0.000 A 
ATOM      3  C   UNL     1      46.953   6.729  11.356  0.00  0.00    +0.000 A 
ATOM      4  C   UNL     1      46.138   5.857  10.622  0.00  0.00    +0.000 A 
ATOM      5  C   UNL     1      44.759   5.804  10.856  0.00  0.00    +0.000 A 
ATOM      6  C   UNL     1      44.194   6.727  11.744  0.00  0.00    +0.000 A 
ATOM      7  C   UNL     1      45.004   7.623  12.455  0.00  0.00    +0.000 A 
BRANCH   5   8
ATOM      8  C   UNL     1      43.894   4.709  10.236  0.00  0.00    +0.000 C 
BRANCH   8   9
ATOM      9  N   UNL     1      44.410   3.350  10.503  0.00  0.00    +0.000 NA
ATOM     10  C   UNL     1      43.738   2.734  11.661  0.00  0.00    +0.000 C 
BRANCH   9  11
ATOM     11  C   UNL     1      44.262   2.464   9.323  0.00  0.00    +0.000 C 
BRANCH  11  12
ATOM     12  C   UNL     1      45.450   2.453   8.376  0.00  0.00    +0.000 A 
ATOM     13  C   UNL     1      45.823   3.599   7.660  0.00  0.00    +0.000 A 
ATOM     14  C   UNL     1      46.868   3.550   6.732  0.00  0.00    +0.000 A 
ATOM     15  C   UNL     1      47.583   2.369   6.542  0.00  0.00    +0.000 A 
ATOM     16  C   UNL     1      47.268   1.242   7.294  0.00  0.00    +0.000 A 
ATOM     17  C   UNL     1      46.205   1.280   8.202  0.00  0.00    +0.000 A 
ENDBRANCH  11  12
ENDBRANCH   9  11
ENDBRANCH   8   9
ENDBRANCH   5   8
ENDBRANCH   1   2
BRANCH   1  20
ATOM     18  C   UNL     1      48.598   7.022  14.731  0.00  0.00    +0.000 C 
ATOM     19  O   UNL     1      49.417   6.802  13.849  0.00  0.00    +0.000 OA
ATOM     20  N   UNL     1      47.490   7.798  14.499  0.00  0.00    +0.000 N 
ATOM     21  H   UNL     1      46.785   7.927  15.214  0.00  0.00    +0.000 HD
BRANCH  18  29
ATOM     22  C   UNL     1      47.878   3.964  16.174  0.00  0.00    +0.000 A 
ATOM     23  N   UNL     1      47.646   2.919  16.993  0.00  0.00    +0.000 NA
ATOM     24  C   UNL     1      47.978   3.043  18.282  0.00  0.00    +0.000 A 
ATOM     25  N   UNL     1      48.529   4.101  18.864  0.00  0.00    +0.000 NA
ATOM     26  C   UNL     1      48.725   5.126  18.017  0.00  0.00    +0.000 A 
ATOM     27  S   UNL     1      49.430   6.559  18.593  0.00  0.00    +0.000 S 
ATOM     28  C   UNL     1      49.326   7.285  17.061  0.00  0.00    +0.000 A 
ATOM     29  C   UNL     1      48.762   6.467  16.086  0.00  0.00    +0.000 A 
ATOM     30  C   UNL     1      48.421   5.167  16.658  0.00  0.00    +0.000 A 
BRANCH  22  32
ATOM     31  C   UNL     1      46.314   4.399  14.507  0.00  0.00    +0.000 C 
ATOM     32  O   UNL     1      47.571   3.808  14.836  0.00  0.00    +0.000 OA
ENDBRANCH  22  32
ENDBRANCH  18  29
ENDBRANCH   1  20
TORSDOF 8
ENDMDL
MODEL 2
REMARK VINA RESULT:    -7.601      1.486      2.183
REMARK INTER + INTRA:         -12.542
REMARK INTER:                 -11.354
REMARK INTRA:                  -1.187
REMARK UNBOUND:                -1.386
REMARK  Name = 
REMARK  10 active torsions:
REMARK  status: ('A' for Active; 'I' for Inactive)
REMARK    1  A    between atoms: C_1  and  O_2
REMARK    2  A    between atoms: O_2  and  C_3
REMARK    3  A    between atoms: C_10  and  C_11
REMARK    4  A    between atoms: N_13  and  C_14
REMARK    5  A    between atoms: C_14  and  C_15
REMARK    6  A    between atoms: C_18  and  C_19
REMARK    7  A    between atoms: C_19  and  N_20
REMARK    8  A    between atoms: N_20  and  C_21
REMARK    9  A    between atoms: N_20  and  C_22
REMARK   10  A    between atoms: C_22  and  C_23
REMARK                            x       y       z     vdW  Elec       q    Type
REMARK                         _______ _______ _______ _____ _____    ______ ____
ROOT
ATOM      1  C   UNL     1      49.363   7.285  13.907  0.00  0.00    +0.000 C 
ENDROOT
BRANCH   1   2
ATOM      2  C   UNL     1      48.213   6.623  13.193  0.00  0.00    +0.000 A 
ATOM      3  C   UNL     1      47.528   5.546  13.772  0.00  0.00    +0.000 A 
ATOM      4  C   UNL     1      46.376   5.027  13.166  0.00  0.00    +0.000 A 
ATOM      5  C   UNL     1      45.875   5.592  11.987  0.00  0.00    +0.000 A 
ATOM      6  C   UNL     1      46.617   6.599  11.358  0.00  0.00    +0.000 A 
ATOM      7  C   UNL     1      47.788   7.098  11.947  0.00  0.00    +0.000 A 
BRANCH   5   8
ATOM      8  C   UNL     1      44.506   5.195  11.440  0.00  0.00    +0.000 C 
BRANCH   8   9
ATOM      9  N   UNL     1      44.491   3.832  10.867  0.00  0.00    +0.000 NA
ATOM     10  C   UNL     1      43.481   2.982  11.523  0.00  0.00    +0.000 C 
BRANCH   9  11
ATOM     11  C   UNL     1      44.238   3.853   9.406  0.00  0.00    +0.000 C 
BRANCH  11  12
ATOM     12  C   UNL     1      45.283   3.140   8.564  0.00  0.00    +0.000 A 
ATOM     13  C   UNL     1      45.483   1.756   8.668  0.00  0.00    +0.000 A 
ATOM     14  C   UNL     1      46.504   1.127   7.948  0.00  0.00    +0.000 A 
ATOM     15  C   UNL     1      47.307   1.865   7.080  0.00  0.00    +0.000 A 
ATOM     16  C   UNL     1      47.077   3.228   6.916  0.00  0.00    +0.000 A 
ATOM     17  C   UNL     1      46.075   3.864   7.657  0.00  0.00    +0.000 A 
ENDBRANCH  11  12
ENDBRANCH   9  11
ENDBRANCH   8   9
ENDBRANCH   5   8
ENDBRANCH   1   2
BRANCH   1  20
ATOM     18  C   UNL     1      48.683   7.956  16.161  0.00  0.00    +0.000 C 
ATOM     19  O   UNL     1      48.161   8.973  15.726  0.00  0.00    +0.000 OA
ATOM     20  N   UNL     1      49.321   7.070  15.331  0.00  0.00    +0.000 N 
ATOM     21  H   UNL     1      49.803   6.261  15.704  0.00  0.00    +0.000 HD
BRANCH  18  29
ATOM     22  C   UNL     1      48.722   5.002  17.956  0.00  0.00    +0.000 A 
ATOM     23  N   UNL     1      48.657   4.027  18.884  0.00  0.00    +0.000 NA
ATOM     24  C   UNL     1      48.551   4.385  20.168  0.00  0.00    +0.000 A 
ATOM     25  N   UNL     1      48.506   5.621  20.648  0.00  0.00    +0.000 NA
ATOM     26  C   UNL     1      48.554   6.561  19.689  0.00  0.00    +0.000 A 
ATOM     27  S   UNL     1      48.516   8.201  20.129  0.00  0.00    +0.000 S 
ATOM     28  C   UNL     1      48.592   8.689  18.504  0.00  0.00    +0.000 A 
ATOM     29  C   UNL     1      48.650   7.633  17.598  0.00  0.00    +0.000 A 
ATOM     30  C   UNL     1      48.646   6.359  18.314  0.00  0.00    +0.000 A 
BRANCH  22  32
ATOM     31  C   UNL     1      48.203   3.392  16.359  0.00  0.00    +0.000 C 
ATOM     32  O   UNL     1      48.876   4.620  16.638  0.00  0.00    +0.000 OA
ENDBRANCH  22  32
ENDBRANCH  18  29
ENDBRANCH   1  20
TORSDOF 8
ENDMDL
MODEL 3
REMARK VINA RESULT:    -7.286      2.412      3.910
REMARK INTER + INTRA:         -12.079
REMARK INTER:                 -10.711
REMARK INTRA:                  -1.368
REMARK UNBOUND:                -1.386
REMARK  Name = 
REMARK  10 active torsions:
REMARK  status: ('A' for Active; 'I' for Inactive)
REMARK    1  A    between atoms: C_1  and  O_2
REMARK    2  A    between atoms: O_2  and  C_3
REMARK    3  A    between atoms: C_10  and  C_11
REMARK    4  A    between atoms: N_13  and  C_14
REMARK    5  A    between atoms: C_14  and  C_15
REMARK    6  A    between atoms: C_18  and  C_19
REMARK    7  A    between atoms: C_19  and  N_20
REMARK    8  A    between atoms: N_20  and  C_21
REMARK    9  A    between atoms: N_20  and  C_22
REMARK   10  A    between atoms: C_22  and  C_23
REMARK                            x       y       z     vdW  Elec       q    Type
REMARK                         _______ _______ _______ _____ _____    ______ ____
ROOT
ATOM      1  C   UNL     1      47.760   4.355  16.216  0.00  0.00    +0.000 C 
ENDROOT
BRANCH   1   2
ATOM      2  C   UNL     1      47.270   4.576  14.808  0.00  0.00    +0.000 A 
ATOM      3  C   UNL     1      46.792   3.509  14.036  0.00  0.00    +0.000 A 
ATOM      4  C   UNL     1      46.210   3.743  12.782  0.00  0.00    +0.000 A 
ATOM      5  C   UNL     1      46.074   5.047  12.293  0.00  0.00    +0.000 A 
ATOM      6  C   UNL     1      46.644   6.099  13.020  0.00  0.00    +0.000 A 
ATOM      7  C   UNL     1      47.254   5.863  14.260  0.00  0.00    +0.000 A 
BRANCH   5   8
ATOM      8  C   UNL     1      45.244   5.340  11.045  0.00  0.00    +0.000 C 
BRANCH   8   9
ATOM      9  N   UNL     1      44.384   4.206  10.648  0.00  0.00    +0.000 NA
ATOM     10  C   UNL     1      43.042   4.310  11.249  0.00  0.00    +0.000 C 
BRANCH   9  11
ATOM     11  C   UNL     1      44.253   4.104   9.174  0.00  0.00    +0.000 C 
BRANCH  11  12
ATOM     12  C   UNL     1      45.344   3.297   8.489  0.00  0.00    +0.000 A 
ATOM     13  C   UNL     1      46.265   3.904   7.624  0.00  0.00    +0.000 A 
ATOM     14  C   UNL     1      47.211   3.136   6.938  0.00  0.00    +0.000 A 
ATOM     15  C   UNL     1      47.278   1.759   7.143  0.00  0.00    +0.000 A 
ATOM     16  C   UNL     1      46.414   1.152   8.049  0.00  0.00    +0.000 A 
ATOM     17  C   UNL     1      45.449   1.914   8.714  0.00  0.00    +0.000 A 
ENDBRANCH  11  12
ENDBRANCH   9  11
ENDBRANCH   8   9
ENDBRANCH   5   8
ENDBRANCH   1   2
BRANCH   1  20
ATOM     18  C   UNL     1      48.280   5.739  18.168  0.00  0.00    +0.000 C 
ATOM     19  O   UNL     1      49.208   5.002  18.471  0.00  0.00    +0.000 OA
ATOM     20  N   UNL     1      47.494   5.483  17.073  0.00  0.00    +0.000 N 
ATOM     21  H   UNL     1      46.690   6.062  16.861  0.00  0.00    +0.000 HD
BRANCH  18  29
ATOM     22  C   UNL     1      48.082   9.112  17.438  0.00  0.00    +0.000 A 
ATOM     23  N   UNL     1      48.002  10.458  17.452  0.00  0.00    +0.000 NA
ATOM     24  C   UNL     1      47.721  11.060  18.612  0.00  0.00    +0.000 A 
ATOM     25  N   UNL     1      47.503  10.473  19.781  0.00  0.00    +0.000 NA
ATOM     26  C   UNL     1      47.612   9.135  19.727  0.00  0.00    +0.000 A 
ATOM     27  S   UNL     1      47.354   8.221  21.136  0.00  0.00    +0.000 S 
ATOM     28  C   UNL     1      47.663   6.769  20.310  0.00  0.00    +0.000 A 
ATOM     29  C   UNL     1      47.963   6.940  18.961  0.00  0.00    +0.000 A 
ATOM     30  C   UNL     1      47.913   8.357  18.611  0.00  0.00    +0.000 A 
BRANCH  22  32
ATOM     31  C   UNL     1      49.726   8.411  15.949  0.00  0.00    +0.000 C 
ATOM     32  O   UNL     1      48.328   8.499  16.225  0.00  0.00    +0.000 OA
ENDBRANCH  22  32
ENDBRANCH  18  29
ENDBRANCH   1  20
TORSDOF 8
ENDMDL
MODEL 4
REMARK VINA RESULT:    -7.277      1.862      2.190
REMARK INTER + INTRA:         -12.066
REMARK INTER:                 -10.705
REMARK INTRA:                  -1.361
REMARK UNBOUND:                -1.386
REMARK  Name = 
REMARK  10 active torsions:
REMARK  status: ('A' for Active; 'I' for Inactive)
REMARK    1  A    between atoms: C_1  and  O_2
REMARK    2  A    between atoms: O_2  and  C_3
REMARK    3  A    between atoms: C_10  and  C_11
REMARK    4  A    between atoms: N_13  and  C_14
REMARK    5  A    between atoms: C_14  and  C_15
REMARK    6  A    between atoms: C_18  and  C_19
REMARK    7  A    between atoms: C_19  and  N_20
REMARK    8  A    between atoms: N_20  and  C_21
REMARK    9  A    between atoms: N_20  and  C_22
REMARK   10  A    between atoms: C_22  and  C_23
REMARK                            x       y       z     vdW  Elec       q    Type
REMARK                         _______ _______ _______ _____ _____    ______ ____
ROOT
ATOM      1  C   UNL     1      49.098   8.049  13.015  0.00  0.00    +0.000 C 
ENDROOT
BRANCH   1   2
ATOM      2  C   UNL     1      47.755   7.448  12.692  0.00  0.00    +0.000 A 
ATOM      3  C   UNL     1      46.660   8.261  12.369  0.00  0.00    +0.000 A 
ATOM      4  C   UNL     1      45.455   7.692  11.935  0.00  0.00    +0.000 A 
ATOM      5  C   UNL     1      45.333   6.305  11.792  0.00  0.00    +0.000 A 
ATOM      6  C   UNL     1      46.393   5.492  12.211  0.00  0.00    +0.000 A 
ATOM      7  C   UNL     1      47.588   6.059  12.676  0.00  0.00    +0.000 A 
BRANCH   5   8
ATOM      8  C   UNL     1      44.117   5.684  11.108  0.00  0.00    +0.000 C 
BRANCH   8   9
ATOM      9  N   UNL     1      44.327   4.269  10.738  0.00  0.00    +0.000 NA
ATOM     10  C   UNL     1      43.449   3.372  11.510  0.00  0.00    +0.000 C 
BRANCH   9  11
ATOM     11  C   UNL     1      44.106   4.041   9.289  0.00  0.00    +0.000 C 
BRANCH  11  12
ATOM     12  C   UNL     1      45.214   3.276   8.585  0.00  0.00    +0.000 A 
ATOM     13  C   UNL     1      46.107   3.920   7.716  0.00  0.00    +0.000 A 
ATOM     14  C   UNL     1      47.069   3.187   7.012  0.00  0.00    +0.000 A 
ATOM     15  C   UNL     1      47.182   1.812   7.203  0.00  0.00    +0.000 A 
ATOM     16  C   UNL     1      46.346   1.169   8.112  0.00  0.00    +0.000 A 
ATOM     17  C   UNL     1      45.365   1.894   8.795  0.00  0.00    +0.000 A 
ENDBRANCH  11  12
ENDBRANCH   9  11
ENDBRANCH   8   9
ENDBRANCH   5   8
ENDBRANCH   1   2
BRANCH   1  20
ATOM     18  C   UNL     1      50.605   7.904  14.939  0.00  0.00    +0.000 C 
ATOM     19  O   UNL     1      50.749   9.119  14.947  0.00  0.00    +0.000 OA
ATOM     20  N   UNL     1      49.819   7.284  14.001  0.00  0.00    +0.000 N 
ATOM     21  H   UNL     1      49.752   6.275  13.961  0.00  0.00    +0.000 HD
BRANCH  18  29
ATOM     22  C   UNL     1      49.565   5.244  16.886  0.00  0.00    +0.000 A 
ATOM     23  N   UNL     1      49.417   4.255  17.790  0.00  0.00    +0.000 NA
ATOM     24  C   UNL     1      50.471   3.929  18.545  0.00  0.00    +0.000 A 
ATOM     25  N   UNL     1      51.680   4.475  18.503  0.00  0.00    +0.000 NA
ATOM     26  C   UNL     1      51.778   5.467  17.603  0.00  0.00    +0.000 A 
ATOM     27  S   UNL     1      53.262   6.272  17.410  0.00  0.00    +0.000 S 
ATOM     28  C   UNL     1      52.611   7.291  16.217  0.00  0.00    +0.000 A 
ATOM     29  C   UNL     1      51.269   7.047  15.937  0.00  0.00    +0.000 A 
ATOM     30  C   UNL     1      50.778   5.941  16.755  0.00  0.00    +0.000 A 
BRANCH  22  32
ATOM     31  C   UNL     1      47.566   4.450  16.000  0.00  0.00    +0.000 C 
ATOM     32  O   UNL     1      48.483   5.542  16.081  0.00  0.00    +0.000 OA
ENDBRANCH  22  32
ENDBRANCH  18  29
ENDBRANCH   1  20
TORSDOF 8
ENDMDL
MODEL 5
REMARK VINA RESULT:    -7.041      2.545      3.726
REMARK INTER + INTRA:         -11.720
REMARK INTER:                 -10.587
REMARK INTRA:                  -1.133
REMARK UNBOUND:                -1.386
REMARK  Name = 
REMARK  10 active torsions:
REMARK  status: ('A' for Active; 'I' for Inactive)
REMARK    1  A    between atoms: C_1  and  O_2
REMARK    2  A    between atoms: O_2  and  C_3
REMARK    3  A    between atoms: C_10  and  C_11
REMARK    4  A    between atoms: N_13  and  C_14
REMARK    5  A    between atoms: C_14  and  C_15
REMARK    6  A    between atoms: C_18  and  C_19
REMARK    7  A    between atoms: C_19  and  N_20
REMARK    8  A    between atoms: N_20  and  C_21
REMARK    9  A    between atoms: N_20  and  C_22
REMARK   10  A    between atoms: C_22  and  C_23
REMARK                            x       y       z     vdW  Elec       q    Type
REMARK                         _______ _______ _______ _____ _____    ______ ____
ROOT
ATOM      1  C   UNL     1      47.816   4.617  16.185  0.00  0.00    +0.000 C 
ENDROOT
BRANCH   1   2
ATOM      2  C   UNL     1      47.318   4.761  14.769  0.00  0.00    +0.000 A 
ATOM      3  C   UNL     1      46.766   3.670  14.085  0.00  0.00    +0.000 A 
ATOM      4  C   UNL     1      46.180   3.844  12.824  0.00  0.00    +0.000 A 
ATOM      5  C   UNL     1      46.113   5.113  12.239  0.00  0.00    +0.000 A 
ATOM      6  C   UNL     1      46.755   6.181  12.878  0.00  0.00    +0.000 A 
ATOM      7  C   UNL     1      47.370   6.002  14.126  0.00  0.00    +0.000 A 
BRANCH   5   8
ATOM      8  C   UNL     1      45.283   5.362  10.982  0.00  0.00    +0.000 C 
BRANCH   8   9
ATOM      9  N   UNL     1      44.629   4.137  10.475  0.00  0.00    +0.000 NA
ATOM     10  C   UNL     1      43.274   3.979  11.033  0.00  0.00    +0.000 C 
BRANCH   9  11
ATOM     11  C   UNL     1      44.552   4.127   8.994  0.00  0.00    +0.000 C 
BRANCH  11  12
ATOM     12  C   UNL     1      45.547   3.206   8.307  0.00  0.00    +0.000 A 
ATOM     13  C   UNL     1      46.410   3.680   7.308  0.00  0.00    +0.000 A 
ATOM     14  C   UNL     1      47.262   2.803   6.629  0.00  0.00    +0.000 A 
ATOM     15  C   UNL     1      47.297   1.452   6.971  0.00  0.00    +0.000 A 
ATOM     16  C   UNL     1      46.495   0.981   8.006  0.00  0.00    +0.000 A 
ATOM     17  C   UNL     1      45.621   1.849   8.667  0.00  0.00    +0.000 A 
ENDBRANCH  11  12
ENDBRANCH   9  11
ENDBRANCH   8   9
ENDBRANCH   5   8
ENDBRANCH   1   2
BRANCH   1  20
ATOM     18  C   UNL     1      49.481   6.243  16.944  0.00  0.00    +0.000 C 
ATOM     19  O   UNL     1      50.393   5.488  16.635  0.00  0.00    +0.000 OA
ATOM     20  N   UNL     1      48.168   5.884  16.774  0.00  0.00    +0.000 N 
ATOM     21  H   UNL     1      47.418   6.488  17.087  0.00  0.00    +0.000 HD
BRANCH  18  29
ATOM     22  C   UNL     1      47.867   8.229  19.267  0.00  0.00    +0.000 A 
ATOM     23  N   UNL     1      47.421   9.216  20.069  0.00  0.00    +0.000 NA
ATOM     24  C   UNL     1      48.126  10.350  20.125  0.00  0.00    +0.000 A 
ATOM     25  N   UNL     1      49.248  10.622  19.470  0.00  0.00    +0.000 NA
ATOM     26  C   UNL     1      49.647   9.620  18.668  0.00  0.00    +0.000 A 
ATOM     27  S   UNL     1      51.071   9.797  17.761  0.00  0.00    +0.000 S 
ATOM     28  C   UNL     1      50.883   8.256  17.073  0.00  0.00    +0.000 A 
ATOM     29  C   UNL     1      49.749   7.576  17.512  0.00  0.00    +0.000 A 
ATOM     30  C   UNL     1      49.021   8.389  18.482  0.00  0.00    +0.000 A 
BRANCH  22  32
ATOM     31  C   UNL     1      47.504   6.201  20.349  0.00  0.00    +0.000 C 
ATOM     32  O   UNL     1      47.154   7.046  19.252  0.00  0.00    +0.000 OA
ENDBRANCH  22  32
ENDBRANCH  18  29
ENDBRANCH   1  20
TORSDOF 8
ENDMDL
MODEL 6
REMARK VINA RESULT:    -6.918      2.866      4.023
REMARK INTER + INTRA:         -11.540
REMARK INTER:                 -10.701
REMARK INTRA:                  -0.838
REMARK UNBOUND:                -1.386
REMARK  Name = 
REMARK  10 active torsions:
REMARK  status: ('A' for Active; 'I' for Inactive)
REMARK    1  A    between atoms: C_1  and  O_2
REMARK    2  A    between atoms: O_2  and  C_3
REMARK    3  A    between atoms: C_10  and  C_11
REMARK    4  A    between atoms: N_13  and  C_14
REMARK    5  A    between atoms: C_14  and  C_15
REMARK    6  A    between atoms: C_18  and  C_19
REMARK    7  A    between atoms: C_19  and  N_20
REMARK    8  A    between atoms: N_20  and  C_21
REMARK    9  A    between atoms: N_20  and  C_22
REMARK   10  A    between atoms: C_22  and  C_23
REMARK                            x       y       z     vdW  Elec       q    Type
REMARK                         _______ _______ _______ _____ _____    ______ ____
ROOT
ATOM      1  C   UNL     1      47.550   5.202  16.174  0.00  0.00    +0.000 C 
ENDROOT
BRANCH   1   2
ATOM      2  C   UNL     1      47.213   5.188  14.705  0.00  0.00    +0.000 A 
ATOM      3  C   UNL     1      46.542   4.101  14.130  0.00  0.00    +0.000 A 
ATOM      4  C   UNL     1      46.110   4.155  12.797  0.00  0.00    +0.000 A 
ATOM      5  C   UNL     1      46.318   5.306  12.028  0.00  0.00    +0.000 A 
ATOM      6  C   UNL     1      47.077   6.349  12.573  0.00  0.00    +0.000 A 
ATOM      7  C   UNL     1      47.537   6.282  13.895  0.00  0.00    +0.000 A 
BRANCH   5   8
ATOM      8  C   UNL     1      45.659   5.472  10.660  0.00  0.00    +0.000 C 
BRANCH   8   9
ATOM      9  N   UNL     1      44.732   4.369  10.332  0.00  0.00    +0.000 NA
ATOM     10  C   UNL     1      43.405   4.581  10.937  0.00  0.00    +0.000 C 
BRANCH   9  11
ATOM     11  C   UNL     1      44.579   4.196   8.867  0.00  0.00    +0.000 C 
BRANCH  11  12
ATOM     12  C   UNL     1      45.569   3.236   8.229  0.00  0.00    +0.000 A 
ATOM     13  C   UNL     1      46.466   3.665   7.240  0.00  0.00    +0.000 A 
ATOM     14  C   UNL     1      47.314   2.752   6.604  0.00  0.00    +0.000 A 
ATOM     15  C   UNL     1      47.310   1.410   6.980  0.00  0.00    +0.000 A 
ATOM     16  C   UNL     1      46.472   0.983   8.006  0.00  0.00    +0.000 A 
ATOM     17  C   UNL     1      45.603   1.888   8.624  0.00  0.00    +0.000 A 
ENDBRANCH  11  12
ENDBRANCH   9  11
ENDBRANCH   8   9
ENDBRANCH   5   8
ENDBRANCH   1   2
BRANCH   1  20
ATOM     18  C   UNL     1      48.981   3.673  17.443  0.00  0.00    +0.000 C 
ATOM     19  O   UNL     1      48.039   3.343  18.150  0.00  0.00    +0.000 OA
ATOM     20  N   UNL     1      48.833   4.607  16.448  0.00  0.00    +0.000 N 
ATOM     21  H   UNL     1      49.629   4.920  15.905  0.00  0.00    +0.000 HD
BRANCH  18  29
ATOM     22  C   UNL     1      51.943   4.818  18.808  0.00  0.00    +0.000 A 
ATOM     23  N   UNL     1      53.215   5.023  19.206  0.00  0.00    +0.000 NA
ATOM     24  C   UNL     1      54.098   4.036  19.027  0.00  0.00    +0.000 A 
ATOM     25  N   UNL     1      53.862   2.844  18.493  0.00  0.00    +0.000 NA
ATOM     26  C   UNL     1      52.588   2.688  18.093  0.00  0.00    +0.000 A 
ATOM     27  S   UNL     1      52.109   1.217  17.394  0.00  0.00    +0.000 S 
ATOM     28  C   UNL     1      50.523   1.781  17.174  0.00  0.00    +0.000 A 
ATOM     29  C   UNL     1      50.319   3.083  17.622  0.00  0.00    +0.000 A 
ATOM     30  C   UNL     1      51.554   3.617  18.190  0.00  0.00    +0.000 A 
BRANCH  22  32
ATOM     31  C   UNL     1      50.391   5.685  20.309  0.00  0.00    +0.000 C 
ATOM     32  O   UNL     1      51.030   5.828  19.040  0.00  0.00    +0.000 OA
ENDBRANCH  22  32
ENDBRANCH  18  29
ENDBRANCH   1  20
TORSDOF 8
ENDMDL
MODEL 7
REMARK VINA RESULT:    -6.497      3.236      4.819
REMARK INTER + INTRA:         -10.921
REMARK INTER:                  -9.836
REMARK INTRA:                  -1.085
REMARK UNBOUND:                -1.386
REMARK  Name = 
REMARK  10 active torsions:
REMARK  status: ('A' for Active; 'I' for Inactive)
REMARK    1  A    between atoms: C_1  and  O_2
REMARK    2  A    between atoms: O_2  and  C_3
REMARK    3  A    between atoms: C_10  and  C_11
REMARK    4  A    between atoms: N_13  and  C_14
REMARK    5  A    between atoms: C_14  and  C_15
REMARK    6  A    between atoms: C_18  and  C_19
REMARK    7  A    between atoms: C_19  and  N_20
REMARK    8  A    between atoms: N_20  and  C_21
REMARK    9  A    between atoms: N_20  and  C_22
REMARK   10  A    between atoms: C_22  and  C_23
REMARK                            x       y       z     vdW  Elec       q    Type
REMARK                         _______ _______ _______ _____ _____    ______ ____
ROOT
ATOM      1  C   UNL     1      48.656   6.511  15.258  0.00  0.00    +0.000 C 
ENDROOT
BRANCH   1   2
ATOM      2  C   UNL     1      47.806   6.142  14.069  0.00  0.00    +0.000 A 
ATOM      3  C   UNL     1      47.041   4.968  14.066  0.00  0.00    +0.000 A 
ATOM      4  C   UNL     1      46.150   4.703  13.017  0.00  0.00    +0.000 A 
ATOM      5  C   UNL     1      45.988   5.617  11.971  0.00  0.00    +0.000 A 
ATOM      6  C   UNL     1      46.826   6.738  11.925  0.00  0.00    +0.000 A 
ATOM      7  C   UNL     1      47.742   6.989  12.957  0.00  0.00    +0.000 A 
BRANCH   5   8
ATOM      8  C   UNL     1      44.866   5.459  10.948  0.00  0.00    +0.000 C 
BRANCH   8   9
ATOM      9  N   UNL     1      44.809   4.102  10.364  0.00  0.00    +0.000 NA
ATOM     10  C   UNL     1      43.669   3.333  10.895  0.00  0.00    +0.000 C 
BRANCH   9  11
ATOM     11  C   UNL     1      44.724   4.143   8.884  0.00  0.00    +0.000 C 
BRANCH  11  12
ATOM     12  C   UNL     1      45.713   3.244   8.161  0.00  0.00    +0.000 A 
ATOM     13  C   UNL     1      46.560   3.745   7.162  0.00  0.00    +0.000 A 
ATOM     14  C   UNL     1      47.406   2.889   6.449  0.00  0.00    +0.000 A 
ATOM     15  C   UNL     1      47.450   1.530   6.758  0.00  0.00    +0.000 A 
ATOM     16  C   UNL     1      46.665   1.030   7.792  0.00  0.00    +0.000 A 
ATOM     17  C   UNL     1      45.797   1.879   8.486  0.00  0.00    +0.000 A 
ENDBRANCH  11  12
ENDBRANCH   9  11
ENDBRANCH   8   9
ENDBRANCH   5   8
ENDBRANCH   1   2
BRANCH   1  20
ATOM     18  C   UNL     1      50.904   7.466  15.420  0.00  0.00    +0.000 C 
ATOM     19  O   UNL     1      51.265   6.550  16.147  0.00  0.00    +0.000 OA
ATOM     20  N   UNL     1      49.618   7.537  14.947  0.00  0.00    +0.000 N 
ATOM     21  H   UNL     1      49.309   8.328  14.395  0.00  0.00    +0.000 HD
BRANCH  18  29
ATOM     22  C   UNL     1      51.728   8.904  12.387  0.00  0.00    +0.000 A 
ATOM     23  N   UNL     1      52.278   9.581  11.359  0.00  0.00    +0.000 NA
ATOM     24  C   UNL     1      53.235  10.473  11.632  0.00  0.00    +0.000 A 
ATOM     25  N   UNL     1      53.717  10.782  12.830  0.00  0.00    +0.000 NA
ATOM     26  C   UNL     1      53.156  10.071  13.823  0.00  0.00    +0.000 A 
ATOM     27  S   UNL     1      53.649  10.345  15.425  0.00  0.00    +0.000 S 
ATOM     28  C   UNL     1      52.583   9.159  16.008  0.00  0.00    +0.000 A 
ATOM     29  C   UNL     1      51.833   8.534  15.014  0.00  0.00    +0.000 A 
ATOM     30  C   UNL     1      52.166   9.097  13.708  0.00  0.00    +0.000 A 
BRANCH  22  32
ATOM     31  C   UNL     1      50.903   7.384  10.831  0.00  0.00    +0.000 C 
ATOM     32  O   UNL     1      50.710   8.017  12.096  0.00  0.00    +0.000 OA
ENDBRANCH  22  32
ENDBRANCH  18  29
ENDBRANCH   1  20
TORSDOF 8
ENDMDL
MODEL 8
REMARK VINA RESULT:    -6.219      2.245      3.878
REMARK INTER + INTRA:         -10.514
REMARK INTER:                 -10.468
REMARK INTRA:                  -0.045
REMARK UNBOUND:                -1.386
REMARK  Name = 
REMARK  10 active torsions:
REMARK  status: ('A' for Active; 'I' for Inactive)
REMARK    1  A    between atoms: C_1  and  O_2
REMARK    2  A    between atoms: O_2  and  C_3
REMARK    3  A    between atoms: C_10  and  C_11
REMARK    4  A    between atoms: N_13  and  C_14
REMARK    5  A    between atoms: C_14  and  C_15
REMARK    6  A    between atoms: C_18  and  C_19
REMARK    7  A    between atoms: C_19  and  N_20
REMARK    8  A    between atoms: N_20  and  C_21
REMARK    9  A    between atoms: N_20  and  C_22
REMARK   10  A    between atoms: C_22  and  C_23
REMARK                            x       y       z     vdW  Elec       q    Type
REMARK                         _______ _______ _______ _____ _____    ______ ____
ROOT
ATOM      1  C   UNL     1      47.120   4.961  15.240  0.00  0.00    +0.000 C 
ENDROOT
BRANCH   1   2
ATOM      2  C   UNL     1      46.402   4.823  13.922  0.00  0.00    +0.000 A 
ATOM      3  C   UNL     1      46.186   3.563  13.347  0.00  0.00    +0.000 A 
ATOM      4  C   UNL     1      45.399   3.433  12.195  0.00  0.00    +0.000 A 
ATOM      5  C   UNL     1      44.793   4.553  11.616  0.00  0.00    +0.000 A 
ATOM      6  C   UNL     1      45.093   5.820  12.132  0.00  0.00    +0.000 A 
ATOM      7  C   UNL     1      45.907   5.955  13.266  0.00  0.00    +0.000 A 
BRANCH   5   8
ATOM      8  C   UNL     1      43.755   4.405  10.506  0.00  0.00    +0.000 C 
BRANCH   8   9
ATOM      9  N   UNL     1      44.363   4.211   9.173  0.00  0.00    +0.000 NA
ATOM     10  C   UNL     1      45.659   4.906   9.064  0.00  0.00    +0.000 C 
BRANCH   9  11
ATOM     11  C   UNL     1      44.552   2.775   8.858  0.00  0.00    +0.000 C 
BRANCH  11  12
ATOM     12  C   UNL     1      45.662   2.477   7.864  0.00  0.00    +0.000 A 
ATOM     13  C   UNL     1      46.521   1.382   8.036  0.00  0.00    +0.000 A 
ATOM     14  C   UNL     1      47.589   1.169   7.159  0.00  0.00    +0.000 A 
ATOM     15  C   UNL     1      47.784   2.019   6.072  0.00  0.00    +0.000 A 
ATOM     16  C   UNL     1      46.900   3.071   5.850  0.00  0.00    +0.000 A 
ATOM     17  C   UNL     1      45.849   3.303   6.742  0.00  0.00    +0.000 A 
ENDBRANCH  11  12
ENDBRANCH   9  11
ENDBRANCH   8   9
ENDBRANCH   5   8
ENDBRANCH   1   2
BRANCH   1  20
ATOM     18  C   UNL     1      48.967   6.210  16.250  0.00  0.00    +0.000 C 
ATOM     19  O   UNL     1      48.529   5.995  17.372  0.00  0.00    +0.000 OA
ATOM     20  N   UNL     1      48.320   5.751  15.131  0.00  0.00    +0.000 N 
ATOM     21  H   UNL     1      48.653   5.983  14.203  0.00  0.00    +0.000 HD
BRANCH  18  29
ATOM     22  C   UNL     1      50.278   7.999  13.598  0.00  0.00    +0.000 A 
ATOM     23  N   UNL     1      51.041   8.687  12.726  0.00  0.00    +0.000 NA
ATOM     24  C   UNL     1      52.242   9.107  13.134  0.00  0.00    +0.000 A 
ATOM     25  N   UNL     1      52.783   8.926  14.333  0.00  0.00    +0.000 NA
ATOM     26  C   UNL     1      51.998   8.220  15.164  0.00  0.00    +0.000 A 
ATOM     27  S   UNL     1      52.533   7.903  16.744  0.00  0.00    +0.000 S 
ATOM     28  C   UNL     1      51.117   7.037  17.103  0.00  0.00    +0.000 A 
ATOM     29  C   UNL     1      50.212   6.970  16.046  0.00  0.00    +0.000 A 
ATOM     30  C   UNL     1      50.736   7.697  14.892  0.00  0.00    +0.000 A 
BRANCH  22  32
ATOM     31  C   UNL     1      48.880   7.710  11.761  0.00  0.00    +0.000 C 
ATOM     32  O   UNL     1      49.021   7.608  13.179  0.00  0.00    +0.000 OA
ENDBRANCH  22  32
ENDBRANCH  18  29
ENDBRANCH   1  20
TORSDOF 8
ENDMDL
MODEL 9
REMARK VINA RESULT:    -6.036      3.434      5.678
REMARK INTER + INTRA:         -10.244
REMARK INTER:                  -8.640
REMARK INTRA:                  -1.603
REMARK UNBOUND:                -1.386
REMARK  Name = 
REMARK  10 active torsions:
REMARK  status: ('A' for Active; 'I' for Inactive)
REMARK    1  A    between atoms: C_1  and  O_2
REMARK    2  A    between atoms: O_2  and  C_3
REMARK    3  A    between atoms: C_10  and  C_11
REMARK    4  A    between atoms: N_13  and  C_14
REMARK    5  A    between atoms: C_14  and  C_15
REMARK    6  A    between atoms: C_18  and  C_19
REMARK    7  A    between atoms: C_19  and  N_20
REMARK    8  A    between atoms: N_20  and  C_21
REMARK    9  A    between atoms: N_20  and  C_22
REMARK   10  A    between atoms: C_22  and  C_23
REMARK                            x       y       z     vdW  Elec       q    Type
REMARK                         _______ _______ _______ _____ _____    ______ ____
ROOT
ATOM      1  C   UNL     1      48.549   5.201  17.463  0.00  0.00    +0.000 C 
ENDROOT
BRANCH   1   2
ATOM      2  C   UNL     1      48.257   5.537  16.023  0.00  0.00    +0.000 A 
ATOM      3  C   UNL     1      47.377   4.754  15.264  0.00  0.00    +0.000 A 
ATOM      4  C   UNL     1      47.004   5.151  13.973  0.00  0.00    +0.000 A 
ATOM      5  C   UNL     1      47.484   6.349  13.430  0.00  0.00    +0.000 A 
ATOM      6  C   UNL     1      48.441   7.075  14.149  0.00  0.00    +0.000 A 
ATOM      7  C   UNL     1      48.839   6.662  15.428  0.00  0.00    +0.000 A 
BRANCH   5   8
ATOM      8  C   UNL     1      46.916   6.910  12.128  0.00  0.00    +0.000 C 
BRANCH   8   9
ATOM      9  N   UNL     1      45.653   7.653  12.326  0.00  0.00    +0.000 NA
ATOM     10  C   UNL     1      45.846   9.103  12.145  0.00  0.00    +0.000 C 
BRANCH   9  11
ATOM     11  C   UNL     1      44.589   7.182  11.408  0.00  0.00    +0.000 C 
BRANCH  11  12
ATOM     12  C   UNL     1      44.171   5.734  11.599  0.00  0.00    +0.000 A 
ATOM     13  C   UNL     1      43.625   5.286  12.811  0.00  0.00    +0.000 A 
ATOM     14  C   UNL     1      43.323   3.933  12.999  0.00  0.00    +0.000 A 
ATOM     15  C   UNL     1      43.518   3.020  11.965  0.00  0.00    +0.000 A 
ATOM     16  C   UNL     1      43.997   3.461  10.734  0.00  0.00    +0.000 A 
ATOM     17  C   UNL     1      44.327   4.808  10.553  0.00  0.00    +0.000 A 
ENDBRANCH  11  12
ENDBRANCH   9  11
ENDBRANCH   8   9
ENDBRANCH   5   8
ENDBRANCH   1   2
BRANCH   1  20
ATOM     18  C   UNL     1      49.965   3.214  17.669  0.00  0.00    +0.000 C 
ATOM     19  O   UNL     1      48.987   2.482  17.596  0.00  0.00    +0.000 OA
ATOM     20  N   UNL     1      49.838   4.580  17.631  0.00  0.00    +0.000 N 
ATOM     21  H   UNL     1      50.644   5.182  17.752  0.00  0.00    +0.000 HD
BRANCH  18  29
ATOM     22  C   UNL     1      52.941   4.450  18.918  0.00  0.00    +0.000 A 
ATOM     23  N   UNL     1      54.220   4.694  19.267  0.00  0.00    +0.000 NA
ATOM     24  C   UNL     1      55.126   3.734  19.054  0.00  0.00    +0.000 A 
ATOM     25  N   UNL     1      54.905   2.534  18.530  0.00  0.00    +0.000 NA
ATOM     26  C   UNL     1      53.623   2.340  18.179  0.00  0.00    +0.000 A 
ATOM     27  S   UNL     1      53.162   0.853  17.500  0.00  0.00    +0.000 S 
ATOM     28  C   UNL     1      51.551   1.369  17.342  0.00  0.00    +0.000 A 
ATOM     29  C   UNL     1      51.326   2.665  17.797  0.00  0.00    +0.000 A 
ATOM     30  C   UNL     1      52.566   3.237  18.316  0.00  0.00    +0.000 A 
BRANCH  22  32
ATOM     31  C   UNL     1      52.539   6.741  18.970  0.00  0.00    +0.000 C 
ATOM     32  O   UNL     1      52.008   5.432  19.184  0.00  0.00    +0.000 OA
ENDBRANCH  22  32
ENDBRANCH  18  29
ENDBRANCH   1  20
TORSDOF 8
ENDMDL
