MODEL 1
REMARK VINA RESULT:    -7.602      0.000      0.000
REMARK INTER + INTRA:         -10.370
REMARK INTER:                  -9.824
REMARK INTRA:                  -0.547
REMARK UNBOUND:                -0.547
REMARK  Name = 
REMARK  8 active torsions:
REMARK  status: ('A' for Active; 'I' for Inactive)
REMARK    1  A    between atoms: C_1  and  C_2
REMARK    2  A    between atoms: C_2  and  C_3
REMARK    3  A    between atoms: C_2  and  C_4
REMARK    4  A    between atoms: C_2  and  C_5
REMARK    5  A    between atoms: C_8  and  C_9
REMARK    6  A    between atoms: C_9  and  O_10
REMARK    7  A    between atoms: O_10  and  C_11
REMARK    8  A    between atoms: C_15  and  C_16
REMARK                            x       y       z     vdW  Elec       q    Type
REMARK                         _______ _______ _______ _____ _____    ______ ____
ROOT
ATOM      1  O   UNL     1      44.216   5.922  11.293  0.00  0.00    +0.000 OA
ENDROOT
BRANCH   1   2
ATOM      2  C   UNL     1      45.422   5.957  11.964  0.00  0.00    +0.000 A 
ATOM      3  C   UNL     1      46.324   6.950  11.608  0.00  0.00    +0.000 A 
ATOM      4  C   UNL     1      47.541   7.011  12.286  0.00  0.00    +0.000 A 
ATOM      5  C   UNL     1      47.814   6.087  13.291  0.00  0.00    +0.000 A 
ATOM      6  C   UNL     1      46.848   5.134  13.576  0.00  0.00    +0.000 A 
ATOM      7  N   UNL     1      45.658   5.047  12.930  0.00  0.00    +0.000 NA
BRANCH   6   8
ATOM      8  C   UNL     1      47.066   4.127  14.661  0.00  0.00    +0.000 C 
ATOM      9  N   UNL     1      46.739   4.554  15.921  0.00  0.00    +0.000 N 
ATOM     10  O   UNL     1      47.508   3.006  14.446  0.00  0.00    +0.000 OA
ATOM     11  H   UNL     1      46.390   5.496  16.055  0.00  0.00    +0.000 HD
ATOM     12  H   UNL     1      46.878   3.940  16.711  0.00  0.00    +0.000 HD
ENDBRANCH   6   8
ENDBRANCH   1   2
BRANCH   1  13
ATOM     13  C   UNL     1      43.767   4.579  11.101  0.00  0.00    +0.000 C 
BRANCH  13  17
ATOM     14  C   UNL     1      46.044   2.718   7.902  0.00  0.00    +0.000 A 
ATOM     15  C   UNL     1      45.907   4.114   7.991  0.00  0.00    +0.000 A 
ATOM     16  C   UNL     1      45.150   4.712   9.002  0.00  0.00    +0.000 A 
ATOM     17  C   UNL     1      44.511   3.930   9.964  0.00  0.00    +0.000 A 
ATOM     18  C   UNL     1      44.605   2.539   9.873  0.00  0.00    +0.000 A 
ATOM     19  C   UNL     1      45.362   1.943   8.859  0.00  0.00    +0.000 A 
BRANCH  14  21
ATOM     20  C   UNL     1      48.371   2.569   6.819  0.00  0.00    +0.000 C 
ATOM     21  C   UNL     1      46.919   2.043   6.830  0.00  0.00    +0.000 C 
ATOM     22  C   UNL     1      46.334   2.284   5.422  0.00  0.00    +0.000 C 
ATOM     23  C   UNL     1      46.976   0.521   7.086  0.00  0.00    +0.000 C 
ENDBRANCH  14  21
ENDBRANCH  13  17
ENDBRANCH   1  13
TORSDOF 5
ENDMDL
MODEL 2
REMARK VINA RESULT:    -7.424      1.610      2.785
REMARK INTER + INTRA:         -10.140
REMARK INTER:                  -9.215
REMARK INTRA:                  -0.925
REMARK UNBOUND:                -0.547
REMARK  Name = 
REMARK  8 active torsions:
REMARK  status: ('A' for Active; 'I' for Inactive)
REMARK    1  A    between atoms: C_1  and  C_2
REMARK    2  A    between atoms: C_2  and  C_3
REMARK    3  A    between atoms: C_2  and  C_4
REMARK    4  A    between atoms: C_2  and  C_5
REMARK    5  A    between atoms: C_8  and  C_9
REMARK    6  A    between atoms: C_9  and  O_10
REMARK    7  A    between atoms: O_10  and  C_11
REMARK    8  A    between atoms: C_15  and  C_16
REMARK                            x       y       z     vdW  Elec       q    Type
REMARK                         _______ _______ _______ _____ _____    ______ ____
ROOT
ATOM      1  O   UNL     1      43.719   4.081  12.153  0.00  0.00    +0.000 OA
ENDROOT
BRANCH   1   2
ATOM      2  C   UNL     1      44.811   4.776  12.632  0.00  0.00    +0.000 A 
ATOM      3  C   UNL     1      45.880   4.036  13.115  0.00  0.00    +0.000 A 
ATOM      4  C   UNL     1      46.999   4.721  13.589  0.00  0.00    +0.000 A 
ATOM      5  C   UNL     1      47.014   6.113  13.560  0.00  0.00    +0.000 A 
ATOM      6  C   UNL     1      45.898   6.763  13.056  0.00  0.00    +0.000 A 
ATOM      7  N   UNL     1      44.794   6.124  12.594  0.00  0.00    +0.000 NA
BRANCH   6   8
ATOM      8  C   UNL     1      45.858   8.257  12.974  0.00  0.00    +0.000 C 
ATOM      9  N   UNL     1      46.641   8.908  13.890  0.00  0.00    +0.000 N 
ATOM     10  O   UNL     1      45.176   8.858  12.154  0.00  0.00    +0.000 OA
ATOM     11  H   UNL     1      47.179   8.370  14.560  0.00  0.00    +0.000 HD
ATOM     12  H   UNL     1      46.652   9.917  13.913  0.00  0.00    +0.000 HD
ENDBRANCH   6   8
ENDBRANCH   1   2
BRANCH   1  13
ATOM     13  C   UNL     1      43.391   4.482  10.822  0.00  0.00    +0.000 C 
BRANCH  13  17
ATOM     14  C   UNL     1      46.048   2.717   7.871  0.00  0.00    +0.000 A 
ATOM     15  C   UNL     1      45.307   1.922   8.763  0.00  0.00    +0.000 A 
ATOM     16  C   UNL     1      44.476   2.489   9.733  0.00  0.00    +0.000 A 
ATOM     17  C   UNL     1      44.351   3.874   9.835  0.00  0.00    +0.000 A 
ATOM     18  C   UNL     1      45.106   4.684   8.982  0.00  0.00    +0.000 A 
ATOM     19  C   UNL     1      45.940   4.113   8.015  0.00  0.00    +0.000 A 
BRANCH  14  21
ATOM     20  C   UNL     1      47.068   0.576   6.878  0.00  0.00    +0.000 C 
ATOM     21  C   UNL     1      46.926   2.110   6.762  0.00  0.00    +0.000 C 
ATOM     22  C   UNL     1      48.348   2.707   6.808  0.00  0.00    +0.000 C 
ATOM     23  C   UNL     1      46.307   2.419   5.381  0.00  0.00    +0.000 C 
ENDBRANCH  14  21
ENDBRANCH  13  17
ENDBRANCH   1  13
TORSDOF 5
ENDMDL
MODEL 3
REMARK VINA RESULT:    -7.185      2.875      6.862
REMARK INTER + INTRA:          -9.832
REMARK INTER:                  -9.015
REMARK INTRA:                  -0.817
REMARK UNBOUND:                -0.547
REMARK  Name = 
REMARK  8 active torsions:
REMARK  status: ('A' for Active; 'I' for Inactive)
REMARK    1  A    between atoms: C_1  and  C_2
REMARK    2  A    between atoms: C_2  and  C_3
REMARK    3  A    between atoms: C_2  and  C_4
REMARK    4  A    between atoms: C_2  and  C_5
REMARK    5  A    between atoms: C_8  and  C_9
REMARK    6  A    between atoms: C_9  and  O_10
REMARK    7  A    between atoms: O_10  and  C_11
REMARK    8  A    between atoms: C_15  and  C_16
REMARK                            x       y       z     vdW  Elec       q    Type
REMARK                         _______ _______ _______ _____ _____    ______ ____
ROOT
ATOM      1  O   UNL     1      44.105   4.642   9.115  0.00  0.00    +0.000 OA
ENDROOT
BRANCH   1   2
ATOM      2  C   UNL     1      44.842   3.561   8.673  0.00  0.00    +0.000 A 
ATOM      3  C   UNL     1      44.620   2.339   9.292  0.00  0.00    +0.000 A 
ATOM      4  C   UNL     1      45.343   1.232   8.849  0.00  0.00    +0.000 A 
ATOM      5  C   UNL     1      46.254   1.381   7.807  0.00  0.00    +0.000 A 
ATOM      6  C   UNL     1      46.403   2.642   7.250  0.00  0.00    +0.000 A 
ATOM      7  N   UNL     1      45.718   3.738   7.665  0.00  0.00    +0.000 NA
BRANCH   6   8
ATOM      8  C   UNL     1      47.347   2.866   6.111  0.00  0.00    +0.000 C 
ATOM      9  N   UNL     1      48.674   2.759   6.429  0.00  0.00    +0.000 N 
ATOM     10  O   UNL     1      46.966   3.128   4.977  0.00  0.00    +0.000 OA
ATOM     11  H   UNL     1      48.945   2.554   7.384  0.00  0.00    +0.000 HD
ATOM     12  H   UNL     1      49.375   2.918   5.720  0.00  0.00    +0.000 HD
ENDBRANCH   6   8
ENDBRANCH   1   2
BRANCH   1  13
ATOM     13  C   UNL     1      43.787   4.521  10.503  0.00  0.00    +0.000 C 
BRANCH  13  17
ATOM     14  C   UNL     1      46.870   6.482  12.856  0.00  0.00    +0.000 A 
ATOM     15  C   UNL     1      46.329   5.242  13.239  0.00  0.00    +0.000 A 
ATOM     16  C   UNL     1      45.316   4.625  12.500  0.00  0.00    +0.000 A 
ATOM     17  C   UNL     1      44.817   5.227  11.345  0.00  0.00    +0.000 A 
ATOM     18  C   UNL     1      45.315   6.476  10.966  0.00  0.00    +0.000 A 
ATOM     19  C   UNL     1      46.327   7.092  11.709  0.00  0.00    +0.000 A 
BRANCH  14  21
ATOM     20  C   UNL     1      49.333   7.214  12.808  0.00  0.00    +0.000 C 
ATOM     21  C   UNL     1      48.023   7.150  13.625  0.00  0.00    +0.000 C 
ATOM     22  C   UNL     1      48.330   6.376  14.924  0.00  0.00    +0.000 C 
ATOM     23  C   UNL     1      47.633   8.598  13.995  0.00  0.00    +0.000 C 
ENDBRANCH  14  21
ENDBRANCH  13  17
ENDBRANCH   1  13
TORSDOF 5
ENDMDL
MODEL 4
REMARK VINA RESULT:    -6.763      4.075      8.499
REMARK INTER + INTRA:          -9.286
REMARK INTER:                  -8.625
REMARK INTRA:                  -0.662
REMARK UNBOUND:                -0.547
REMARK  Name = 
REMARK  8 active torsions:
REMARK  status: ('A' for Active; 'I' for Inactive)
REMARK    1  A    between atoms: C_1  and  C_2
REMARK    2  A    between atoms: C_2  and  C_3
REMARK    3  A    between atoms: C_2  and  C_4
REMARK    4  A    between atoms: C_2  and  C_5
REMARK    5  A    between atoms: C_8  and  C_9
REMARK    6  A    between atoms: C_9  and  O_10
REMARK    7  A    between atoms: O_10  and  C_11
REMARK    8  A    between atoms: C_15  and  C_16
REMARK                            x       y       z     vdW  Elec       q    Type
REMARK                         _______ _______ _______ _____ _____    ______ ____
ROOT
ATOM      1  O   UNL     1      47.349   3.173  14.698  0.00  0.00    +0.000 OA
ENDROOT
BRANCH   1   2
ATOM      2  C   UNL     1      46.685   3.836  13.684  0.00  0.00    +0.000 A 
ATOM      3  C   UNL     1      47.001   5.171  13.477  0.00  0.00    +0.000 A 
ATOM      4  C   UNL     1      46.353   5.852  12.447  0.00  0.00    +0.000 A 
ATOM      5  C   UNL     1      45.419   5.180  11.662  0.00  0.00    +0.000 A 
ATOM      6  C   UNL     1      45.173   3.845  11.945  0.00  0.00    +0.000 A 
ATOM      7  N   UNL     1      45.785   3.159  12.943  0.00  0.00    +0.000 NA
BRANCH   6   8
ATOM      8  C   UNL     1      44.201   3.058  11.124  0.00  0.00    +0.000 C 
ATOM      9  N   UNL     1      44.751   2.377  10.071  0.00  0.00    +0.000 N 
ATOM     10  O   UNL     1      43.002   3.025  11.368  0.00  0.00    +0.000 OA
ATOM     11  H   UNL     1      45.747   2.445   9.896  0.00  0.00    +0.000 HD
ATOM     12  H   UNL     1      44.157   1.840   9.456  0.00  0.00    +0.000 HD
ENDBRANCH   6   8
ENDBRANCH   1   2
BRANCH   1  13
ATOM     13  C   UNL     1      47.272   3.896  15.927  0.00  0.00    +0.000 C 
BRANCH  13  17
ATOM     14  C   UNL     1      51.155   3.765  17.874  0.00  0.00    +0.000 A 
ATOM     15  C   UNL     1      50.468   2.590  17.524  0.00  0.00    +0.000 A 
ATOM     16  C   UNL     1      49.205   2.630  16.926  0.00  0.00    +0.000 A 
ATOM     17  C   UNL     1      48.593   3.853  16.649  0.00  0.00    +0.000 A 
ATOM     18  C   UNL     1      49.243   5.032  17.021  0.00  0.00    +0.000 A 
ATOM     19  C   UNL     1      50.505   4.988  17.622  0.00  0.00    +0.000 A 
BRANCH  14  21
ATOM     20  C   UNL     1      52.597   4.206  19.956  0.00  0.00    +0.000 C 
ATOM     21  C   UNL     1      52.569   3.742  18.483  0.00  0.00    +0.000 C 
ATOM     22  C   UNL     1      53.515   4.670  17.692  0.00  0.00    +0.000 C 
ATOM     23  C   UNL     1      53.133   2.306  18.435  0.00  0.00    +0.000 C 
ENDBRANCH  14  21
ENDBRANCH  13  17
ENDBRANCH   1  13
TORSDOF 5
ENDMDL
MODEL 5
REMARK VINA RESULT:    -6.525      2.920      6.528
REMARK INTER + INTRA:          -8.979
REMARK INTER:                  -8.500
REMARK INTRA:                  -0.478
REMARK UNBOUND:                -0.547
REMARK  Name = 
REMARK  8 active torsions:
REMARK  status: ('A' for Active; 'I' for Inactive)
REMARK    1  A    between atoms: C_1  and  C_2
REMARK    2  A    between atoms: C_2  and  C_3
REMARK    3  A    between atoms: C_2  and  C_4
REMARK    4  A    between atoms: C_2  and  C_5
REMARK    5  A    between atoms: C_8  and  C_9
REMARK    6  A    between atoms: C_9  and  O_10
REMARK    7  A    between atoms: O_10  and  C_11
REMARK    8  A    between atoms: C_15  and  C_16
REMARK                            x       y       z     vdW  Elec       q    Type
REMARK                         _______ _______ _______ _____ _____    ______ ____
ROOT
ATOM      1  O   UNL     1      44.168   3.129  10.622  0.00  0.00    +0.000 OA
ENDROOT
BRANCH   1   2
ATOM      2  C   UNL     1      45.010   3.280   9.537  0.00  0.00    +0.000 A 
ATOM      3  C   UNL     1      45.200   4.564   9.048  0.00  0.00    +0.000 A 
ATOM      4  C   UNL     1      46.059   4.737   7.963  0.00  0.00    +0.000 A 
ATOM      5  C   UNL     1      46.697   3.630   7.410  0.00  0.00    +0.000 A 
ATOM      6  C   UNL     1      46.445   2.387   7.971  0.00  0.00    +0.000 A 
ATOM      7  N   UNL     1      45.610   2.188   9.022  0.00  0.00    +0.000 NA
BRANCH   6   8
ATOM      8  C   UNL     1      47.117   1.161   7.441  0.00  0.00    +0.000 C 
ATOM      9  N   UNL     1      46.547  -0.024   7.825  0.00  0.00    +0.000 N 
ATOM     10  O   UNL     1      48.105   1.206   6.719  0.00  0.00    +0.000 OA
ATOM     11  H   UNL     1      45.738  -0.015   8.436  0.00  0.00    +0.000 HD
ATOM     12  H   UNL     1      46.956  -0.898   7.527  0.00  0.00    +0.000 HD
ENDBRANCH   6   8
ENDBRANCH   1   2
BRANCH   1  13
ATOM     13  C   UNL     1      44.901   3.099  11.848  0.00  0.00    +0.000 C 
BRANCH  13  17
ATOM     14  C   UNL     1      46.419   7.082  12.695  0.00  0.00    +0.000 A 
ATOM     15  C   UNL     1      47.244   5.947  12.781  0.00  0.00    +0.000 A 
ATOM     16  C   UNL     1      46.750   4.662  12.539  0.00  0.00    +0.000 A 
ATOM     17  C   UNL     1      45.412   4.473  12.192  0.00  0.00    +0.000 A 
ATOM     18  C   UNL     1      44.566   5.584  12.136  0.00  0.00    +0.000 A 
ATOM     19  C   UNL     1      45.063   6.868  12.381  0.00  0.00    +0.000 A 
BRANCH  14  21
ATOM     20  C   UNL     1      47.398   8.778  14.360  0.00  0.00    +0.000 C 
ATOM     21  C   UNL     1      46.956   8.509  12.904  0.00  0.00    +0.000 C 
ATOM     22  C   UNL     1      45.876   9.553  12.553  0.00  0.00    +0.000 C 
ATOM     23  C   UNL     1      48.182   8.742  11.994  0.00  0.00    +0.000 C 
ENDBRANCH  14  21
ENDBRANCH  13  17
ENDBRANCH   1  13
TORSDOF 5
ENDMDL
MODEL 6
REMARK VINA RESULT:    -6.282      3.273      5.627
REMARK INTER + INTRA:          -8.665
REMARK INTER:                  -8.006
REMARK INTRA:                  -0.659
REMARK UNBOUND:                -0.547
REMARK  Name = 
REMARK  8 active torsions:
REMARK  status: ('A' for Active; 'I' for Inactive)
REMARK    1  A    between atoms: C_1  and  C_2
REMARK    2  A    between atoms: C_2  and  C_3
REMARK    3  A    between atoms: C_2  and  C_4
REMARK    4  A    between atoms: C_2  and  C_5
REMARK    5  A    between atoms: C_8  and  C_9
REMARK    6  A    between atoms: C_9  and  O_10
REMARK    7  A    between atoms: O_10  and  C_11
REMARK    8  A    between atoms: C_15  and  C_16
REMARK                            x       y       z     vdW  Elec       q    Type
REMARK                         _______ _______ _______ _____ _____    ______ ____
ROOT
ATOM      1  O   UNL     1      48.083   6.345  15.974  0.00  0.00    +0.000 OA
ENDROOT
BRANCH   1   2
ATOM      2  C   UNL     1      48.920   5.610  16.790  0.00  0.00    +0.000 A 
ATOM      3  C   UNL     1      49.495   6.263  17.871  0.00  0.00    +0.000 A 
ATOM      4  C   UNL     1      50.331   5.533  18.716  0.00  0.00    +0.000 A 
ATOM      5  C   UNL     1      50.559   4.184  18.456  0.00  0.00    +0.000 A 
ATOM      6  C   UNL     1      49.936   3.620  17.353  0.00  0.00    +0.000 A 
ATOM      7  N   UNL     1      49.123   4.307  16.511  0.00  0.00    +0.000 NA
BRANCH   6   8
ATOM      8  C   UNL     1      50.119   2.171  17.032  0.00  0.00    +0.000 C 
ATOM      9  N   UNL     1      51.001   1.505  17.841  0.00  0.00    +0.000 N 
ATOM     10  O   UNL     1      49.530   1.616  16.113  0.00  0.00    +0.000 OA
ATOM     11  H   UNL     1      51.478   2.008  18.581  0.00  0.00    +0.000 HD
ATOM     12  H   UNL     1      51.196   0.529  17.675  0.00  0.00    +0.000 HD
ENDBRANCH   6   8
ENDBRANCH   1   2
BRANCH   1  13
ATOM     13  C   UNL     1      48.408   6.160  14.595  0.00  0.00    +0.000 C 
BRANCH  13  17
ATOM     14  C   UNL     1      44.979   4.930  12.225  0.00  0.00    +0.000 A 
ATOM     15  C   UNL     1      45.391   6.273  12.281  0.00  0.00    +0.000 A 
ATOM     16  C   UNL     1      46.475   6.675  13.067  0.00  0.00    +0.000 A 
ATOM     17  C   UNL     1      47.189   5.741  13.817  0.00  0.00    +0.000 A 
ATOM     18  C   UNL     1      46.775   4.406  13.804  0.00  0.00    +0.000 A 
ATOM     19  C   UNL     1      45.688   4.008  13.018  0.00  0.00    +0.000 A 
BRANCH  14  21
ATOM     20  C   UNL     1      44.204   4.430   9.825  0.00  0.00    +0.000 C 
ATOM     21  C   UNL     1      43.824   4.460  11.323  0.00  0.00    +0.000 C 
ATOM     22  C   UNL     1      42.607   5.397  11.468  0.00  0.00    +0.000 C 
ATOM     23  C   UNL     1      43.398   3.031  11.724  0.00  0.00    +0.000 C 
ENDBRANCH  14  21
ENDBRANCH  13  17
ENDBRANCH   1  13
TORSDOF 5
ENDMDL
MODEL 7
REMARK VINA RESULT:    -6.234      2.703      7.479
REMARK INTER + INTRA:          -8.602
REMARK INTER:                  -8.000
REMARK INTRA:                  -0.603
REMARK UNBOUND:                -0.547
REMARK  Name = 
REMARK  8 active torsions:
REMARK  status: ('A' for Active; 'I' for Inactive)
REMARK    1  A    between atoms: C_1  and  C_2
REMARK    2  A    between atoms: C_2  and  C_3
REMARK    3  A    between atoms: C_2  and  C_4
REMARK    4  A    between atoms: C_2  and  C_5
REMARK    5  A    between atoms: C_8  and  C_9
REMARK    6  A    between atoms: C_9  and  O_10
REMARK    7  A    between atoms: O_10  and  C_11
REMARK    8  A    between atoms: C_15  and  C_16
REMARK                            x       y       z     vdW  Elec       q    Type
REMARK                         _______ _______ _______ _____ _____    ______ ____
ROOT
ATOM      1  O   UNL     1      45.833   6.737  12.361  0.00  0.00    +0.000 OA
ENDROOT
BRANCH   1   2
ATOM      2  C   UNL     1      44.952   5.723  12.037  0.00  0.00    +0.000 A 
ATOM      3  C   UNL     1      43.884   5.505  12.896  0.00  0.00    +0.000 A 
ATOM      4  C   UNL     1      42.975   4.497  12.578  0.00  0.00    +0.000 A 
ATOM      5  C   UNL     1      43.159   3.748  11.418  0.00  0.00    +0.000 A 
ATOM      6  C   UNL     1      44.255   4.044  10.622  0.00  0.00    +0.000 A 
ATOM      7  N   UNL     1      45.159   5.015  10.909  0.00  0.00    +0.000 NA
BRANCH   6   8
ATOM      8  C   UNL     1      44.497   3.295   9.350  0.00  0.00    +0.000 C 
ATOM      9  N   UNL     1      44.749   1.958   9.504  0.00  0.00    +0.000 N 
ATOM     10  O   UNL     1      44.477   3.833   8.250  0.00  0.00    +0.000 OA
ATOM     11  H   UNL     1      44.771   1.557  10.435  0.00  0.00    +0.000 HD
ATOM     12  H   UNL     1      44.944   1.387   8.694  0.00  0.00    +0.000 HD
ENDBRANCH   6   8
ENDBRANCH   1   2
BRANCH   1  13
ATOM     13  C   UNL     1      47.180   6.262  12.395  0.00  0.00    +0.000 C 
BRANCH  13  17
ATOM     14  C   UNL     1      48.145   5.121  16.476  0.00  0.00    +0.000 A 
ATOM     15  C   UNL     1      48.684   6.279  15.889  0.00  0.00    +0.000 A 
ATOM     16  C   UNL     1      48.399   6.631  14.566  0.00  0.00    +0.000 A 
ATOM     17  C   UNL     1      47.555   5.837  13.790  0.00  0.00    +0.000 A 
ATOM     18  C   UNL     1      47.036   4.663  14.342  0.00  0.00    +0.000 A 
ATOM     19  C   UNL     1      47.326   4.313  15.665  0.00  0.00    +0.000 A 
BRANCH  14  21
ATOM     20  C   UNL     1      48.212   3.239  18.226  0.00  0.00    +0.000 C 
ATOM     21  C   UNL     1      48.403   4.747  17.946  0.00  0.00    +0.000 C 
ATOM     22  C   UNL     1      47.439   5.511  18.878  0.00  0.00    +0.000 C 
ATOM     23  C   UNL     1      49.853   5.112  18.331  0.00  0.00    +0.000 C 
ENDBRANCH  14  21
ENDBRANCH  13  17
ENDBRANCH   1  13
TORSDOF 5
ENDMDL
MODEL 8
REMARK VINA RESULT:    -6.228      3.560      8.566
REMARK INTER + INTRA:          -8.595
REMARK INTER:                  -7.883
REMARK INTRA:                  -0.712
REMARK UNBOUND:                -0.547
REMARK  Name = 
REMARK  8 active torsions:
REMARK  status: ('A' for Active; 'I' for Inactive)
REMARK    1  A    between atoms: C_1  and  C_2
REMARK    2  A    between atoms: C_2  and  C_3
REMARK    3  A    between atoms: C_2  and  C_4
REMARK    4  A    between atoms: C_2  and  C_5
REMARK    5  A    between atoms: C_8  and  C_9
REMARK    6  A    between atoms: C_9  and  O_10
REMARK    7  A    between atoms: O_10  and  C_11
REMARK    8  A    between atoms: C_15  and  C_16
REMARK                            x       y       z     vdW  Elec       q    Type
REMARK                         _______ _______ _______ _____ _____    ______ ____
ROOT
ATOM      1  O   UNL     1      45.806   4.250  14.349  0.00  0.00    +0.000 OA
ENDROOT
BRANCH   1   2
ATOM      2  C   UNL     1      45.730   4.744  13.062  0.00  0.00    +0.000 A 
ATOM      3  C   UNL     1      46.365   5.950  12.800  0.00  0.00    +0.000 A 
ATOM      4  C   UNL     1      46.313   6.457  11.502  0.00  0.00    +0.000 A 
ATOM      5  C   UNL     1      45.636   5.746  10.515  0.00  0.00    +0.000 A 
ATOM      6  C   UNL     1      45.035   4.548  10.874  0.00  0.00    +0.000 A 
ATOM      7  N   UNL     1      45.065   4.034  12.129  0.00  0.00    +0.000 NA
BRANCH   6   8
ATOM      8  C   UNL     1      44.313   3.723   9.856  0.00  0.00    +0.000 C 
ATOM      9  N   UNL     1      44.254   4.271   8.603  0.00  0.00    +0.000 N 
ATOM     10  O   UNL     1      43.808   2.639  10.120  0.00  0.00    +0.000 OA
ATOM     11  H   UNL     1      44.673   5.178   8.433  0.00  0.00    +0.000 HD
ATOM     12  H   UNL     1      43.765   3.785   7.865  0.00  0.00    +0.000 HD
ENDBRANCH   6   8
ENDBRANCH   1   2
BRANCH   1  13
ATOM     13  C   UNL     1      47.120   3.776  14.647  0.00  0.00    +0.000 C 
BRANCH  13  17
ATOM     14  C   UNL     1      48.289   5.305  18.543  0.00  0.00    +0.000 A 
ATOM     15  C   UNL     1      48.624   5.981  17.357  0.00  0.00    +0.000 A 
ATOM     16  C   UNL     1      48.276   5.475  16.102  0.00  0.00    +0.000 A 
ATOM     17  C   UNL     1      47.570   4.277  15.994  0.00  0.00    +0.000 A 
ATOM     18  C   UNL     1      47.257   3.571  17.158  0.00  0.00    +0.000 A 
ATOM     19  C   UNL     1      47.610   4.079  18.413  0.00  0.00    +0.000 A 
BRANCH  14  21
ATOM     20  C   UNL     1      49.453   4.906  20.800  0.00  0.00    +0.000 C 
ATOM     21  C   UNL     1      48.615   5.874  19.936  0.00  0.00    +0.000 C 
ATOM     22  C   UNL     1      47.318   6.177  20.715  0.00  0.00    +0.000 C 
ATOM     23  C   UNL     1      49.419   7.184  19.788  0.00  0.00    +0.000 C 
ENDBRANCH  14  21
ENDBRANCH  13  17
ENDBRANCH   1  13
TORSDOF 5
ENDMDL
MODEL 9
REMARK VINA RESULT:    -6.055      3.239      5.436
REMARK INTER + INTRA:          -8.371
REMARK INTER:                  -7.827
REMARK INTRA:                  -0.544
REMARK UNBOUND:                -0.547
REMARK  Name = 
REMARK  8 active torsions:
REMARK  status: ('A' for Active; 'I' for Inactive)
REMARK    1  A    between atoms: C_1  and  C_2
REMARK    2  A    between atoms: C_2  and  C_3
REMARK    3  A    between atoms: C_2  and  C_4
REMARK    4  A    between atoms: C_2  and  C_5
REMARK    5  A    between atoms: C_8  and  C_9
REMARK    6  A    between atoms: C_9  and  O_10
REMARK    7  A    between atoms: O_10  and  C_11
REMARK    8  A    between atoms: C_15  and  C_16
REMARK                            x       y       z     vdW  Elec       q    Type
REMARK                         _______ _______ _______ _____ _____    ______ ____
ROOT
ATOM      1  O   UNL     1      49.272   6.268  14.607  0.00  0.00    +0.000 OA
ENDROOT
BRANCH   1   2
ATOM      2  C   UNL     1      48.989   6.282  15.959  0.00  0.00    +0.000 A 
ATOM      3  C   UNL     1      48.867   7.519  16.575  0.00  0.00    +0.000 A 
ATOM      4  C   UNL     1      48.565   7.553  17.936  0.00  0.00    +0.000 A 
ATOM      5  C   UNL     1      48.392   6.359  18.630  0.00  0.00    +0.000 A 
ATOM      6  C   UNL     1      48.532   5.172  17.926  0.00  0.00    +0.000 A 
ATOM      7  N   UNL     1      48.831   5.108  16.604  0.00  0.00    +0.000 NA
BRANCH   6   8
ATOM      8  C   UNL     1      48.335   3.854  18.606  0.00  0.00    +0.000 C 
ATOM      9  N   UNL     1      48.635   3.842  19.942  0.00  0.00    +0.000 N 
ATOM     10  O   UNL     1      47.939   2.857  18.016  0.00  0.00    +0.000 OA
ATOM     11  H   UNL     1      48.973   4.687  20.387  0.00  0.00    +0.000 HD
ATOM     12  H   UNL     1      48.549   2.984  20.468  0.00  0.00    +0.000 HD
ENDBRANCH   6   8
ENDBRANCH   1   2
BRANCH   1  13
ATOM     13  C   UNL     1      48.443   7.186  13.894  0.00  0.00    +0.000 C 
BRANCH  13  17
ATOM     14  C   UNL     1      45.142   5.158  11.923  0.00  0.00    +0.000 A 
ATOM     15  C   UNL     1      45.672   4.691  13.139  0.00  0.00    +0.000 A 
ATOM     16  C   UNL     1      46.753   5.324  13.758  0.00  0.00    +0.000 A 
ATOM     17  C   UNL     1      47.335   6.455  13.183  0.00  0.00    +0.000 A 
ATOM     18  C   UNL     1      46.847   6.914  11.957  0.00  0.00    +0.000 A 
ATOM     19  C   UNL     1      45.766   6.277  11.339  0.00  0.00    +0.000 A 
BRANCH  14  21
ATOM     20  C   UNL     1      42.624   5.332  11.439  0.00  0.00    +0.000 C 
ATOM     21  C   UNL     1      43.918   4.508  11.255  0.00  0.00    +0.000 C 
ATOM     22  C   UNL     1      43.656   3.107  11.847  0.00  0.00    +0.000 C 
ATOM     23  C   UNL     1      44.167   4.364   9.738  0.00  0.00    +0.000 C 
ENDBRANCH  14  21
ENDBRANCH  13  17
ENDBRANCH   1  13
TORSDOF 5
ENDMDL
