MODEL 1
REMARK VINA RESULT:    -9.381      0.000      0.000
REMARK INTER + INTRA:         -12.589
REMARK INTER:                 -11.575
REMARK INTRA:                  -1.014
REMARK UNBOUND:                -1.014
REMARK  Name = 
REMARK  4 active torsions:
REMARK  status: ('A' for Active; 'I' for Inactive)
REMARK    1  A    between atoms: C_2  and  C_4
REMARK    2  A    between atoms: N_8  and  C_9
REMARK    3  A    between atoms: C_9  and  C_10
REMARK    4  A    between atoms: C_15  and  C_16
REMARK                            x       y       z     vdW  Elec       q    Type
REMARK                         _______ _______ _______ _____ _____    ______ ____
ROOT
ATOM      1  C   UNL     1      43.407   4.890  10.972  0.00  0.00    +0.000 C 
ENDROOT
BRANCH   1   6
ATOM      2  C   UNL     1      46.390   2.265   7.702  0.00  0.00    +0.000 A 
ATOM      3  C   UNL     1      45.641   1.783   8.773  0.00  0.00    +0.000 A 
ATOM      4  C   UNL     1      44.777   2.650   9.443  0.00  0.00    +0.000 A 
ATOM      5  C   UNL     1      44.681   3.978   9.042  0.00  0.00    +0.000 A 
ATOM      6  N   UNL     1      43.780   4.872   9.572  0.00  0.00    +0.000 N 
ATOM      7  N   UNL     1      45.417   4.460   8.019  0.00  0.00    +0.000 NA
ATOM      8  C   UNL     1      46.259   3.606   7.381  0.00  0.00    +0.000 A 
ATOM      9  H   UNL     1      43.936   5.779   9.143  0.00  0.00    +0.000 HD
BRANCH   2  11
ATOM     10  N   UNL     1      48.325   2.037   6.251  0.00  0.00    +0.000 N 
ATOM     11  C   UNL     1      47.299   1.415   6.909  0.00  0.00    +0.000 C 
ATOM     12  O   UNL     1      47.169   0.198   6.874  0.00  0.00    +0.000 OA
ATOM     13  H   UNL     1      49.002   1.431   5.802  0.00  0.00    +0.000 HD
ATOM     14  H   UNL     1      48.614   2.980   6.461  0.00  0.00    +0.000 HD
ENDBRANCH   2  11
ENDBRANCH   1   6
BRANCH   1  15
ATOM     15  C   UNL     1      44.551   5.148  11.933  0.00  0.00    +0.000 A 
ATOM     16  C   UNL     1      44.955   4.231  12.907  0.00  0.00    +0.000 A 
ATOM     17  C   UNL     1      46.073   4.494  13.697  0.00  0.00    +0.000 A 
ATOM     18  C   UNL     1      46.806   5.667  13.513  0.00  0.00    +0.000 A 
ATOM     19  F   UNL     1      47.866   5.861  14.314  0.00  0.00    +0.000 F 
ATOM     20  C   UNL     1      46.466   6.609  12.530  0.00  0.00    +0.000 A 
ATOM     21  C   UNL     1      45.324   6.315  11.753  0.00  0.00    +0.000 A 
BRANCH  20  22
ATOM     22  C   UNL     1      47.270   7.829  12.261  0.00  0.00    +0.000 A 
ATOM     23  C   UNL     1      48.587   7.756  11.771  0.00  0.00    +0.000 A 
ATOM     24  C   UNL     1      49.319   8.907  11.454  0.00  0.00    +0.000 A 
ATOM     25  C   UNL     1      48.746  10.164  11.611  0.00  0.00    +0.000 A 
ATOM     26  C   UNL     1      47.451  10.271  12.105  0.00  0.00    +0.000 A 
ATOM     27  C   UNL     1      46.730   9.119  12.437  0.00  0.00    +0.000 A 
ENDBRANCH  20  22
ENDBRANCH   1  15
TORSDOF 4
ENDMDL
MODEL 2
REMARK VINA RESULT:    -7.985      1.894      3.732
REMARK INTER + INTRA:         -10.866
REMARK INTER:                 -10.058
REMARK INTRA:                  -0.807
REMARK UNBOUND:                -1.014
REMARK  Name = 
REMARK  4 active torsions:
REMARK  status: ('A' for Active; 'I' for Inactive)
REMARK    1  A    between atoms: C_2  and  C_4
REMARK    2  A    between atoms: N_8  and  C_9
REMARK    3  A    between atoms: C_9  and  C_10
REMARK    4  A    between atoms: C_15  and  C_16
REMARK                            x       y       z     vdW  Elec       q    Type
REMARK                         _______ _______ _______ _____ _____    ______ ____
ROOT
ATOM      1  C   UNL     1      44.396   5.178  11.307  0.00  0.00    +0.000 C 
ENDROOT
BRANCH   1   6
ATOM      2  C   UNL     1      46.571   2.415   7.550  0.00  0.00    +0.000 A 
ATOM      3  C   UNL     1      46.034   1.971   8.756  0.00  0.00    +0.000 A 
ATOM      4  C   UNL     1      45.353   2.875   9.572  0.00  0.00    +0.000 A 
ATOM      5  C   UNL     1      45.226   4.203   9.177  0.00  0.00    +0.000 A 
ATOM      6  N   UNL     1      44.481   5.135   9.861  0.00  0.00    +0.000 N 
ATOM      7  N   UNL     1      45.759   4.648   8.020  0.00  0.00    +0.000 NA
ATOM      8  C   UNL     1      46.426   3.756   7.240  0.00  0.00    +0.000 A 
ATOM      9  H   UNL     1      44.580   6.031   9.395  0.00  0.00    +0.000 HD
BRANCH   2  11
ATOM     10  N   UNL     1      48.300   2.063   5.881  0.00  0.00    +0.000 N 
ATOM     11  C   UNL     1      47.273   1.523   6.606  0.00  0.00    +0.000 C 
ATOM     12  O   UNL     1      46.977   0.340   6.504  0.00  0.00    +0.000 OA
ATOM     13  H   UNL     1      48.841   1.415   5.320  0.00  0.00    +0.000 HD
ATOM     14  H   UNL     1      48.734   2.942   6.121  0.00  0.00    +0.000 HD
ENDBRANCH   2  11
ENDBRANCH   1   6
BRANCH   1  15
ATOM     15  C   UNL     1      45.664   5.626  12.006  0.00  0.00    +0.000 A 
ATOM     16  C   UNL     1      46.410   6.737  11.603  0.00  0.00    +0.000 A 
ATOM     17  C   UNL     1      47.515   7.147  12.348  0.00  0.00    +0.000 A 
ATOM     18  C   UNL     1      47.878   6.462  13.508  0.00  0.00    +0.000 A 
ATOM     19  F   UNL     1      48.958   6.906  14.171  0.00  0.00    +0.000 F 
ATOM     20  C   UNL     1      47.149   5.359  13.978  0.00  0.00    +0.000 A 
ATOM     21  C   UNL     1      46.040   4.965  13.196  0.00  0.00    +0.000 A 
BRANCH  20  22
ATOM     22  C   UNL     1      47.466   4.656  15.248  0.00  0.00    +0.000 A 
ATOM     23  C   UNL     1      47.621   3.259  15.303  0.00  0.00    +0.000 A 
ATOM     24  C   UNL     1      47.987   2.605  16.486  0.00  0.00    +0.000 A 
ATOM     25  C   UNL     1      48.218   3.337  17.645  0.00  0.00    +0.000 A 
ATOM     26  C   UNL     1      48.061   4.718  17.627  0.00  0.00    +0.000 A 
ATOM     27  C   UNL     1      47.678   5.365  16.447  0.00  0.00    +0.000 A 
ENDBRANCH  20  22
ENDBRANCH   1  15
TORSDOF 4
ENDMDL
MODEL 3
REMARK VINA RESULT:    -7.747      3.878      7.279
REMARK INTER + INTRA:         -10.573
REMARK INTER:                 -10.102
REMARK INTRA:                  -0.471
REMARK UNBOUND:                -1.014
REMARK  Name = 
REMARK  4 active torsions:
REMARK  status: ('A' for Active; 'I' for Inactive)
REMARK    1  A    between atoms: C_2  and  C_4
REMARK    2  A    between atoms: N_8  and  C_9
REMARK    3  A    between atoms: C_9  and  C_10
REMARK    4  A    between atoms: C_15  and  C_16
REMARK                            x       y       z     vdW  Elec       q    Type
REMARK                         _______ _______ _______ _____ _____    ______ ____
ROOT
ATOM      1  C   UNL     1      45.114   6.599  11.301  0.00  0.00    +0.000 C 
ENDROOT
BRANCH   1   6
ATOM      2  C   UNL     1      47.987   5.500  15.425  0.00  0.00    +0.000 A 
ATOM      3  C   UNL     1      47.039   4.702  14.789  0.00  0.00    +0.000 A 
ATOM      4  C   UNL     1      46.479   5.139  13.588  0.00  0.00    +0.000 A 
ATOM      5  C   UNL     1      46.865   6.360  13.048  0.00  0.00    +0.000 A 
ATOM      6  N   UNL     1      46.449   6.817  11.819  0.00  0.00    +0.000 N 
ATOM      7  N   UNL     1      47.769   7.149  13.665  0.00  0.00    +0.000 NA
ATOM      8  C   UNL     1      48.300   6.714  14.838  0.00  0.00    +0.000 A 
ATOM      9  H   UNL     1      46.837   7.744  11.672  0.00  0.00    +0.000 HD
BRANCH   2  11
ATOM     10  N   UNL     1      48.263   5.725  17.828  0.00  0.00    +0.000 N 
ATOM     11  C   UNL     1      48.663   5.104  16.677  0.00  0.00    +0.000 C 
ATOM     12  O   UNL     1      49.515   4.226  16.693  0.00  0.00    +0.000 OA
ATOM     13  H   UNL     1      48.656   5.366  18.690  0.00  0.00    +0.000 HD
ATOM     14  H   UNL     1      47.404   6.250  17.894  0.00  0.00    +0.000 HD
ENDBRANCH   2  11
ENDBRANCH   1   6
BRANCH   1  15
ATOM     15  C   UNL     1      44.814   5.171  10.894  0.00  0.00    +0.000 A 
ATOM     16  C   UNL     1      43.802   4.403  11.479  0.00  0.00    +0.000 A 
ATOM     17  C   UNL     1      43.520   3.127  10.993  0.00  0.00    +0.000 A 
ATOM     18  C   UNL     1      44.234   2.611   9.911  0.00  0.00    +0.000 A 
ATOM     19  F   UNL     1      43.916   1.373   9.500  0.00  0.00    +0.000 F 
ATOM     20  C   UNL     1      45.239   3.347   9.264  0.00  0.00    +0.000 A 
ATOM     21  C   UNL     1      45.505   4.632   9.787  0.00  0.00    +0.000 A 
BRANCH  20  22
ATOM     22  C   UNL     1      45.964   2.853   8.065  0.00  0.00    +0.000 A 
ATOM     23  C   UNL     1      46.196   3.677   6.948  0.00  0.00    +0.000 A 
ATOM     24  C   UNL     1      46.938   3.231   5.848  0.00  0.00    +0.000 A 
ATOM     25  C   UNL     1      47.477   1.950   5.841  0.00  0.00    +0.000 A 
ATOM     26  C   UNL     1      47.254   1.106   6.923  0.00  0.00    +0.000 A 
ATOM     27  C   UNL     1      46.497   1.550   8.014  0.00  0.00    +0.000 A 
ENDBRANCH  20  22
ENDBRANCH   1  15
TORSDOF 4
ENDMDL
MODEL 4
REMARK VINA RESULT:    -7.718      1.906      2.558
REMARK INTER + INTRA:         -10.537
REMARK INTER:                 -10.195
REMARK INTRA:                  -0.342
REMARK UNBOUND:                -1.014
REMARK  Name = 
REMARK  4 active torsions:
REMARK  status: ('A' for Active; 'I' for Inactive)
REMARK    1  A    between atoms: C_2  and  C_4
REMARK    2  A    between atoms: N_8  and  C_9
REMARK    3  A    between atoms: C_9  and  C_10
REMARK    4  A    between atoms: C_15  and  C_16
REMARK                            x       y       z     vdW  Elec       q    Type
REMARK                         _______ _______ _______ _____ _____    ______ ____
ROOT
ATOM      1  C   UNL     1      43.537   3.470  11.090  0.00  0.00    +0.000 C 
ENDROOT
BRANCH   1   6
ATOM      2  C   UNL     1      46.722   2.518   7.163  0.00  0.00    +0.000 A 
ATOM      3  C   UNL     1      46.254   3.746   7.624  0.00  0.00    +0.000 A 
ATOM      4  C   UNL     1      45.513   3.791   8.805  0.00  0.00    +0.000 A 
ATOM      5  C   UNL     1      45.245   2.616   9.500  0.00  0.00    +0.000 A 
ATOM      6  N   UNL     1      44.619   2.579  10.723  0.00  0.00    +0.000 N 
ATOM      7  N   UNL     1      45.677   1.419   9.051  0.00  0.00    +0.000 NA
ATOM      8  C   UNL     1      46.391   1.390   7.895  0.00  0.00    +0.000 A 
ATOM      9  H   UNL     1      44.507   1.608  10.999  0.00  0.00    +0.000 HD
BRANCH   2  11
ATOM     10  N   UNL     1      47.391   3.322   4.971  0.00  0.00    +0.000 N 
ATOM     11  C   UNL     1      47.546   2.376   5.946  0.00  0.00    +0.000 C 
ATOM     12  O   UNL     1      48.367   1.475   5.831  0.00  0.00    +0.000 OA
ATOM     13  H   UNL     1      48.038   3.275   4.193  0.00  0.00    +0.000 HD
ATOM     14  H   UNL     1      46.928   4.204   5.135  0.00  0.00    +0.000 HD
ENDBRANCH   2  11
ENDBRANCH   1   6
BRANCH   1  15
ATOM     15  C   UNL     1      43.932   4.926  11.233  0.00  0.00    +0.000 A 
ATOM     16  C   UNL     1      43.036   5.984  11.055  0.00  0.00    +0.000 A 
ATOM     17  C   UNL     1      43.444   7.296  11.292  0.00  0.00    +0.000 A 
ATOM     18  C   UNL     1      44.744   7.563  11.722  0.00  0.00    +0.000 A 
ATOM     19  F   UNL     1      45.072   8.850  11.922  0.00  0.00    +0.000 F 
ATOM     20  C   UNL     1      45.678   6.540  11.947  0.00  0.00    +0.000 A 
ATOM     21  C   UNL     1      45.234   5.224  11.690  0.00  0.00    +0.000 A 
BRANCH  20  22
ATOM     22  C   UNL     1      47.044   6.788  12.474  0.00  0.00    +0.000 A 
ATOM     23  C   UNL     1      48.034   7.422  11.701  0.00  0.00    +0.000 A 
ATOM     24  C   UNL     1      49.299   7.717  12.223  0.00  0.00    +0.000 A 
ATOM     25  C   UNL     1      49.604   7.391  13.540  0.00  0.00    +0.000 A 
ATOM     26  C   UNL     1      48.653   6.752  14.327  0.00  0.00    +0.000 A 
ATOM     27  C   UNL     1      47.396   6.444  13.795  0.00  0.00    +0.000 A 
ENDBRANCH  20  22
ENDBRANCH   1  15
TORSDOF 4
ENDMDL
MODEL 5
REMARK VINA RESULT:    -7.432      2.286      2.924
REMARK INTER + INTRA:         -10.184
REMARK INTER:                  -9.712
REMARK INTRA:                  -0.472
REMARK UNBOUND:                -1.014
REMARK  Name = 
REMARK  4 active torsions:
REMARK  status: ('A' for Active; 'I' for Inactive)
REMARK    1  A    between atoms: C_2  and  C_4
REMARK    2  A    between atoms: N_8  and  C_9
REMARK    3  A    between atoms: C_9  and  C_10
REMARK    4  A    between atoms: C_15  and  C_16
REMARK                            x       y       z     vdW  Elec       q    Type
REMARK                         _______ _______ _______ _____ _____    ______ ____
ROOT
ATOM      1  C   UNL     1      43.603   3.918  11.076  0.00  0.00    +0.000 C 
ENDROOT
BRANCH   1   6
ATOM      2  C   UNL     1      46.695   2.551   7.196  0.00  0.00    +0.000 A 
ATOM      3  C   UNL     1      46.453   3.824   7.707  0.00  0.00    +0.000 A 
ATOM      4  C   UNL     1      45.689   3.957   8.867  0.00  0.00    +0.000 A 
ATOM      5  C   UNL     1      45.177   2.825   9.492  0.00  0.00    +0.000 A 
ATOM      6  N   UNL     1      44.509   2.853  10.694  0.00  0.00    +0.000 N 
ATOM      7  N   UNL     1      45.389   1.589   8.995  0.00  0.00    +0.000 NA
ATOM      8  C   UNL     1      46.128   1.476   7.860  0.00  0.00    +0.000 A 
ATOM      9  H   UNL     1      44.204   1.911  10.915  0.00  0.00    +0.000 HD
BRANCH   2  11
ATOM     10  N   UNL     1      47.328   3.134   4.925  0.00  0.00    +0.000 N 
ATOM     11  C   UNL     1      47.523   2.309   5.998  0.00  0.00    +0.000 C 
ATOM     12  O   UNL     1      48.379   1.434   5.979  0.00  0.00    +0.000 OA
ATOM     13  H   UNL     1      47.976   3.027   4.154  0.00  0.00    +0.000 HD
ATOM     14  H   UNL     1      46.830   4.009   4.994  0.00  0.00    +0.000 HD
ENDBRANCH   2  11
ENDBRANCH   1   6
BRANCH   1  15
ATOM     15  C   UNL     1      44.259   5.092  11.774  0.00  0.00    +0.000 A 
ATOM     16  C   UNL     1      45.254   4.949  12.745  0.00  0.00    +0.000 A 
ATOM     17  C   UNL     1      45.879   6.074  13.281  0.00  0.00    +0.000 A 
ATOM     18  C   UNL     1      45.528   7.351  12.842  0.00  0.00    +0.000 A 
ATOM     19  F   UNL     1      46.164   8.390  13.407  0.00  0.00    +0.000 F 
ATOM     20  C   UNL     1      44.559   7.556  11.848  0.00  0.00    +0.000 A 
ATOM     21  C   UNL     1      43.940   6.395  11.333  0.00  0.00    +0.000 A 
BRANCH  20  22
ATOM     22  C   UNL     1      44.218   8.897  11.309  0.00  0.00    +0.000 A 
ATOM     23  C   UNL     1      43.044   9.121  10.566  0.00  0.00    +0.000 A 
ATOM     24  C   UNL     1      42.691  10.400  10.117  0.00  0.00    +0.000 A 
ATOM     25  C   UNL     1      43.501  11.491  10.410  0.00  0.00    +0.000 A 
ATOM     26  C   UNL     1      44.674  11.302  11.130  0.00  0.00    +0.000 A 
ATOM     27  C   UNL     1      45.033  10.020  11.561  0.00  0.00    +0.000 A 
ENDBRANCH  20  22
ENDBRANCH   1  15
TORSDOF 4
ENDMDL
MODEL 6
REMARK VINA RESULT:    -7.410      3.917      7.177
REMARK INTER + INTRA:         -10.157
REMARK INTER:                  -9.515
REMARK INTRA:                  -0.642
REMARK UNBOUND:                -1.014
REMARK  Name = 
REMARK  4 active torsions:
REMARK  status: ('A' for Active; 'I' for Inactive)
REMARK    1  A    between atoms: C_2  and  C_4
REMARK    2  A    between atoms: N_8  and  C_9
REMARK    3  A    between atoms: C_9  and  C_10
REMARK    4  A    between atoms: C_15  and  C_16
REMARK                            x       y       z     vdW  Elec       q    Type
REMARK                         _______ _______ _______ _____ _____    ______ ____
ROOT
ATOM      1  C   UNL     1      45.001   6.929  11.361  0.00  0.00    +0.000 C 
ENDROOT
BRANCH   1   6
ATOM      2  C   UNL     1      49.689   7.844  13.274  0.00  0.00    +0.000 A 
ATOM      3  C   UNL     1      49.125   8.318  12.092  0.00  0.00    +0.000 A 
ATOM      4  C   UNL     1      47.777   8.068  11.834  0.00  0.00    +0.000 A 
ATOM      5  C   UNL     1      47.019   7.348  12.750  0.00  0.00    +0.000 A 
ATOM      6  N   UNL     1      45.663   7.149  12.631  0.00  0.00    +0.000 N 
ATOM      7  N   UNL     1      47.560   6.867  13.889  0.00  0.00    +0.000 NA
ATOM      8  C   UNL     1      48.876   7.112  14.123  0.00  0.00    +0.000 A 
ATOM      9  H   UNL     1      45.354   6.564  13.400  0.00  0.00    +0.000 HD
BRANCH   2  11
ATOM     10  N   UNL     1      52.029   8.043  12.653  0.00  0.00    +0.000 N 
ATOM     11  C   UNL     1      51.095   8.092  13.651  0.00  0.00    +0.000 C 
ATOM     12  O   UNL     1      51.408   8.373  14.800  0.00  0.00    +0.000 OA
ATOM     13  H   UNL     1      52.969   8.322  12.906  0.00  0.00    +0.000 HD
ATOM     14  H   UNL     1      51.784   8.073  11.675  0.00  0.00    +0.000 HD
ENDBRANCH   2  11
ENDBRANCH   1   6
BRANCH   1  15
ATOM     15  C   UNL     1      44.719   5.477  11.033  0.00  0.00    +0.000 A 
ATOM     16  C   UNL     1      43.715   4.731  11.657  0.00  0.00    +0.000 A 
ATOM     17  C   UNL     1      43.449   3.426  11.242  0.00  0.00    +0.000 A 
ATOM     18  C   UNL     1      44.173   2.860  10.192  0.00  0.00    +0.000 A 
ATOM     19  F   UNL     1      43.870   1.597   9.850  0.00  0.00    +0.000 F 
ATOM     20  C   UNL     1      45.170   3.570   9.508  0.00  0.00    +0.000 A 
ATOM     21  C   UNL     1      45.419   4.886   9.959  0.00  0.00    +0.000 A 
BRANCH  20  22
ATOM     22  C   UNL     1      45.905   3.020   8.339  0.00  0.00    +0.000 A 
ATOM     23  C   UNL     1      46.364   1.691   8.312  0.00  0.00    +0.000 A 
ATOM     24  C   UNL     1      46.995   1.154   7.183  0.00  0.00    +0.000 A 
ATOM     25  C   UNL     1      47.175   1.934   6.046  0.00  0.00    +0.000 A 
ATOM     26  C   UNL     1      46.744   3.255   6.046  0.00  0.00    +0.000 A 
ATOM     27  C   UNL     1      46.130   3.793   7.182  0.00  0.00    +0.000 A 
ENDBRANCH  20  22
ENDBRANCH   1  15
TORSDOF 4
ENDMDL
MODEL 7
REMARK VINA RESULT:    -7.011      3.853      7.044
REMARK INTER + INTRA:          -9.664
REMARK INTER:                  -9.131
REMARK INTRA:                  -0.533
REMARK UNBOUND:                -1.014
REMARK  Name = 
REMARK  4 active torsions:
REMARK  status: ('A' for Active; 'I' for Inactive)
REMARK    1  A    between atoms: C_2  and  C_4
REMARK    2  A    between atoms: N_8  and  C_9
REMARK    3  A    between atoms: C_9  and  C_10
REMARK    4  A    between atoms: C_15  and  C_16
REMARK                            x       y       z     vdW  Elec       q    Type
REMARK                         _______ _______ _______ _____ _____    ______ ____
ROOT
ATOM      1  C   UNL     1      43.849   6.486  11.287  0.00  0.00    +0.000 C 
ENDROOT
BRANCH   1   6
ATOM      2  C   UNL     1      48.144   7.689  13.853  0.00  0.00    +0.000 A 
ATOM      3  C   UNL     1      47.438   6.488  13.854  0.00  0.00    +0.000 A 
ATOM      4  C   UNL     1      46.376   6.322  12.964  0.00  0.00    +0.000 A 
ATOM      5  C   UNL     1      46.032   7.354  12.098  0.00  0.00    +0.000 A 
ATOM      6  N   UNL     1      45.074   7.239  11.117  0.00  0.00    +0.000 N 
ATOM      7  N   UNL     1      46.696   8.528  12.102  0.00  0.00    +0.000 NA
ATOM      8  C   UNL     1      47.723   8.678  12.979  0.00  0.00    +0.000 A 
ATOM      9  H   UNL     1      44.984   8.136  10.650  0.00  0.00    +0.000 HD
BRANCH   2  11
ATOM     10  N   UNL     1      50.502   7.397  14.353  0.00  0.00    +0.000 N 
ATOM     11  C   UNL     1      49.305   7.941  14.729  0.00  0.00    +0.000 C 
ATOM     12  O   UNL     1      49.212   8.643  15.727  0.00  0.00    +0.000 OA
ATOM     13  H   UNL     1      51.310   7.668  14.902  0.00  0.00    +0.000 HD
ATOM     14  H   UNL     1      50.672   7.042  13.424  0.00  0.00    +0.000 HD
ENDBRANCH   2  11
ENDBRANCH   1   6
BRANCH   1  15
ATOM     15  C   UNL     1      43.962   5.007  10.976  0.00  0.00    +0.000 A 
ATOM     16  C   UNL     1      43.179   4.031  11.600  0.00  0.00    +0.000 A 
ATOM     17  C   UNL     1      43.271   2.698  11.200  0.00  0.00    +0.000 A 
ATOM     18  C   UNL     1      44.132   2.330  10.166  0.00  0.00    +0.000 A 
ATOM     19  F   UNL     1      44.176   1.028   9.838  0.00  0.00    +0.000 F 
ATOM     20  C   UNL     1      44.918   3.270   9.483  0.00  0.00    +0.000 A 
ATOM     21  C   UNL     1      44.808   4.609   9.918  0.00  0.00    +0.000 A 
BRANCH  20  22
ATOM     22  C   UNL     1      45.788   2.918   8.331  0.00  0.00    +0.000 A 
ATOM     23  C   UNL     1      46.344   1.634   8.186  0.00  0.00    +0.000 A 
ATOM     24  C   UNL     1      47.106   1.285   7.065  0.00  0.00    +0.000 A 
ATOM     25  C   UNL     1      47.325   2.212   6.052  0.00  0.00    +0.000 A 
ATOM     26  C   UNL     1      46.801   3.494   6.171  0.00  0.00    +0.000 A 
ATOM     27  C   UNL     1      46.054   3.844   7.302  0.00  0.00    +0.000 A 
ENDBRANCH  20  22
ENDBRANCH   1  15
TORSDOF 4
ENDMDL
MODEL 8
REMARK VINA RESULT:    -6.903      4.054      7.045
REMARK INTER + INTRA:          -9.531
REMARK INTER:                  -9.812
REMARK INTRA:                   0.281
REMARK UNBOUND:                -1.014
REMARK  Name = 
REMARK  4 active torsions:
REMARK  status: ('A' for Active; 'I' for Inactive)
REMARK    1  A    between atoms: C_2  and  C_4
REMARK    2  A    between atoms: N_8  and  C_9
REMARK    3  A    between atoms: C_9  and  C_10
REMARK    4  A    between atoms: C_15  and  C_16
REMARK                            x       y       z     vdW  Elec       q    Type
REMARK                         _______ _______ _______ _____ _____    ______ ____
ROOT
ATOM      1  C   UNL     1      47.149   7.889  12.142  0.00  0.00    +0.000 C 
ENDROOT
BRANCH   1   6
ATOM      2  C   UNL     1      47.597   4.462  15.953  0.00  0.00    +0.000 A 
ATOM      3  C   UNL     1      46.778   4.408  14.828  0.00  0.00    +0.000 A 
ATOM      4  C   UNL     1      46.922   5.377  13.835  0.00  0.00    +0.000 A 
ATOM      5  C   UNL     1      47.870   6.383  13.982  0.00  0.00    +0.000 A 
ATOM      6  N   UNL     1      48.155   7.312  13.009  0.00  0.00    +0.000 N 
ATOM      7  N   UNL     1      48.656   6.456  15.077  0.00  0.00    +0.000 NA
ATOM      8  C   UNL     1      48.499   5.509  16.039  0.00  0.00    +0.000 A 
ATOM      9  H   UNL     1      48.851   7.956  13.372  0.00  0.00    +0.000 HD
BRANCH   2  11
ATOM     10  N   UNL     1      48.733   3.089  17.604  0.00  0.00    +0.000 N 
ATOM     11  C   UNL     1      47.545   3.459  17.035  0.00  0.00    +0.000 C 
ATOM     12  O   UNL     1      46.481   3.008  17.438  0.00  0.00    +0.000 OA
ATOM     13  H   UNL     1      48.672   2.485  18.416  0.00  0.00    +0.000 HD
ATOM     14  H   UNL     1      49.583   3.618  17.483  0.00  0.00    +0.000 HD
ENDBRANCH   2  11
ENDBRANCH   1   6
BRANCH   1  15
ATOM     15  C   UNL     1      46.027   6.947  11.753  0.00  0.00    +0.000 A 
ATOM     16  C   UNL     1      44.716   7.082  12.220  0.00  0.00    +0.000 A 
ATOM     17  C   UNL     1      43.714   6.235  11.750  0.00  0.00    +0.000 A 
ATOM     18  C   UNL     1      44.006   5.255  10.800  0.00  0.00    +0.000 A 
ATOM     19  F   UNL     1      42.994   4.469  10.398  0.00  0.00    +0.000 F 
ATOM     20  C   UNL     1      45.296   5.093  10.272  0.00  0.00    +0.000 A 
ATOM     21  C   UNL     1      46.289   5.962  10.775  0.00  0.00    +0.000 A 
BRANCH  20  22
ATOM     22  C   UNL     1      45.621   4.110   9.207  0.00  0.00    +0.000 A 
ATOM     23  C   UNL     1      46.182   4.506   7.979  0.00  0.00    +0.000 A 
ATOM     24  C   UNL     1      46.550   3.572   7.003  0.00  0.00    +0.000 A 
ATOM     25  C   UNL     1      46.375   2.212   7.237  0.00  0.00    +0.000 A 
ATOM     26  C   UNL     1      45.812   1.789   8.434  0.00  0.00    +0.000 A 
ATOM     27  C   UNL     1      45.429   2.727   9.399  0.00  0.00    +0.000 A 
ENDBRANCH  20  22
ENDBRANCH   1  15
TORSDOF 4
ENDMDL
MODEL 9
REMARK VINA RESULT:    -6.496      5.446      8.388
REMARK INTER + INTRA:          -9.029
REMARK INTER:                  -8.123
REMARK INTRA:                  -0.906
REMARK UNBOUND:                -1.014
REMARK  Name = 
REMARK  4 active torsions:
REMARK  status: ('A' for Active; 'I' for Inactive)
REMARK    1  A    between atoms: C_2  and  C_4
REMARK    2  A    between atoms: N_8  and  C_9
REMARK    3  A    between atoms: C_9  and  C_10
REMARK    4  A    between atoms: C_15  and  C_16
REMARK                            x       y       z     vdW  Elec       q    Type
REMARK                         _______ _______ _______ _____ _____    ______ ____
ROOT
ATOM      1  C   UNL     1      49.051   7.068  13.668  0.00  0.00    +0.000 C 
ENDROOT
BRANCH   1   6
ATOM      2  C   UNL     1      48.360   5.778  18.601  0.00  0.00    +0.000 A 
ATOM      3  C   UNL     1      48.732   4.964  17.534  0.00  0.00    +0.000 A 
ATOM      4  C   UNL     1      49.011   5.548  16.298  0.00  0.00    +0.000 A 
ATOM      5  C   UNL     1      48.909   6.926  16.145  0.00  0.00    +0.000 A 
ATOM      6  N   UNL     1      49.269   7.596  14.999  0.00  0.00    +0.000 N 
ATOM      7  N   UNL     1      48.531   7.722  17.167  0.00  0.00    +0.000 NA
ATOM      8  C   UNL     1      48.255   7.138  18.362  0.00  0.00    +0.000 A 
ATOM      9  H   UNL     1      49.064   8.583  15.125  0.00  0.00    +0.000 HD
BRANCH   2  11
ATOM     10  N   UNL     1      48.573   4.014  20.257  0.00  0.00    +0.000 N 
ATOM     11  C   UNL     1      48.084   5.255  19.954  0.00  0.00    +0.000 C 
ATOM     12  O   UNL     1      47.479   5.920  20.785  0.00  0.00    +0.000 OA
ATOM     13  H   UNL     1      48.471   3.716  21.220  0.00  0.00    +0.000 HD
ATOM     14  H   UNL     1      49.282   3.558  19.703  0.00  0.00    +0.000 HD
ENDBRANCH   2  11
ENDBRANCH   1   6
BRANCH   1  15
ATOM     15  C   UNL     1      47.639   7.231  13.142  0.00  0.00    +0.000 A 
ATOM     16  C   UNL     1      46.875   8.385  13.339  0.00  0.00    +0.000 A 
ATOM     17  C   UNL     1      45.618   8.504  12.748  0.00  0.00    +0.000 A 
ATOM     18  C   UNL     1      45.117   7.478  11.945  0.00  0.00    +0.000 A 
ATOM     19  F   UNL     1      43.895   7.655  11.415  0.00  0.00    +0.000 F 
ATOM     20  C   UNL     1      45.850   6.311  11.687  0.00  0.00    +0.000 A 
ATOM     21  C   UNL     1      47.116   6.220  12.306  0.00  0.00    +0.000 A 
BRANCH  20  22
ATOM     22  C   UNL     1      45.374   5.237  10.777  0.00  0.00    +0.000 A 
ATOM     23  C   UNL     1      45.669   5.246   9.401  0.00  0.00    +0.000 A 
ATOM     24  C   UNL     1      45.279   4.198   8.558  0.00  0.00    +0.000 A 
ATOM     25  C   UNL     1      44.589   3.107   9.074  0.00  0.00    +0.000 A 
ATOM     26  C   UNL     1      44.271   3.073  10.426  0.00  0.00    +0.000 A 
ATOM     27  C   UNL     1      44.648   4.131  11.262  0.00  0.00    +0.000 A 
ENDBRANCH  20  22
ENDBRANCH   1  15
TORSDOF 4
ENDMDL
