MODEL 1
REMARK VINA RESULT:    -8.156      0.000      0.000
REMARK INTER + INTRA:         -11.800
REMARK INTER:                 -11.017
REMARK INTRA:                  -0.783
REMARK UNBOUND:                -0.783
REMARK  Name = 
REMARK  8 active torsions:
REMARK  status: ('A' for Active; 'I' for Inactive)
REMARK    1  A    between atoms: C_1  and  C_2
REMARK    2  A    between atoms: C_7  and  C_8
REMARK    3  A    between atoms: C_13  and  C_14
REMARK    4  A    between atoms: C_14  and  C_15
REMARK    5  A    between atoms: C_15  and  N_16
REMARK    6  A    between atoms: N_16  and  C_17
REMARK    7  A    between atoms: C_20  and  C_21
REMARK    8  A    between atoms: C_28  and  C_29
REMARK                            x       y       z     vdW  Elec       q    Type
REMARK                         _______ _______ _______ _____ _____    ______ ____
ROOT
ATOM      1  C   UNL     1      48.292  10.248  11.351  0.00  0.00    +0.000 C 
ATOM      2  C   UNL     1      49.714   9.755  11.586  0.00  0.00    +0.000 C 
ATOM      3  C   UNL     1      49.832   8.220  11.662  0.00  0.00    +0.000 C 
ATOM      4  N   UNL     1      49.586   7.696  13.005  0.00  0.00    +0.000 N 
ATOM      5  C   UNL     1      48.489   6.901  13.258  0.00  0.00    +0.000 A 
ATOM      6  C   UNL     1      48.539   5.967  14.288  0.00  0.00    +0.000 A 
ATOM      7  C   UNL     1      47.453   5.127  14.541  0.00  0.00    +0.000 A 
ATOM      8  C   UNL     1      46.317   5.255  13.743  0.00  0.00    +0.000 A 
ATOM      9  C   UNL     1      46.309   6.212  12.735  0.00  0.00    +0.000 A 
ATOM     10  N   UNL     1      47.389   6.998  12.480  0.00  0.00    +0.000 NA
ATOM     11  C   UNL     1      50.274   8.402  14.091  0.00  0.00    +0.000 C 
ATOM     12  C   UNL     1      50.075   9.928  13.988  0.00  0.00    +0.000 C 
ATOM     13  C   UNL     1      48.726  10.401  14.522  0.00  0.00    +0.000 C 
ATOM     14  O   UNL     1      50.352  10.441  12.676  0.00  0.00    +0.000 OA
ENDROOT
BRANCH   7  15
ATOM     15  C   UNL     1      47.508   4.109  15.646  0.00  0.00    +0.000 C 
ATOM     16  F   UNL     1      47.570   2.822  15.202  0.00  0.00    +0.000 F 
ATOM     17  F   UNL     1      48.595   4.278  16.449  0.00  0.00    +0.000 F 
ATOM     18  F   UNL     1      46.424   4.169  16.467  0.00  0.00    +0.000 F 
ENDBRANCH   7  15
BRANCH   9  19
ATOM     19  C   UNL     1      45.088   6.351  11.846  0.00  0.00    +0.000 C 
BRANCH  19  20
ATOM     20  C   UNL     1      44.355   5.022  11.636  0.00  0.00    +0.000 C 
BRANCH  20  21
ATOM     21  N   UNL     1      43.982   4.827  10.223  0.00  0.00    +0.000 N 
ATOM     22  H   UNL     1      43.739   5.698   9.755  0.00  0.00    +0.000 HD
BRANCH  21  23
ATOM     23  C   UNL     1      44.855   4.052   9.432  0.00  0.00    +0.000 A 
ATOM     24  C   UNL     1      44.836   2.653   9.423  0.00  0.00    +0.000 A 
ATOM     25  C   UNL     1      45.679   1.914   8.587  0.00  0.00    +0.000 A 
ATOM     26  C   UNL     1      46.538   2.562   7.699  0.00  0.00    +0.000 A 
ATOM     27  C   UNL     1      46.544   3.960   7.659  0.00  0.00    +0.000 A 
ATOM     28  C   UNL     1      45.698   4.692   8.509  0.00  0.00    +0.000 A 
BRANCH  26  29
ATOM     29  C   UNL     1      47.413   1.716   6.840  0.00  0.00    +0.000 C 
ATOM     30  N   UNL     1      48.464   2.326   6.212  0.00  0.00    +0.000 N 
ATOM     31  O   UNL     1      47.180   0.530   6.661  0.00  0.00    +0.000 OA
ATOM     32  H   UNL     1      48.542   3.328   6.130  0.00  0.00    +0.000 HD
ATOM     33  H   UNL     1      48.962   1.756   5.539  0.00  0.00    +0.000 HD
ENDBRANCH  26  29
ENDBRANCH  21  23
ENDBRANCH  20  21
ENDBRANCH  19  20
ENDBRANCH   9  19
TORSDOF 6
ENDMDL
MODEL 2
REMARK VINA RESULT:    -7.858      3.102      4.748
REMARK INTER + INTRA:         -11.398
REMARK INTER:                 -10.626
REMARK INTRA:                  -0.772
REMARK UNBOUND:                -0.783
REMARK  Name = 
REMARK  8 active torsions:
REMARK  status: ('A' for Active; 'I' for Inactive)
REMARK    1  A    between atoms: C_1  and  C_2
REMARK    2  A    between atoms: C_7  and  C_8
REMARK    3  A    between atoms: C_13  and  C_14
REMARK    4  A    between atoms: C_14  and  C_15
REMARK    5  A    between atoms: C_15  and  N_16
REMARK    6  A    between atoms: N_16  and  C_17
REMARK    7  A    between atoms: C_20  and  C_21
REMARK    8  A    between atoms: C_28  and  C_29
REMARK                            x       y       z     vdW  Elec       q    Type
REMARK                         _______ _______ _______ _____ _____    ______ ____
ROOT
ATOM      1  C   UNL     1      47.228   2.871  17.610  0.00  0.00    +0.000 C 
ATOM      2  C   UNL     1      47.695   4.087  18.399  0.00  0.00    +0.000 C 
ATOM      3  C   UNL     1      47.427   5.427  17.687  0.00  0.00    +0.000 C 
ATOM      4  N   UNL     1      48.494   5.803  16.760  0.00  0.00    +0.000 N 
ATOM      5  C   UNL     1      48.257   5.862  15.404  0.00  0.00    +0.000 A 
ATOM      6  C   UNL     1      49.010   6.724  14.611  0.00  0.00    +0.000 A 
ATOM      7  C   UNL     1      48.764   6.827  13.240  0.00  0.00    +0.000 A 
ATOM      8  C   UNL     1      47.756   6.038  12.687  0.00  0.00    +0.000 A 
ATOM      9  C   UNL     1      47.041   5.182  13.517  0.00  0.00    +0.000 A 
ATOM     10  N   UNL     1      47.270   5.120  14.856  0.00  0.00    +0.000 NA
ATOM     11  C   UNL     1      49.857   5.667  17.284  0.00  0.00    +0.000 C 
ATOM     12  C   UNL     1      50.077   4.288  17.938  0.00  0.00    +0.000 C 
ATOM     13  C   UNL     1      50.344   3.175  16.929  0.00  0.00    +0.000 C 
ATOM     14  O   UNL     1      49.044   3.941  18.873  0.00  0.00    +0.000 OA
ENDROOT
BRANCH   7  15
ATOM     15  C   UNL     1      49.568   7.765  12.383  0.00  0.00    +0.000 C 
ATOM     16  F   UNL     1      50.332   7.132  11.449  0.00  0.00    +0.000 F 
ATOM     17  F   UNL     1      48.780   8.633  11.692  0.00  0.00    +0.000 F 
ATOM     18  F   UNL     1      50.424   8.533  13.109  0.00  0.00    +0.000 F 
ENDBRANCH   7  15
BRANCH   9  19
ATOM     19  C   UNL     1      45.928   4.332  12.934  0.00  0.00    +0.000 C 
BRANCH  19  20
ATOM     20  C   UNL     1      45.093   5.086  11.894  0.00  0.00    +0.000 C 
BRANCH  20  21
ATOM     21  N   UNL     1      44.366   4.157  11.008  0.00  0.00    +0.000 N 
ATOM     22  H   UNL     1      43.420   4.468  10.801  0.00  0.00    +0.000 HD
BRANCH  21  23
ATOM     23  C   UNL     1      45.031   3.738   9.837  0.00  0.00    +0.000 A 
ATOM     24  C   UNL     1      45.647   4.629   8.950  0.00  0.00    +0.000 A 
ATOM     25  C   UNL     1      46.344   4.178   7.825  0.00  0.00    +0.000 A 
ATOM     26  C   UNL     1      46.484   2.811   7.581  0.00  0.00    +0.000 A 
ATOM     27  C   UNL     1      45.914   1.900   8.477  0.00  0.00    +0.000 A 
ATOM     28  C   UNL     1      45.209   2.365   9.601  0.00  0.00    +0.000 A 
BRANCH  26  29
ATOM     29  C   UNL     1      47.235   2.398   6.364  0.00  0.00    +0.000 C 
ATOM     30  N   UNL     1      47.028   3.115   5.218  0.00  0.00    +0.000 N 
ATOM     31  O   UNL     1      47.977   1.426   6.368  0.00  0.00    +0.000 OA
ATOM     32  H   UNL     1      46.252   3.751   5.106  0.00  0.00    +0.000 HD
ATOM     33  H   UNL     1      47.452   2.736   4.381  0.00  0.00    +0.000 HD
ENDBRANCH  26  29
ENDBRANCH  21  23
ENDBRANCH  20  21
ENDBRANCH  19  20
ENDBRANCH   9  19
TORSDOF 6
ENDMDL
MODEL 3
REMARK VINA RESULT:    -7.655      3.460      4.383
REMARK INTER + INTRA:         -11.123
REMARK INTER:                 -10.472
REMARK INTRA:                  -0.651
REMARK UNBOUND:                -0.783
REMARK  Name = 
REMARK  8 active torsions:
REMARK  status: ('A' for Active; 'I' for Inactive)
REMARK    1  A    between atoms: C_1  and  C_2
REMARK    2  A    between atoms: C_7  and  C_8
REMARK    3  A    between atoms: C_13  and  C_14
REMARK    4  A    between atoms: C_14  and  C_15
REMARK    5  A    between atoms: C_15  and  N_16
REMARK    6  A    between atoms: N_16  and  C_17
REMARK    7  A    between atoms: C_20  and  C_21
REMARK    8  A    between atoms: C_28  and  C_29
REMARK                            x       y       z     vdW  Elec       q    Type
REMARK                         _______ _______ _______ _____ _____    ______ ____
ROOT
ATOM      1  C   UNL     1      49.311   6.756  13.771  0.00  0.00    +0.000 C 
ATOM      2  C   UNL     1      49.232   8.082  14.517  0.00  0.00    +0.000 C 
ATOM      3  C   UNL     1      47.793   8.599  14.708  0.00  0.00    +0.000 C 
ATOM      4  N   UNL     1      47.313   9.381  13.569  0.00  0.00    +0.000 N 
ATOM      5  C   UNL     1      46.273   8.921  12.790  0.00  0.00    +0.000 A 
ATOM      6  C   UNL     1      45.458   9.832  12.125  0.00  0.00    +0.000 A 
ATOM      7  C   UNL     1      44.378   9.391  11.357  0.00  0.00    +0.000 A 
ATOM      8  C   UNL     1      44.145   8.020  11.267  0.00  0.00    +0.000 A 
ATOM      9  C   UNL     1      44.996   7.149  11.938  0.00  0.00    +0.000 A 
ATOM     10  N   UNL     1      46.022   7.596  12.710  0.00  0.00    +0.000 NA
ATOM     11  C   UNL     1      48.248  10.391  13.063  0.00  0.00    +0.000 C 
ATOM     12  C   UNL     1      49.656   9.799  12.845  0.00  0.00    +0.000 C 
ATOM     13  C   UNL     1      49.787   9.011  11.544  0.00  0.00    +0.000 C 
ATOM     14  O   UNL     1      50.135   9.062  13.980  0.00  0.00    +0.000 OA
ENDROOT
BRANCH   7  15
ATOM     15  C   UNL     1      43.488  10.372  10.646  0.00  0.00    +0.000 C 
ATOM     16  F   UNL     1      44.135  11.499  10.235  0.00  0.00    +0.000 F 
ATOM     17  F   UNL     1      42.924   9.840   9.528  0.00  0.00    +0.000 F 
ATOM     18  F   UNL     1      42.454  10.798  11.421  0.00  0.00    +0.000 F 
ENDBRANCH   7  15
BRANCH   9  19
ATOM     19  C   UNL     1      44.745   5.654  11.866  0.00  0.00    +0.000 C 
BRANCH  19  20
ATOM     20  C   UNL     1      43.686   5.283  10.822  0.00  0.00    +0.000 C 
BRANCH  20  21
ATOM     21  N   UNL     1      43.749   3.851  10.475  0.00  0.00    +0.000 N 
ATOM     22  H   UNL     1      42.838   3.460  10.244  0.00  0.00    +0.000 HD
BRANCH  21  23
ATOM     23  C   UNL     1      44.722   3.464   9.529  0.00  0.00    +0.000 A 
ATOM     24  C   UNL     1      45.058   2.128   9.284  0.00  0.00    +0.000 A 
ATOM     25  C   UNL     1      45.988   1.775   8.302  0.00  0.00    +0.000 A 
ATOM     26  C   UNL     1      46.577   2.755   7.502  0.00  0.00    +0.000 A 
ATOM     27  C   UNL     1      46.225   4.094   7.699  0.00  0.00    +0.000 A 
ATOM     28  C   UNL     1      45.294   4.438   8.694  0.00  0.00    +0.000 A 
BRANCH  26  29
ATOM     29  C   UNL     1      47.563   2.312   6.478  0.00  0.00    +0.000 C 
ATOM     30  N   UNL     1      47.534   2.935   5.260  0.00  0.00    +0.000 N 
ATOM     31  O   UNL     1      48.343   1.396   6.693  0.00  0.00    +0.000 OA
ATOM     32  H   UNL     1      46.759   3.506   4.959  0.00  0.00    +0.000 HD
ATOM     33  H   UNL     1      48.127   2.529   4.546  0.00  0.00    +0.000 HD
ENDBRANCH  26  29
ENDBRANCH  21  23
ENDBRANCH  20  21
ENDBRANCH  19  20
ENDBRANCH   9  19
TORSDOF 6
ENDMDL
MODEL 4
REMARK VINA RESULT:    -6.876      3.982      5.972
REMARK INTER + INTRA:         -10.071
REMARK INTER:                  -8.813
REMARK INTRA:                  -1.258
REMARK UNBOUND:                -0.783
REMARK  Name = 
REMARK  8 active torsions:
REMARK  status: ('A' for Active; 'I' for Inactive)
REMARK    1  A    between atoms: C_1  and  C_2
REMARK    2  A    between atoms: C_7  and  C_8
REMARK    3  A    between atoms: C_13  and  C_14
REMARK    4  A    between atoms: C_14  and  C_15
REMARK    5  A    between atoms: C_15  and  N_16
REMARK    6  A    between atoms: N_16  and  C_17
REMARK    7  A    between atoms: C_20  and  C_21
REMARK    8  A    between atoms: C_28  and  C_29
REMARK                            x       y       z     vdW  Elec       q    Type
REMARK                         _______ _______ _______ _____ _____    ______ ____
ROOT
ATOM      1  C   UNL     1      47.948   2.942  15.856  0.00  0.00    +0.000 C 
ATOM      2  C   UNL     1      47.526   3.402  17.246  0.00  0.00    +0.000 C 
ATOM      3  C   UNL     1      47.307   4.923  17.354  0.00  0.00    +0.000 C 
ATOM      4  N   UNL     1      48.539   5.655  17.648  0.00  0.00    +0.000 N 
ATOM      5  C   UNL     1      49.075   6.527  16.725  0.00  0.00    +0.000 A 
ATOM      6  C   UNL     1      49.842   7.604  17.160  0.00  0.00    +0.000 A 
ATOM      7  C   UNL     1      50.366   8.520  16.246  0.00  0.00    +0.000 A 
ATOM      8  C   UNL     1      50.110   8.322  14.889  0.00  0.00    +0.000 A 
ATOM      9  C   UNL     1      49.350   7.224  14.502  0.00  0.00    +0.000 A 
ATOM     10  N   UNL     1      48.817   6.362  15.409  0.00  0.00    +0.000 NA
ATOM     11  C   UNL     1      49.363   5.092  18.723  0.00  0.00    +0.000 C 
ATOM     12  C   UNL     1      49.587   3.578  18.529  0.00  0.00    +0.000 C 
ATOM     13  C   UNL     1      50.675   3.252  17.510  0.00  0.00    +0.000 C 
ATOM     14  O   UNL     1      48.370   2.861  18.276  0.00  0.00    +0.000 OA
ENDROOT
BRANCH   7  15
ATOM     15  C   UNL     1      51.186   9.690  16.713  0.00  0.00    +0.000 C 
ATOM     16  F   UNL     1      52.530   9.505  16.576  0.00  0.00    +0.000 F 
ATOM     17  F   UNL     1      50.897  10.829  16.026  0.00  0.00    +0.000 F 
ATOM     18  F   UNL     1      50.982   9.981  18.025  0.00  0.00    +0.000 F 
ENDBRANCH   7  15
BRANCH   9  19
ATOM     19  C   UNL     1      49.045   7.006  13.032  0.00  0.00    +0.000 C 
BRANCH  19  20
ATOM     20  C   UNL     1      47.859   7.844  12.545  0.00  0.00    +0.000 C 
BRANCH  20  21
ATOM     21  N   UNL     1      46.595   7.403  13.165  0.00  0.00    +0.000 N 
ATOM     22  H   UNL     1      45.918   8.157  13.259  0.00  0.00    +0.000 HD
BRANCH  21  23
ATOM     23  C   UNL     1      45.993   6.243  12.636  0.00  0.00    +0.000 A 
ATOM     24  C   UNL     1      45.638   5.142  13.423  0.00  0.00    +0.000 A 
ATOM     25  C   UNL     1      44.994   4.028  12.876  0.00  0.00    +0.000 A 
ATOM     26  C   UNL     1      44.645   4.006  11.525  0.00  0.00    +0.000 A 
ATOM     27  C   UNL     1      44.951   5.113  10.727  0.00  0.00    +0.000 A 
ATOM     28  C   UNL     1      45.605   6.224  11.286  0.00  0.00    +0.000 A 
BRANCH  26  29
ATOM     29  C   UNL     1      43.965   2.787  11.005  0.00  0.00    +0.000 C 
ATOM     30  N   UNL     1      44.467   2.218   9.867  0.00  0.00    +0.000 N 
ATOM     31  O   UNL     1      42.966   2.332  11.544  0.00  0.00    +0.000 OA
ATOM     32  H   UNL     1      45.118   2.695   9.262  0.00  0.00    +0.000 HD
ATOM     33  H   UNL     1      43.912   1.471   9.469  0.00  0.00    +0.000 HD
ENDBRANCH  26  29
ENDBRANCH  21  23
ENDBRANCH  20  21
ENDBRANCH  19  20
ENDBRANCH   9  19
TORSDOF 6
ENDMDL
MODEL 5
REMARK VINA RESULT:    -6.843      4.113      7.113
REMARK INTER + INTRA:         -10.027
REMARK INTER:                  -9.189
REMARK INTRA:                  -0.838
REMARK UNBOUND:                -0.783
REMARK  Name = 
REMARK  8 active torsions:
REMARK  status: ('A' for Active; 'I' for Inactive)
REMARK    1  A    between atoms: C_1  and  C_2
REMARK    2  A    between atoms: C_7  and  C_8
REMARK    3  A    between atoms: C_13  and  C_14
REMARK    4  A    between atoms: C_14  and  C_15
REMARK    5  A    between atoms: C_15  and  N_16
REMARK    6  A    between atoms: N_16  and  C_17
REMARK    7  A    between atoms: C_20  and  C_21
REMARK    8  A    between atoms: C_28  and  C_29
REMARK                            x       y       z     vdW  Elec       q    Type
REMARK                         _______ _______ _______ _____ _____    ______ ____
ROOT
ATOM      1  C   UNL     1      50.251   7.649  14.638  0.00  0.00    +0.000 C 
ATOM      2  C   UNL     1      49.432   8.897  14.336  0.00  0.00    +0.000 C 
ATOM      3  C   UNL     1      47.909   8.673  14.419  0.00  0.00    +0.000 C 
ATOM      4  N   UNL     1      47.338   8.176  13.167  0.00  0.00    +0.000 N 
ATOM      5  C   UNL     1      46.791   6.912  13.098  0.00  0.00    +0.000 A 
ATOM      6  C   UNL     1      45.784   6.649  12.176  0.00  0.00    +0.000 A 
ATOM      7  C   UNL     1      45.191   5.386  12.111  0.00  0.00    +0.000 A 
ATOM      8  C   UNL     1      45.641   4.397  12.985  0.00  0.00    +0.000 A 
ATOM      9  C   UNL     1      46.660   4.705  13.879  0.00  0.00    +0.000 A 
ATOM     10  N   UNL     1      47.202   5.950  13.953  0.00  0.00    +0.000 NA
ATOM     11  C   UNL     1      47.773   8.878  11.956  0.00  0.00    +0.000 C 
ATOM     12  C   UNL     1      49.308   9.025  11.908  0.00  0.00    +0.000 C 
ATOM     13  C   UNL     1      50.024   7.760  11.443  0.00  0.00    +0.000 C 
ATOM     14  O   UNL     1      49.858   9.547  13.127  0.00  0.00    +0.000 OA
ENDROOT
BRANCH   7  15
ATOM     15  C   UNL     1      44.094   5.101  11.123  0.00  0.00    +0.000 C 
ATOM     16  F   UNL     1      44.543   4.881   9.856  0.00  0.00    +0.000 F 
ATOM     17  F   UNL     1      43.373   3.995  11.459  0.00  0.00    +0.000 F 
ATOM     18  F   UNL     1      43.197   6.119  11.029  0.00  0.00    +0.000 F 
ENDBRANCH   7  15
BRANCH   9  19
ATOM     19  C   UNL     1      47.148   3.646  14.850  0.00  0.00    +0.000 C 
BRANCH  19  20
ATOM     20  C   UNL     1      47.109   4.118  16.307  0.00  0.00    +0.000 C 
BRANCH  20  21
ATOM     21  N   UNL     1      48.362   4.798  16.688  0.00  0.00    +0.000 N 
ATOM     22  H   UNL     1      48.215   5.547  17.361  0.00  0.00    +0.000 HD
BRANCH  21  23
ATOM     23  C   UNL     1      49.444   3.978  17.070  0.00  0.00    +0.000 A 
ATOM     24  C   UNL     1      49.417   2.583  16.967  0.00  0.00    +0.000 A 
ATOM     25  C   UNL     1      50.526   1.801  17.303  0.00  0.00    +0.000 A 
ATOM     26  C   UNL     1      51.716   2.404  17.712  0.00  0.00    +0.000 A 
ATOM     27  C   UNL     1      51.782   3.799  17.782  0.00  0.00    +0.000 A 
ATOM     28  C   UNL     1      50.658   4.574  17.448  0.00  0.00    +0.000 A 
BRANCH  26  29
ATOM     29  C   UNL     1      52.859   1.514  18.061  0.00  0.00    +0.000 C 
ATOM     30  N   UNL     1      53.028   0.379  17.316  0.00  0.00    +0.000 N 
ATOM     31  O   UNL     1      53.596   1.759  19.005  0.00  0.00    +0.000 OA
ATOM     32  H   UNL     1      52.311   0.016  16.706  0.00  0.00    +0.000 HD
ATOM     33  H   UNL     1      53.731  -0.266  17.654  0.00  0.00    +0.000 HD
ENDBRANCH  26  29
ENDBRANCH  21  23
ENDBRANCH  20  21
ENDBRANCH  19  20
ENDBRANCH   9  19
TORSDOF 6
ENDMDL
MODEL 6
REMARK VINA RESULT:    -6.616      3.540      4.947
REMARK INTER + INTRA:          -9.720
REMARK INTER:                  -8.791
REMARK INTRA:                  -0.929
REMARK UNBOUND:                -0.783
REMARK  Name = 
REMARK  8 active torsions:
REMARK  status: ('A' for Active; 'I' for Inactive)
REMARK    1  A    between atoms: C_1  and  C_2
REMARK    2  A    between atoms: C_7  and  C_8
REMARK    3  A    between atoms: C_13  and  C_14
REMARK    4  A    between atoms: C_14  and  C_15
REMARK    5  A    between atoms: C_15  and  N_16
REMARK    6  A    between atoms: N_16  and  C_17
REMARK    7  A    between atoms: C_20  and  C_21
REMARK    8  A    between atoms: C_28  and  C_29
REMARK                            x       y       z     vdW  Elec       q    Type
REMARK                         _______ _______ _______ _____ _____    ______ ____
ROOT
ATOM      1  C   UNL     1      49.354  10.692  18.168  0.00  0.00    +0.000 C 
ATOM      2  C   UNL     1      50.152   9.913  19.206  0.00  0.00    +0.000 C 
ATOM      3  C   UNL     1      50.706   8.573  18.683  0.00  0.00    +0.000 C 
ATOM      4  N   UNL     1      49.750   7.474  18.810  0.00  0.00    +0.000 N 
ATOM      5  C   UNL     1      49.226   6.866  17.689  0.00  0.00    +0.000 A 
ATOM      6  C   UNL     1      48.816   5.538  17.755  0.00  0.00    +0.000 A 
ATOM      7  C   UNL     1      48.314   4.891  16.624  0.00  0.00    +0.000 A 
ATOM      8  C   UNL     1      48.226   5.612  15.434  0.00  0.00    +0.000 A 
ATOM      9  C   UNL     1      48.635   6.941  15.421  0.00  0.00    +0.000 A 
ATOM     10  N   UNL     1      49.154   7.544  16.523  0.00  0.00    +0.000 NA
ATOM     11  C   UNL     1      49.075   7.375  20.108  0.00  0.00    +0.000 C 
ATOM     12  C   UNL     1      48.500   8.736  20.551  0.00  0.00    +0.000 C 
ATOM     13  C   UNL     1      47.175   9.081  19.878  0.00  0.00    +0.000 C 
ATOM     14  O   UNL     1      49.454   9.804  20.457  0.00  0.00    +0.000 OA
ENDROOT
BRANCH   7  15
ATOM     15  C   UNL     1      47.880   3.454  16.689  0.00  0.00    +0.000 C 
ATOM     16  F   UNL     1      46.736   3.259  17.404  0.00  0.00    +0.000 F 
ATOM     17  F   UNL     1      47.639   2.932  15.455  0.00  0.00    +0.000 F 
ATOM     18  F   UNL     1      48.817   2.649  17.259  0.00  0.00    +0.000 F 
ENDBRANCH   7  15
BRANCH   9  19
ATOM     19  C   UNL     1      48.564   7.732  14.129  0.00  0.00    +0.000 C 
BRANCH  19  20
ATOM     20  C   UNL     1      47.134   7.866  13.597  0.00  0.00    +0.000 C 
BRANCH  20  21
ATOM     21  N   UNL     1      47.049   7.486  12.174  0.00  0.00    +0.000 N 
ATOM     22  H   UNL     1      47.961   7.425  11.726  0.00  0.00    +0.000 HD
BRANCH  21  23
ATOM     23  C   UNL     1      46.252   6.366  11.858  0.00  0.00    +0.000 A 
ATOM     24  C   UNL     1      45.906   6.022  10.546  0.00  0.00    +0.000 A 
ATOM     25  C   UNL     1      45.160   4.874  10.263  0.00  0.00    +0.000 A 
ATOM     26  C   UNL     1      44.775   4.010  11.288  0.00  0.00    +0.000 A 
ATOM     27  C   UNL     1      45.147   4.310  12.603  0.00  0.00    +0.000 A 
ATOM     28  C   UNL     1      45.891   5.470  12.877  0.00  0.00    +0.000 A 
BRANCH  26  29
ATOM     29  C   UNL     1      43.978   2.808  10.919  0.00  0.00    +0.000 C 
ATOM     30  N   UNL     1      44.361   2.112   9.805  0.00  0.00    +0.000 N 
ATOM     31  O   UNL     1      42.989   2.475  11.556  0.00  0.00    +0.000 OA
ATOM     32  H   UNL     1      45.000   2.488   9.121  0.00  0.00    +0.000 HD
ATOM     33  H   UNL     1      43.728   1.379   9.508  0.00  0.00    +0.000 HD
ENDBRANCH  26  29
ENDBRANCH  21  23
ENDBRANCH  20  21
ENDBRANCH  19  20
ENDBRANCH   9  19
TORSDOF 6
ENDMDL
MODEL 7
REMARK VINA RESULT:    -6.569      3.595      5.082
REMARK INTER + INTRA:          -9.656
REMARK INTER:                  -8.780
REMARK INTRA:                  -0.876
REMARK UNBOUND:                -0.783
REMARK  Name = 
REMARK  8 active torsions:
REMARK  status: ('A' for Active; 'I' for Inactive)
REMARK    1  A    between atoms: C_1  and  C_2
REMARK    2  A    between atoms: C_7  and  C_8
REMARK    3  A    between atoms: C_13  and  C_14
REMARK    4  A    between atoms: C_14  and  C_15
REMARK    5  A    between atoms: C_15  and  N_16
REMARK    6  A    between atoms: N_16  and  C_17
REMARK    7  A    between atoms: C_20  and  C_21
REMARK    8  A    between atoms: C_28  and  C_29
REMARK                            x       y       z     vdW  Elec       q    Type
REMARK                         _______ _______ _______ _____ _____    ______ ____
ROOT
ATOM      1  C   UNL     1      52.852   9.006  17.084  0.00  0.00    +0.000 C 
ATOM      2  C   UNL     1      53.749   7.787  17.258  0.00  0.00    +0.000 C 
ATOM      3  C   UNL     1      53.217   6.522  16.556  0.00  0.00    +0.000 C 
ATOM      4  N   UNL     1      52.277   5.765  17.382  0.00  0.00    +0.000 N 
ATOM      5  C   UNL     1      50.954   5.648  17.013  0.00  0.00    +0.000 A 
ATOM      6  C   UNL     1      50.225   4.533  17.413  0.00  0.00    +0.000 A 
ATOM      7  C   UNL     1      48.893   4.376  17.022  0.00  0.00    +0.000 A 
ATOM      8  C   UNL     1      48.314   5.368  16.232  0.00  0.00    +0.000 A 
ATOM      9  C   UNL     1      49.079   6.471  15.870  0.00  0.00    +0.000 A 
ATOM     10  N   UNL     1      50.385   6.590  16.230  0.00  0.00    +0.000 NA
ATOM     11  C   UNL     1      52.697   5.546  18.770  0.00  0.00    +0.000 C 
ATOM     12  C   UNL     1      53.169   6.857  19.432  0.00  0.00    +0.000 C 
ATOM     13  C   UNL     1      52.021   7.742  19.908  0.00  0.00    +0.000 C 
ATOM     14  O   UNL     1      54.117   7.577  18.631  0.00  0.00    +0.000 OA
ENDROOT
BRANCH   7  15
ATOM     15  C   UNL     1      48.105   3.168  17.443  0.00  0.00    +0.000 C 
ATOM     16  F   UNL     1      48.264   2.841  18.757  0.00  0.00    +0.000 F 
ATOM     17  F   UNL     1      46.766   3.337  17.263  0.00  0.00    +0.000 F 
ATOM     18  F   UNL     1      48.440   2.053  16.739  0.00  0.00    +0.000 F 
ENDBRANCH   7  15
BRANCH   9  19
ATOM     19  C   UNL     1      48.469   7.549  14.994  0.00  0.00    +0.000 C 
BRANCH  19  20
ATOM     20  C   UNL     1      48.356   7.125  13.527  0.00  0.00    +0.000 C 
BRANCH  20  21
ATOM     21  N   UNL     1      46.996   7.351  13.002  0.00  0.00    +0.000 N 
ATOM     22  H   UNL     1      46.953   8.120  12.337  0.00  0.00    +0.000 HD
BRANCH  21  23
ATOM     23  C   UNL     1      46.302   6.222  12.519  0.00  0.00    +0.000 A 
ATOM     24  C   UNL     1      46.096   5.069  13.284  0.00  0.00    +0.000 A 
ATOM     25  C   UNL     1      45.356   3.988  12.795  0.00  0.00    +0.000 A 
ATOM     26  C   UNL     1      44.761   4.051  11.534  0.00  0.00    +0.000 A 
ATOM     27  C   UNL     1      44.917   5.211  10.768  0.00  0.00    +0.000 A 
ATOM     28  C   UNL     1      45.668   6.289  11.267  0.00  0.00    +0.000 A 
BRANCH  26  29
ATOM     29  C   UNL     1      43.991   2.863  11.071  0.00  0.00    +0.000 C 
ATOM     30  N   UNL     1      44.470   2.182   9.986  0.00  0.00    +0.000 N 
ATOM     31  O   UNL     1      42.945   2.530  11.608  0.00  0.00    +0.000 OA
ATOM     32  H   UNL     1      45.173   2.563   9.371  0.00  0.00    +0.000 HD
ATOM     33  H   UNL     1      43.861   1.460   9.619  0.00  0.00    +0.000 HD
ENDBRANCH  26  29
ENDBRANCH  21  23
ENDBRANCH  20  21
ENDBRANCH  19  20
ENDBRANCH   9  19
TORSDOF 6
ENDMDL
MODEL 8
REMARK VINA RESULT:    -6.102      4.587      6.443
REMARK INTER + INTRA:          -9.026
REMARK INTER:                  -8.098
REMARK INTRA:                  -0.927
REMARK UNBOUND:                -0.783
REMARK  Name = 
REMARK  8 active torsions:
REMARK  status: ('A' for Active; 'I' for Inactive)
REMARK    1  A    between atoms: C_1  and  C_2
REMARK    2  A    between atoms: C_7  and  C_8
REMARK    3  A    between atoms: C_13  and  C_14
REMARK    4  A    between atoms: C_14  and  C_15
REMARK    5  A    between atoms: C_15  and  N_16
REMARK    6  A    between atoms: N_16  and  C_17
REMARK    7  A    between atoms: C_20  and  C_21
REMARK    8  A    between atoms: C_28  and  C_29
REMARK                            x       y       z     vdW  Elec       q    Type
REMARK                         _______ _______ _______ _____ _____    ______ ____
ROOT
ATOM      1  C   UNL     1      51.614   4.639  17.332  0.00  0.00    +0.000 C 
ATOM      2  C   UNL     1      50.824   4.200  18.558  0.00  0.00    +0.000 C 
ATOM      3  C   UNL     1      49.394   4.773  18.611  0.00  0.00    +0.000 C 
ATOM      4  N   UNL     1      49.334   6.097  19.229  0.00  0.00    +0.000 N 
ATOM      5  C   UNL     1      48.973   7.202  18.489  0.00  0.00    +0.000 A 
ATOM      6  C   UNL     1      48.369   8.285  19.120  0.00  0.00    +0.000 A 
ATOM      7  C   UNL     1      47.963   9.401  18.385  0.00  0.00    +0.000 A 
ATOM      8  C   UNL     1      48.188   9.405  17.009  0.00  0.00    +0.000 A 
ATOM      9  C   UNL     1      48.808   8.306  16.426  0.00  0.00    +0.000 A 
ATOM     10  N   UNL     1      49.165   7.212  17.151  0.00  0.00    +0.000 NA
ATOM     11  C   UNL     1      50.081   6.239  20.483  0.00  0.00    +0.000 C 
ATOM     12  C   UNL     1      51.518   5.695  20.350  0.00  0.00    +0.000 C 
ATOM     13  C   UNL     1      52.472   6.666  19.661  0.00  0.00    +0.000 C 
ATOM     14  O   UNL     1      51.567   4.380  19.775  0.00  0.00    +0.000 OA
ENDROOT
BRANCH   7  15
ATOM     15  C   UNL     1      47.301  10.568  19.061  0.00  0.00    +0.000 C 
ATOM     16  F   UNL     1      48.107  11.216  19.949  0.00  0.00    +0.000 F 
ATOM     17  F   UNL     1      46.892  11.515  18.172  0.00  0.00    +0.000 F 
ATOM     18  F   UNL     1      46.191  10.207  19.760  0.00  0.00    +0.000 F 
ENDBRANCH   7  15
BRANCH   9  19
ATOM     19  C   UNL     1      49.042   8.286  14.927  0.00  0.00    +0.000 C 
BRANCH  19  20
ATOM     20  C   UNL     1      48.814   6.902  14.312  0.00  0.00    +0.000 C 
BRANCH  20  21
ATOM     21  N   UNL     1      47.470   6.384  14.629  0.00  0.00    +0.000 N 
ATOM     22  H   UNL     1      46.899   7.054  15.141  0.00  0.00    +0.000 HD
BRANCH  21  23
ATOM     23  C   UNL     1      46.742   5.802  13.571  0.00  0.00    +0.000 A 
ATOM     24  C   UNL     1      46.063   4.584  13.691  0.00  0.00    +0.000 A 
ATOM     25  C   UNL     1      45.307   4.060  12.639  0.00  0.00    +0.000 A 
ATOM     26  C   UNL     1      45.171   4.769  11.444  0.00  0.00    +0.000 A 
ATOM     27  C   UNL     1      45.805   6.009  11.316  0.00  0.00    +0.000 A 
ATOM     28  C   UNL     1      46.569   6.523  12.378  0.00  0.00    +0.000 A 
BRANCH  26  29
ATOM     29  C   UNL     1      44.355   4.152  10.362  0.00  0.00    +0.000 C 
ATOM     30  N   UNL     1      44.495   4.656   9.098  0.00  0.00    +0.000 N 
ATOM     31  O   UNL     1      43.554   3.258  10.594  0.00  0.00    +0.000 OA
ATOM     32  H   UNL     1      44.944   5.540   8.911  0.00  0.00    +0.000 HD
ATOM     33  H   UNL     1      43.839   4.305   8.411  0.00  0.00    +0.000 HD
ENDBRANCH  26  29
ENDBRANCH  21  23
ENDBRANCH  20  21
ENDBRANCH  19  20
ENDBRANCH   9  19
TORSDOF 6
ENDMDL
MODEL 9
REMARK VINA RESULT:    -6.047      3.931      5.446
REMARK INTER + INTRA:          -8.951
REMARK INTER:                  -7.881
REMARK INTRA:                  -1.070
REMARK UNBOUND:                -0.783
REMARK  Name = 
REMARK  8 active torsions:
REMARK  status: ('A' for Active; 'I' for Inactive)
REMARK    1  A    between atoms: C_1  and  C_2
REMARK    2  A    between atoms: C_7  and  C_8
REMARK    3  A    between atoms: C_13  and  C_14
REMARK    4  A    between atoms: C_14  and  C_15
REMARK    5  A    between atoms: C_15  and  N_16
REMARK    6  A    between atoms: N_16  and  C_17
REMARK    7  A    between atoms: C_20  and  C_21
REMARK    8  A    between atoms: C_28  and  C_29
REMARK                            x       y       z     vdW  Elec       q    Type
REMARK                         _______ _______ _______ _____ _____    ______ ____
ROOT
ATOM      1  C   UNL     1      48.274   8.829  17.090  0.00  0.00    +0.000 C 
ATOM      2  C   UNL     1      49.679   9.333  17.390  0.00  0.00    +0.000 C 
ATOM      3  C   UNL     1      50.357  10.024  16.191  0.00  0.00    +0.000 C 
ATOM      4  N   UNL     1      51.043   9.083  15.305  0.00  0.00    +0.000 N 
ATOM      5  C   UNL     1      50.602   8.884  14.015  0.00  0.00    +0.000 A 
ATOM      6  C   UNL     1      51.504   8.488  13.033  0.00  0.00    +0.000 A 
ATOM      7  C   UNL     1      51.087   8.313  11.712  0.00  0.00    +0.000 A 
ATOM      8  C   UNL     1      49.745   8.535  11.407  0.00  0.00    +0.000 A 
ATOM      9  C   UNL     1      48.878   8.915  12.425  0.00  0.00    +0.000 A 
ATOM     10  N   UNL     1      49.308   9.115  13.699  0.00  0.00    +0.000 NA
ATOM     11  C   UNL     1      51.887   8.090  15.978  0.00  0.00    +0.000 C 
ATOM     12  C   UNL     1      51.135   7.399  17.134  0.00  0.00    +0.000 C 
ATOM     13  C   UNL     1      50.189   6.296  16.668  0.00  0.00    +0.000 C 
ATOM     14  O   UNL     1      50.493   8.330  18.018  0.00  0.00    +0.000 OA
ENDROOT
BRANCH   7  15
ATOM     15  C   UNL     1      52.061   7.897  10.645  0.00  0.00    +0.000 C 
ATOM     16  F   UNL     1      51.560   6.973   9.778  0.00  0.00    +0.000 F 
ATOM     17  F   UNL     1      52.465   8.946   9.878  0.00  0.00    +0.000 F 
ATOM     18  F   UNL     1      53.196   7.349  11.159  0.00  0.00    +0.000 F 
ENDBRANCH   7  15
BRANCH   9  19
ATOM     19  C   UNL     1      47.419   9.178  12.106  0.00  0.00    +0.000 C 
BRANCH  19  20
ATOM     20  C   UNL     1      46.477   8.719  13.224  0.00  0.00    +0.000 C 
BRANCH  20  21
ATOM     21  N   UNL     1      46.775   7.338  13.648  0.00  0.00    +0.000 N 
ATOM     22  H   UNL     1      46.782   7.228  14.659  0.00  0.00    +0.000 HD
BRANCH  21  23
ATOM     23  C   UNL     1      46.036   6.307  13.031  0.00  0.00    +0.000 A 
ATOM     24  C   UNL     1      45.107   6.540  12.010  0.00  0.00    +0.000 A 
ATOM     25  C   UNL     1      44.430   5.490  11.382  0.00  0.00    +0.000 A 
ATOM     26  C   UNL     1      44.700   4.166  11.731  0.00  0.00    +0.000 A 
ATOM     27  C   UNL     1      45.656   3.906  12.718  0.00  0.00    +0.000 A 
ATOM     28  C   UNL     1      46.325   4.970  13.348  0.00  0.00    +0.000 A 
BRANCH  26  29
ATOM     29  C   UNL     1      43.941   3.096  11.027  0.00  0.00    +0.000 C 
ATOM     30  N   UNL     1      43.399   2.097  11.789  0.00  0.00    +0.000 N 
ATOM     31  O   UNL     1      43.838   3.079   9.809  0.00  0.00    +0.000 OA
ATOM     32  H   UNL     1      43.668   1.938  12.748  0.00  0.00    +0.000 HD
ATOM     33  H   UNL     1      43.000   1.322  11.275  0.00  0.00    +0.000 HD
ENDBRANCH  26  29
ENDBRANCH  21  23
ENDBRANCH  20  21
ENDBRANCH  19  20
ENDBRANCH   9  19
TORSDOF 6
ENDMDL
