MODEL 1
REMARK VINA RESULT:    -8.524      0.000      0.000
REMARK INTER + INTRA:         -11.007
REMARK INTER:                 -10.766
REMARK INTRA:                  -0.241
REMARK UNBOUND:                -0.241
REMARK  Name = 
REMARK  6 active torsions:
REMARK  status: ('A' for Active; 'I' for Inactive)
REMARK    1  A    between atoms: C_1  and  C_2
REMARK    2  A    between atoms: C_4  and  C_5
REMARK    3  A    between atoms: C_10  and  N_11
REMARK    4  A    between atoms: N_11  and  C_12
REMARK    5  A    between atoms: C_12  and  C_13
REMARK    6  A    between atoms: C_16  and  O_17
REMARK                            x       y       z     vdW  Elec       q    Type
REMARK                         _______ _______ _______ _____ _____    ______ ____
ROOT
ATOM      1  N   UNL     1      43.858   4.824   9.886  0.00  0.00    +0.000 N 
ATOM      2  H   UNL     1      43.604   5.713   9.470  0.00  0.00    +0.000 HD
ENDROOT
BRANCH   1   9
ATOM      3  C   UNL     1      43.912   1.934  10.035  0.00  0.00    +0.000 C 
ATOM      4  C   UNL     1      44.849   2.728   9.173  0.00  0.00    +0.000 A 
ATOM      5  C   UNL     1      45.855   2.038   8.474  0.00  0.00    +0.000 A 
ATOM      6  C   UNL     1      46.737   2.716   7.639  0.00  0.00    +0.000 A 
ATOM      7  C   UNL     1      46.548   4.084   7.527  0.00  0.00    +0.000 A 
ATOM      8  N   UNL     1      45.600   4.794   8.212  0.00  0.00    +0.000 NA
ATOM      9  C   UNL     1      44.761   4.126   9.039  0.00  0.00    +0.000 A 
BRANCH   6  10
ATOM     10  C   UNL     1      47.795   1.929   6.950  0.00  0.00    +0.000 C 
ATOM     11  N   UNL     1      48.698   2.565   6.151  0.00  0.00    +0.000 N 
ATOM     12  O   UNL     1      47.876   0.714   7.103  0.00  0.00    +0.000 OA
ATOM     13  H   UNL     1      48.761   3.559   5.997  0.00  0.00    +0.000 HD
ATOM     14  H   UNL     1      49.418   1.984   5.736  0.00  0.00    +0.000 HD
ENDBRANCH   6  10
ENDBRANCH   1   9
BRANCH   1  15
ATOM     15  C   UNL     1      43.981   4.843  11.363  0.00  0.00    +0.000 C 
ATOM     16  C   UNL     1      43.077   3.980  12.222  0.00  0.00    +0.000 C 
ATOM     17  C   UNL     1      42.811   5.443  12.145  0.00  0.00    +0.000 C 
BRANCH  15  18
ATOM     18  C   UNL     1      45.364   5.253  11.879  0.00  0.00    +0.000 A 
ATOM     19  C   UNL     1      46.001   4.546  12.915  0.00  0.00    +0.000 A 
ATOM     20  C   UNL     1      47.241   4.948  13.434  0.00  0.00    +0.000 A 
ATOM     21  C   UNL     1      47.874   6.065  12.904  0.00  0.00    +0.000 A 
ATOM     22  C   UNL     1      47.273   6.779  11.874  0.00  0.00    +0.000 A 
ATOM     23  F   UNL     1      47.867   7.865  11.361  0.00  0.00    +0.000 F 
ATOM     24  C   UNL     1      46.035   6.380  11.367  0.00  0.00    +0.000 A 
BRANCH  21  25
ATOM     25  O   UNL     1      49.084   6.479  13.387  0.00  0.00    +0.000 OA
ATOM     26  H   UNL     1      49.007   7.395  13.698  0.00  0.00    +0.000 HD
ENDBRANCH  21  25
ENDBRANCH  15  18
ENDBRANCH   1  15
TORSDOF 5
ENDMDL
MODEL 2
REMARK VINA RESULT:    -8.167      1.747      2.138
REMARK INTER + INTRA:         -10.557
REMARK INTER:                  -9.997
REMARK INTRA:                  -0.559
REMARK UNBOUND:                -0.241
REMARK  Name = 
REMARK  6 active torsions:
REMARK  status: ('A' for Active; 'I' for Inactive)
REMARK    1  A    between atoms: C_1  and  C_2
REMARK    2  A    between atoms: C_4  and  C_5
REMARK    3  A    between atoms: C_10  and  N_11
REMARK    4  A    between atoms: N_11  and  C_12
REMARK    5  A    between atoms: C_12  and  C_13
REMARK    6  A    between atoms: C_16  and  O_17
REMARK                            x       y       z     vdW  Elec       q    Type
REMARK                         _______ _______ _______ _____ _____    ______ ____
ROOT
ATOM      1  N   UNL     1      44.466   5.039  10.249  0.00  0.00    +0.000 N 
ATOM      2  H   UNL     1      43.927   5.810   9.871  0.00  0.00    +0.000 HD
ENDROOT
BRANCH   1   9
ATOM      3  C   UNL     1      44.089   2.183   9.968  0.00  0.00    +0.000 C 
ATOM      4  C   UNL     1      45.049   2.970   9.125  0.00  0.00    +0.000 A 
ATOM      5  C   UNL     1      45.865   2.271   8.218  0.00  0.00    +0.000 A 
ATOM      6  C   UNL     1      46.756   2.948   7.392  0.00  0.00    +0.000 A 
ATOM      7  C   UNL     1      46.769   4.328   7.504  0.00  0.00    +0.000 A 
ATOM      8  N   UNL     1      46.012   5.041   8.393  0.00  0.00    +0.000 NA
ATOM      9  C   UNL     1      45.165   4.370   9.208  0.00  0.00    +0.000 A 
BRANCH   6  10
ATOM     10  C   UNL     1      47.608   2.144   6.474  0.00  0.00    +0.000 C 
ATOM     11  N   UNL     1      48.175   2.739   5.387  0.00  0.00    +0.000 N 
ATOM     12  O   UNL     1      47.820   0.956   6.691  0.00  0.00    +0.000 OA
ATOM     13  H   UNL     1      48.115   3.714   5.141  0.00  0.00    +0.000 HD
ATOM     14  H   UNL     1      48.775   2.152   4.816  0.00  0.00    +0.000 HD
ENDBRANCH   6  10
ENDBRANCH   1   9
BRANCH   1  15
ATOM     15  C   UNL     1      45.050   5.290  11.588  0.00  0.00    +0.000 C 
ATOM     16  C   UNL     1      45.592   4.144  12.420  0.00  0.00    +0.000 C 
ATOM     17  C   UNL     1      44.281   4.743  12.791  0.00  0.00    +0.000 C 
BRANCH  15  18
ATOM     18  C   UNL     1      45.607   6.704  11.782  0.00  0.00    +0.000 A 
ATOM     19  C   UNL     1      46.974   6.931  12.022  0.00  0.00    +0.000 A 
ATOM     20  C   UNL     1      47.483   8.216  12.259  0.00  0.00    +0.000 A 
ATOM     21  C   UNL     1      46.622   9.307  12.240  0.00  0.00    +0.000 A 
ATOM     22  C   UNL     1      45.267   9.116  11.997  0.00  0.00    +0.000 A 
ATOM     23  F   UNL     1      44.423  10.156  11.987  0.00  0.00    +0.000 F 
ATOM     24  C   UNL     1      44.764   7.834  11.771  0.00  0.00    +0.000 A 
BRANCH  21  25
ATOM     25  O   UNL     1      47.090  10.572  12.464  0.00  0.00    +0.000 OA
ATOM     26  H   UNL     1      47.379  10.958  11.621  0.00  0.00    +0.000 HD
ENDBRANCH  21  25
ENDBRANCH  15  18
ENDBRANCH   1  15
TORSDOF 5
ENDMDL
MODEL 3
REMARK VINA RESULT:    -7.668      1.599      2.282
REMARK INTER + INTRA:          -9.926
REMARK INTER:                  -9.184
REMARK INTRA:                  -0.742
REMARK UNBOUND:                -0.241
REMARK  Name = 
REMARK  6 active torsions:
REMARK  status: ('A' for Active; 'I' for Inactive)
REMARK    1  A    between atoms: C_1  and  C_2
REMARK    2  A    between atoms: C_4  and  C_5
REMARK    3  A    between atoms: C_10  and  N_11
REMARK    4  A    between atoms: N_11  and  C_12
REMARK    5  A    between atoms: C_12  and  C_13
REMARK    6  A    between atoms: C_16  and  O_17
REMARK                            x       y       z     vdW  Elec       q    Type
REMARK                         _______ _______ _______ _____ _____    ______ ____
ROOT
ATOM      1  N   UNL     1      43.755   4.715   9.898  0.00  0.00    +0.000 N 
ATOM      2  H   UNL     1      43.728   5.486   9.240  0.00  0.00    +0.000 HD
ENDROOT
BRANCH   1   9
ATOM      3  C   UNL     1      46.250   5.442   8.623  0.00  0.00    +0.000 C 
ATOM      4  C   UNL     1      45.752   4.029   8.705  0.00  0.00    +0.000 A 
ATOM      5  C   UNL     1      46.491   3.025   8.055  0.00  0.00    +0.000 A 
ATOM      6  C   UNL     1      46.095   1.693   8.117  0.00  0.00    +0.000 A 
ATOM      7  C   UNL     1      44.959   1.425   8.864  0.00  0.00    +0.000 A 
ATOM      8  N   UNL     1      44.199   2.376   9.486  0.00  0.00    +0.000 NA
ATOM      9  C   UNL     1      44.582   3.672   9.400  0.00  0.00    +0.000 A 
BRANCH   6  10
ATOM     10  C   UNL     1      46.908   0.686   7.383  0.00  0.00    +0.000 C 
ATOM     11  N   UNL     1      46.673  -0.643   7.580  0.00  0.00    +0.000 N 
ATOM     12  O   UNL     1      47.778   1.034   6.592  0.00  0.00    +0.000 OA
ATOM     13  H   UNL     1      45.953  -1.042   8.161  0.00  0.00    +0.000 HD
ATOM     14  H   UNL     1      47.232  -1.284   7.027  0.00  0.00    +0.000 HD
ENDBRANCH   6  10
ENDBRANCH   1   9
BRANCH   1  15
ATOM     15  C   UNL     1      43.727   5.118  11.324  0.00  0.00    +0.000 C 
ATOM     16  C   UNL     1      43.043   4.243  12.358  0.00  0.00    +0.000 C 
ATOM     17  C   UNL     1      42.363   5.490  11.909  0.00  0.00    +0.000 C 
BRANCH  15  18
ATOM     18  C   UNL     1      44.871   6.046  11.744  0.00  0.00    +0.000 A 
ATOM     19  C   UNL     1      44.821   7.430  11.504  0.00  0.00    +0.000 A 
ATOM     20  C   UNL     1      45.888   8.280  11.833  0.00  0.00    +0.000 A 
ATOM     21  C   UNL     1      47.025   7.750  12.430  0.00  0.00    +0.000 A 
ATOM     22  C   UNL     1      47.100   6.385  12.688  0.00  0.00    +0.000 A 
ATOM     23  F   UNL     1      48.195   5.858  13.252  0.00  0.00    +0.000 F 
ATOM     24  C   UNL     1      46.040   5.544  12.350  0.00  0.00    +0.000 A 
BRANCH  21  25
ATOM     25  O   UNL     1      48.079   8.553  12.765  0.00  0.00    +0.000 OA
ATOM     26  H   UNL     1      48.007   8.799  13.701  0.00  0.00    +0.000 HD
ENDBRANCH  21  25
ENDBRANCH  15  18
ENDBRANCH   1  15
TORSDOF 5
ENDMDL
MODEL 4
REMARK VINA RESULT:    -6.929      2.898      6.350
REMARK INTER + INTRA:          -8.993
REMARK INTER:                  -8.696
REMARK INTRA:                  -0.297
REMARK UNBOUND:                -0.241
REMARK  Name = 
REMARK  6 active torsions:
REMARK  status: ('A' for Active; 'I' for Inactive)
REMARK    1  A    between atoms: C_1  and  C_2
REMARK    2  A    between atoms: C_4  and  C_5
REMARK    3  A    between atoms: C_10  and  N_11
REMARK    4  A    between atoms: N_11  and  C_12
REMARK    5  A    between atoms: C_12  and  C_13
REMARK    6  A    between atoms: C_16  and  O_17
REMARK                            x       y       z     vdW  Elec       q    Type
REMARK                         _______ _______ _______ _____ _____    ______ ____
ROOT
ATOM      1  N   UNL     1      45.342   4.538  12.294  0.00  0.00    +0.000 N 
ATOM      2  H   UNL     1      45.729   3.642  12.566  0.00  0.00    +0.000 HD
ENDROOT
BRANCH   1   9
ATOM      3  C   UNL     1      47.035   4.333  14.633  0.00  0.00    +0.000 C 
ATOM      4  C   UNL     1      47.049   5.518  13.712  0.00  0.00    +0.000 A 
ATOM      5  C   UNL     1      47.860   6.614  14.052  0.00  0.00    +0.000 A 
ATOM      6  C   UNL     1      47.935   7.730  13.225  0.00  0.00    +0.000 A 
ATOM      7  C   UNL     1      47.190   7.680  12.058  0.00  0.00    +0.000 A 
ATOM      8  N   UNL     1      46.369   6.645  11.707  0.00  0.00    +0.000 NA
ATOM      9  C   UNL     1      46.286   5.573  12.531  0.00  0.00    +0.000 A 
BRANCH   6  10
ATOM     10  C   UNL     1      48.792   8.867  13.659  0.00  0.00    +0.000 C 
ATOM     11  N   UNL     1      48.212  10.004  14.137  0.00  0.00    +0.000 N 
ATOM     12  O   UNL     1      50.014   8.790  13.606  0.00  0.00    +0.000 OA
ATOM     13  H   UNL     1      47.226  10.158  14.276  0.00  0.00    +0.000 HD
ATOM     14  H   UNL     1      48.844  10.732  14.451  0.00  0.00    +0.000 HD
ENDBRANCH   6  10
ENDBRANCH   1   9
BRANCH   1  15
ATOM     15  C   UNL     1      44.464   4.498  11.101  0.00  0.00    +0.000 C 
ATOM     16  C   UNL     1      43.324   5.488  10.949  0.00  0.00    +0.000 C 
ATOM     17  C   UNL     1      43.009   4.082  11.327  0.00  0.00    +0.000 C 
BRANCH  15  18
ATOM     18  C   UNL     1      45.112   3.882   9.857  0.00  0.00    +0.000 A 
ATOM     19  C   UNL     1      45.647   4.683   8.833  0.00  0.00    +0.000 A 
ATOM     20  C   UNL     1      46.190   4.129   7.663  0.00  0.00    +0.000 A 
ATOM     21  C   UNL     1      46.220   2.749   7.512  0.00  0.00    +0.000 A 
ATOM     22  C   UNL     1      45.707   1.930   8.511  0.00  0.00    +0.000 A 
ATOM     23  F   UNL     1      45.719   0.598   8.373  0.00  0.00    +0.000 F 
ATOM     24  C   UNL     1      45.160   2.487   9.667  0.00  0.00    +0.000 A 
BRANCH  21  25
ATOM     25  O   UNL     1      46.746   2.180   6.385  0.00  0.00    +0.000 OA
ATOM     26  H   UNL     1      47.478   1.594   6.637  0.00  0.00    +0.000 HD
ENDBRANCH  21  25
ENDBRANCH  15  18
ENDBRANCH   1  15
TORSDOF 5
ENDMDL
MODEL 5
REMARK VINA RESULT:    -6.734      2.822      5.896
REMARK INTER + INTRA:          -8.747
REMARK INTER:                  -8.019
REMARK INTRA:                  -0.728
REMARK UNBOUND:                -0.241
REMARK  Name = 
REMARK  6 active torsions:
REMARK  status: ('A' for Active; 'I' for Inactive)
REMARK    1  A    between atoms: C_1  and  C_2
REMARK    2  A    between atoms: C_4  and  C_5
REMARK    3  A    between atoms: C_10  and  N_11
REMARK    4  A    between atoms: N_11  and  C_12
REMARK    5  A    between atoms: C_12  and  C_13
REMARK    6  A    between atoms: C_16  and  O_17
REMARK                            x       y       z     vdW  Elec       q    Type
REMARK                         _______ _______ _______ _____ _____    ______ ____
ROOT
ATOM      1  N   UNL     1      44.590   5.573  12.891  0.00  0.00    +0.000 N 
ATOM      2  H   UNL     1      44.567   4.728  13.450  0.00  0.00    +0.000 HD
ENDROOT
BRANCH   1   9
ATOM      3  C   UNL     1      46.867   3.903  13.524  0.00  0.00    +0.000 C 
ATOM      4  C   UNL     1      46.960   5.393  13.372  0.00  0.00    +0.000 A 
ATOM      5  C   UNL     1      48.194   6.012  13.636  0.00  0.00    +0.000 A 
ATOM      6  C   UNL     1      48.349   7.387  13.488  0.00  0.00    +0.000 A 
ATOM      7  C   UNL     1      47.236   8.086  13.050  0.00  0.00    +0.000 A 
ATOM      8  N   UNL     1      46.012   7.524  12.810  0.00  0.00    +0.000 NA
ATOM      9  C   UNL     1      45.867   6.188  12.980  0.00  0.00    +0.000 A 
BRANCH   6  10
ATOM     10  C   UNL     1      49.674   7.981  13.810  0.00  0.00    +0.000 C 
ATOM     11  N   UNL     1      50.537   7.305  14.621  0.00  0.00    +0.000 N 
ATOM     12  O   UNL     1      50.008   9.065  13.345  0.00  0.00    +0.000 OA
ATOM     13  H   UNL     1      50.393   6.388  15.013  0.00  0.00    +0.000 HD
ATOM     14  H   UNL     1      51.440   7.741  14.778  0.00  0.00    +0.000 HD
ENDBRANCH   6  10
ENDBRANCH   1   9
BRANCH   1  15
ATOM     15  C   UNL     1      43.808   5.504  11.633  0.00  0.00    +0.000 C 
ATOM     16  C   UNL     1      42.957   6.678  11.189  0.00  0.00    +0.000 C 
ATOM     17  C   UNL     1      42.285   5.481  11.767  0.00  0.00    +0.000 C 
BRANCH  15  18
ATOM     18  C   UNL     1      44.367   4.529  10.592  0.00  0.00    +0.000 A 
ATOM     19  C   UNL     1      44.059   3.157  10.629  0.00  0.00    +0.000 A 
ATOM     20  C   UNL     1      44.612   2.247   9.715  0.00  0.00    +0.000 A 
ATOM     21  C   UNL     1      45.475   2.708   8.729  0.00  0.00    +0.000 A 
ATOM     22  C   UNL     1      45.792   4.060   8.661  0.00  0.00    +0.000 A 
ATOM     23  F   UNL     1      46.632   4.517   7.723  0.00  0.00    +0.000 F 
ATOM     24  C   UNL     1      45.246   4.959   9.579  0.00  0.00    +0.000 A 
BRANCH  21  25
ATOM     25  O   UNL     1      46.026   1.846   7.823  0.00  0.00    +0.000 OA
ATOM     26  H   UNL     1      46.762   2.288   7.369  0.00  0.00    +0.000 HD
ENDBRANCH  21  25
ENDBRANCH  15  18
ENDBRANCH   1  15
TORSDOF 5
ENDMDL
MODEL 6
REMARK VINA RESULT:    -6.720      4.981      7.708
REMARK INTER + INTRA:          -8.729
REMARK INTER:                  -8.154
REMARK INTRA:                  -0.575
REMARK UNBOUND:                -0.241
REMARK  Name = 
REMARK  6 active torsions:
REMARK  status: ('A' for Active; 'I' for Inactive)
REMARK    1  A    between atoms: C_1  and  C_2
REMARK    2  A    between atoms: C_4  and  C_5
REMARK    3  A    between atoms: C_10  and  N_11
REMARK    4  A    between atoms: N_11  and  C_12
REMARK    5  A    between atoms: C_12  and  C_13
REMARK    6  A    between atoms: C_16  and  O_17
REMARK                            x       y       z     vdW  Elec       q    Type
REMARK                         _______ _______ _______ _____ _____    ______ ____
ROOT
ATOM      1  N   UNL     1      47.138   5.200  15.587  0.00  0.00    +0.000 N 
ATOM      2  H   UNL     1      46.233   5.080  16.027  0.00  0.00    +0.000 HD
ENDROOT
BRANCH   1   9
ATOM      3  C   UNL     1      49.141   6.435  17.272  0.00  0.00    +0.000 C 
ATOM      4  C   UNL     1      49.126   4.968  16.956  0.00  0.00    +0.000 A 
ATOM      5  C   UNL     1      50.186   4.175  17.431  0.00  0.00    +0.000 A 
ATOM      6  C   UNL     1      50.214   2.805  17.192  0.00  0.00    +0.000 A 
ATOM      7  C   UNL     1      49.141   2.282  16.489  0.00  0.00    +0.000 A 
ATOM      8  N   UNL     1      48.108   3.024  15.988  0.00  0.00    +0.000 NA
ATOM      9  C   UNL     1      48.102   4.360  16.207  0.00  0.00    +0.000 A 
BRANCH   6  10
ATOM     10  C   UNL     1      51.379   2.030  17.700  0.00  0.00    +0.000 C 
ATOM     11  N   UNL     1      51.311   0.669  17.756  0.00  0.00    +0.000 N 
ATOM     12  O   UNL     1      52.406   2.598  18.056  0.00  0.00    +0.000 OA
ATOM     13  H   UNL     1      50.543   0.097  17.440  0.00  0.00    +0.000 HD
ATOM     14  H   UNL     1      52.146   0.191  18.076  0.00  0.00    +0.000 HD
ENDBRANCH   6  10
ENDBRANCH   1   9
BRANCH   1  15
ATOM     15  C   UNL     1      47.089   5.437  14.125  0.00  0.00    +0.000 C 
ATOM     16  C   UNL     1      48.353   5.769  13.354  0.00  0.00    +0.000 C 
ATOM     17  C   UNL     1      47.381   6.860  13.645  0.00  0.00    +0.000 C 
BRANCH  15  18
ATOM     18  C   UNL     1      45.916   4.758  13.411  0.00  0.00    +0.000 A 
ATOM     19  C   UNL     1      46.060   3.507  12.785  0.00  0.00    +0.000 A 
ATOM     20  C   UNL     1      45.008   2.904  12.079  0.00  0.00    +0.000 A 
ATOM     21  C   UNL     1      43.777   3.545  12.007  0.00  0.00    +0.000 A 
ATOM     22  C   UNL     1      43.601   4.779  12.623  0.00  0.00    +0.000 A 
ATOM     23  F   UNL     1      42.424   5.414  12.551  0.00  0.00    +0.000 F 
ATOM     24  C   UNL     1      44.654   5.378  13.315  0.00  0.00    +0.000 A 
BRANCH  21  25
ATOM     25  O   UNL     1      42.733   2.981  11.330  0.00  0.00    +0.000 OA
ATOM     26  H   UNL     1      41.900   3.359  11.656  0.00  0.00    +0.000 HD
ENDBRANCH  21  25
ENDBRANCH  15  18
ENDBRANCH   1  15
TORSDOF 5
ENDMDL
MODEL 7
REMARK VINA RESULT:    -6.308      4.091      7.346
REMARK INTER + INTRA:          -8.209
REMARK INTER:                  -8.071
REMARK INTRA:                  -0.138
REMARK UNBOUND:                -0.241
REMARK  Name = 
REMARK  6 active torsions:
REMARK  status: ('A' for Active; 'I' for Inactive)
REMARK    1  A    between atoms: C_1  and  C_2
REMARK    2  A    between atoms: C_4  and  C_5
REMARK    3  A    between atoms: C_10  and  N_11
REMARK    4  A    between atoms: N_11  and  C_12
REMARK    5  A    between atoms: C_12  and  C_13
REMARK    6  A    between atoms: C_16  and  O_17
REMARK                            x       y       z     vdW  Elec       q    Type
REMARK                         _______ _______ _______ _____ _____    ______ ____
ROOT
ATOM      1  N   UNL     1      47.457   5.879  12.885  0.00  0.00    +0.000 N 
ATOM      2  H   UNL     1      48.245   6.428  12.560  0.00  0.00    +0.000 HD
ENDROOT
BRANCH   1   9
ATOM      3  C   UNL     1      48.811   7.787  14.589  0.00  0.00    +0.000 C 
ATOM      4  C   UNL     1      48.352   6.441  15.069  0.00  0.00    +0.000 A 
ATOM      5  C   UNL     1      48.673   6.058  16.382  0.00  0.00    +0.000 A 
ATOM      6  C   UNL     1      48.253   4.833  16.892  0.00  0.00    +0.000 A 
ATOM      7  C   UNL     1      47.494   4.044  16.043  0.00  0.00    +0.000 A 
ATOM      8  N   UNL     1      47.185   4.369  14.752  0.00  0.00    +0.000 NA
ATOM      9  C   UNL     1      47.619   5.553  14.259  0.00  0.00    +0.000 A 
BRANCH   6  10
ATOM     10  C   UNL     1      48.651   4.479  18.281  0.00  0.00    +0.000 C 
ATOM     11  N   UNL     1      48.120   3.373  18.874  0.00  0.00    +0.000 N 
ATOM     12  O   UNL     1      49.464   5.161  18.896  0.00  0.00    +0.000 OA
ATOM     13  H   UNL     1      47.489   2.712  18.447  0.00  0.00    +0.000 HD
ATOM     14  H   UNL     1      48.454   3.159  19.807  0.00  0.00    +0.000 HD
ENDBRANCH   6  10
ENDBRANCH   1   9
BRANCH   1  15
ATOM     15  C   UNL     1      46.153   6.253  12.288  0.00  0.00    +0.000 C 
ATOM     16  C   UNL     1      46.023   7.507  11.446  0.00  0.00    +0.000 C 
ATOM     17  C   UNL     1      45.480   7.514  12.833  0.00  0.00    +0.000 C 
BRANCH  15  18
ATOM     18  C   UNL     1      45.200   5.076  12.058  0.00  0.00    +0.000 A 
ATOM     19  C   UNL     1      44.311   4.643  13.058  0.00  0.00    +0.000 A 
ATOM     20  C   UNL     1      43.475   3.530  12.878  0.00  0.00    +0.000 A 
ATOM     21  C   UNL     1      43.506   2.841  11.673  0.00  0.00    +0.000 A 
ATOM     22  C   UNL     1      44.368   3.250  10.662  0.00  0.00    +0.000 A 
ATOM     23  F   UNL     1      44.417   2.587   9.498  0.00  0.00    +0.000 F 
ATOM     24  C   UNL     1      45.204   4.352  10.850  0.00  0.00    +0.000 A 
BRANCH  21  25
ATOM     25  O   UNL     1      42.701   1.755  11.466  0.00  0.00    +0.000 OA
ATOM     26  H   UNL     1      41.782   1.999  11.662  0.00  0.00    +0.000 HD
ENDBRANCH  21  25
ENDBRANCH  15  18
ENDBRANCH   1  15
TORSDOF 5
ENDMDL
MODEL 8
REMARK VINA RESULT:    -6.235      3.584      5.270
REMARK INTER + INTRA:          -8.116
REMARK INTER:                  -8.018
REMARK INTRA:                  -0.098
REMARK UNBOUND:                -0.241
REMARK  Name = 
REMARK  6 active torsions:
REMARK  status: ('A' for Active; 'I' for Inactive)
REMARK    1  A    between atoms: C_1  and  C_2
REMARK    2  A    between atoms: C_4  and  C_5
REMARK    3  A    between atoms: C_10  and  N_11
REMARK    4  A    between atoms: N_11  and  C_12
REMARK    5  A    between atoms: C_12  and  C_13
REMARK    6  A    between atoms: C_16  and  O_17
REMARK                            x       y       z     vdW  Elec       q    Type
REMARK                         _______ _______ _______ _____ _____    ______ ____
ROOT
ATOM      1  N   UNL     1      46.172   5.916  13.990  0.00  0.00    +0.000 N 
ATOM      2  H   UNL     1      45.557   6.721  14.044  0.00  0.00    +0.000 HD
ENDROOT
BRANCH   1   9
ATOM      3  C   UNL     1      45.700   7.318  11.503  0.00  0.00    +0.000 C 
ATOM      4  C   UNL     1      45.559   5.831  11.645  0.00  0.00    +0.000 A 
ATOM      5  C   UNL     1      45.093   5.099  10.540  0.00  0.00    +0.000 A 
ATOM      6  C   UNL     1      44.966   3.715  10.603  0.00  0.00    +0.000 A 
ATOM      7  C   UNL     1      45.343   3.118  11.794  0.00  0.00    +0.000 A 
ATOM      8  N   UNL     1      45.775   3.798  12.899  0.00  0.00    +0.000 NA
ATOM      9  C   UNL     1      45.873   5.147  12.834  0.00  0.00    +0.000 A 
BRANCH   6  10
ATOM     10  C   UNL     1      44.439   3.005   9.406  0.00  0.00    +0.000 C 
ATOM     11  N   UNL     1      44.179   3.706   8.266  0.00  0.00    +0.000 N 
ATOM     12  O   UNL     1      44.249   1.793   9.426  0.00  0.00    +0.000 OA
ATOM     13  H   UNL     1      44.348   4.688   8.118  0.00  0.00    +0.000 HD
ATOM     14  H   UNL     1      43.856   3.165   7.471  0.00  0.00    +0.000 HD
ENDBRANCH   6  10
ENDBRANCH   1   9
BRANCH   1  15
ATOM     15  C   UNL     1      47.553   6.159  14.469  0.00  0.00    +0.000 C 
ATOM     16  C   UNL     1      48.276   7.445  14.119  0.00  0.00    +0.000 C 
ATOM     17  C   UNL     1      48.656   6.192  13.410  0.00  0.00    +0.000 C 
BRANCH  15  18
ATOM     18  C   UNL     1      47.925   5.397  15.746  0.00  0.00    +0.000 A 
ATOM     19  C   UNL     1      49.019   5.783  16.540  0.00  0.00    +0.000 A 
ATOM     20  C   UNL     1      49.403   5.057  17.679  0.00  0.00    +0.000 A 
ATOM     21  C   UNL     1      48.675   3.934  18.050  0.00  0.00    +0.000 A 
ATOM     22  C   UNL     1      47.582   3.533  17.290  0.00  0.00    +0.000 A 
ATOM     23  F   UNL     1      46.878   2.445  17.630  0.00  0.00    +0.000 F 
ATOM     24  C   UNL     1      47.211   4.253  16.154  0.00  0.00    +0.000 A 
BRANCH  21  25
ATOM     25  O   UNL     1      49.022   3.210  19.156  0.00  0.00    +0.000 OA
ATOM     26  H   UNL     1      49.459   2.390  18.875  0.00  0.00    +0.000 HD
ENDBRANCH  21  25
ENDBRANCH  15  18
ENDBRANCH   1  15
TORSDOF 5
ENDMDL
MODEL 9
REMARK VINA RESULT:    -6.208      4.721      6.657
REMARK INTER + INTRA:          -8.082
REMARK INTER:                  -7.652
REMARK INTRA:                  -0.430
REMARK UNBOUND:                -0.241
REMARK  Name = 
REMARK  6 active torsions:
REMARK  status: ('A' for Active; 'I' for Inactive)
REMARK    1  A    between atoms: C_1  and  C_2
REMARK    2  A    between atoms: C_4  and  C_5
REMARK    3  A    between atoms: C_10  and  N_11
REMARK    4  A    between atoms: N_11  and  C_12
REMARK    5  A    between atoms: C_12  and  C_13
REMARK    6  A    between atoms: C_16  and  O_17
REMARK                            x       y       z     vdW  Elec       q    Type
REMARK                         _______ _______ _______ _____ _____    ______ ____
ROOT
ATOM      1  N   UNL     1      48.388   5.883  13.939  0.00  0.00    +0.000 N 
ATOM      2  H   UNL     1      48.808   4.961  13.939  0.00  0.00    +0.000 HD
ENDROOT
BRANCH   1   9
ATOM      3  C   UNL     1      48.137   7.449  11.518  0.00  0.00    +0.000 C 
ATOM      4  C   UNL     1      46.995   6.685  12.122  0.00  0.00    +0.000 A 
ATOM      5  C   UNL     1      45.726   6.809  11.531  0.00  0.00    +0.000 A 
ATOM      6  C   UNL     1      44.635   6.106  12.030  0.00  0.00    +0.000 A 
ATOM      7  C   UNL     1      44.882   5.277  13.112  0.00  0.00    +0.000 A 
ATOM      8  N   UNL     1      46.095   5.151  13.731  0.00  0.00    +0.000 NA
ATOM      9  C   UNL     1      47.145   5.858  13.251  0.00  0.00    +0.000 A 
BRANCH   6  10
ATOM     10  C   UNL     1      43.314   6.304  11.374  0.00  0.00    +0.000 C 
ATOM     11  N   UNL     1      42.880   7.567  11.100  0.00  0.00    +0.000 N 
ATOM     12  O   UNL     1      42.616   5.345  11.063  0.00  0.00    +0.000 OA
ATOM     13  H   UNL     1      43.390   8.421  11.260  0.00  0.00    +0.000 HD
ATOM     14  H   UNL     1      41.989   7.641  10.620  0.00  0.00    +0.000 HD
ENDBRANCH   6  10
ENDBRANCH   1   9
BRANCH   1  15
ATOM     15  C   UNL     1      48.614   6.667  15.176  0.00  0.00    +0.000 C 
ATOM     16  C   UNL     1      48.358   8.162  15.200  0.00  0.00    +0.000 C 
ATOM     17  C   UNL     1      49.765   7.674  15.155  0.00  0.00    +0.000 C 
BRANCH  15  18
ATOM     18  C   UNL     1      48.510   5.853  16.470  0.00  0.00    +0.000 A 
ATOM     19  C   UNL     1      48.835   6.412  17.719  0.00  0.00    +0.000 A 
ATOM     20  C   UNL     1      48.798   5.658  18.902  0.00  0.00    +0.000 A 
ATOM     21  C   UNL     1      48.412   4.325  18.851  0.00  0.00    +0.000 A 
ATOM     22  C   UNL     1      48.076   3.747  17.632  0.00  0.00    +0.000 A 
ATOM     23  F   UNL     1      47.712   2.459  17.567  0.00  0.00    +0.000 F 
ATOM     24  C   UNL     1      48.123   4.498  16.458  0.00  0.00    +0.000 A 
BRANCH  21  25
ATOM     25  O   UNL     1      48.363   3.567  19.987  0.00  0.00    +0.000 OA
ATOM     26  H   UNL     1      47.473   3.625  20.371  0.00  0.00    +0.000 HD
ENDBRANCH  21  25
ENDBRANCH  15  18
ENDBRANCH   1  15
TORSDOF 5
ENDMDL
