MODEL 1
REMARK VINA RESULT:    -7.990      0.000      0.000
REMARK INTER + INTRA:         -11.793
REMARK INTER:                 -10.793
REMARK INTRA:                  -1.000
REMARK UNBOUND:                -1.000
REMARK  Name = 
REMARK  6 active torsions:
REMARK  status: ('A' for Active; 'I' for Inactive)
REMARK    1  A    between atoms: C_2  and  C_25
REMARK    2  A    between atoms: N_3  and  C_4
REMARK    3  A    between atoms: C_4  and  C_5
REMARK    4  A    between atoms: C_8  and  C_9
REMARK    5  A    between atoms: C_9  and  N_10
REMARK    6  A    between atoms: C_11  and  C_13
REMARK                            x       y       z     vdW  Elec       q    Type
REMARK                         _______ _______ _______ _____ _____    ______ ____
ROOT
ATOM      1  C   UNL     1      45.159   6.417  11.201  0.00  0.00    +0.000 A 
ATOM      2  C   UNL     1      44.711   7.641  11.715  0.00  0.00    +0.000 A 
ATOM      3  C   UNL     1      45.486   8.355  12.638  0.00  0.00    +0.000 A 
ATOM      4  C   UNL     1      46.732   7.869  13.053  0.00  0.00    +0.000 A 
ATOM      5  C   UNL     1      47.179   6.644  12.540  0.00  0.00    +0.000 A 
ATOM      6  C   UNL     1      46.406   5.931  11.616  0.00  0.00    +0.000 A 
ENDROOT
BRANCH   1   7
ATOM      7  C   UNL     1      44.302   5.618  10.253  0.00  0.00    +0.000 C 
BRANCH   7  10
ATOM      8  O   UNL     1      44.323   2.877   9.999  0.00  0.00    +0.000 OA
ATOM      9  C   UNL     1      45.006   3.529   9.214  0.00  0.00    +0.000 C 
ATOM     10  N   UNL     1      45.065   4.903   9.256  0.00  0.00    +0.000 N 
ATOM     11  H   UNL     1      45.607   5.419   8.583  0.00  0.00    +0.000 HD
BRANCH   9  12
ATOM     12  C   UNL     1      45.801   2.882   8.189  0.00  0.00    +0.000 A 
ATOM     13  C   UNL     1      46.346   3.325   6.995  0.00  0.00    +0.000 A 
ATOM     14  C   UNL     1      47.050   2.246   6.408  0.00  0.00    +0.000 A 
ATOM     15 CL   UNL     1      47.898   2.312   4.942  0.00  0.00    +0.000 Cl
ATOM     16  C   UNL     1      46.918   1.162   7.241  0.00  0.00    +0.000 A 
ATOM     17  N   UNL     1      46.161   1.551   8.312  0.00  0.00    +0.000 N 
ATOM     18  H   UNL     1      45.894   0.971   9.098  0.00  0.00    +0.000 HD
ENDBRANCH   9  12
ENDBRANCH   7  10
ENDBRANCH   1   7
BRANCH   4  19
ATOM     19  C   UNL     1      47.568   8.622  14.057  0.00  0.00    +0.000 C 
BRANCH  19  20
ATOM     20  N   UNL     1      47.897   7.797  15.195  0.00  0.00    +0.000 N 
ATOM     21  C   UNL     1      49.121   7.185  15.301  0.00  0.00    +0.000 C 
ATOM     22  O   UNL     1      50.009   7.362  14.471  0.00  0.00    +0.000 OA
ATOM     23  H   UNL     1      47.121   7.457  15.755  0.00  0.00    +0.000 HD
BRANCH  21  24
ATOM     24  C   UNL     1      49.340   6.352  16.491  0.00  0.00    +0.000 A 
ATOM     25  C   UNL     1      50.326   6.700  17.405  0.00  0.00    +0.000 A 
ATOM     26  S   UNL     1      50.415   5.653  18.749  0.00  0.00    +0.000 S 
ATOM     27  C   UNL     1      49.175   4.666  18.131  0.00  0.00    +0.000 A 
ATOM     28  N   UNL     1      48.771   3.552  18.798  0.00  0.00    +0.000 NA
ATOM     29  C   UNL     1      47.843   2.881  18.202  0.00  0.00    +0.000 A 
ATOM     30  N   UNL     1      47.278   3.226  17.001  0.00  0.00    +0.000 N 
ATOM     31  C   UNL     1      47.636   4.357  16.305  0.00  0.00    +0.000 A 
ATOM     32  O   UNL     1      47.082   4.658  15.253  0.00  0.00    +0.000 OA
ATOM     33  C   UNL     1      48.684   5.141  16.928  0.00  0.00    +0.000 A 
ATOM     34  H   UNL     1      46.547   2.664  16.591  0.00  0.00    +0.000 HD
ENDBRANCH  21  24
ENDBRANCH  19  20
ENDBRANCH   4  19
TORSDOF 6
ENDMDL
MODEL 2
REMARK VINA RESULT:    -7.318      5.523      9.998
REMARK INTER + INTRA:         -10.884
REMARK INTER:                 -10.076
REMARK INTRA:                  -0.808
REMARK UNBOUND:                -1.000
REMARK  Name = 
REMARK  6 active torsions:
REMARK  status: ('A' for Active; 'I' for Inactive)
REMARK    1  A    between atoms: C_2  and  C_25
REMARK    2  A    between atoms: N_3  and  C_4
REMARK    3  A    between atoms: C_4  and  C_5
REMARK    4  A    between atoms: C_8  and  C_9
REMARK    5  A    between atoms: C_9  and  N_10
REMARK    6  A    between atoms: C_11  and  C_13
REMARK                            x       y       z     vdW  Elec       q    Type
REMARK                         _______ _______ _______ _____ _____    ______ ____
ROOT
ATOM      1  C   UNL     1      51.419   3.244  17.773  0.00  0.00    +0.000 A 
ATOM      2  C   UNL     1      50.763   2.126  17.240  0.00  0.00    +0.000 A 
ATOM      3  C   UNL     1      49.389   2.165  16.972  0.00  0.00    +0.000 A 
ATOM      4  C   UNL     1      48.646   3.327  17.212  0.00  0.00    +0.000 A 
ATOM      5  C   UNL     1      49.302   4.444  17.747  0.00  0.00    +0.000 A 
ATOM      6  C   UNL     1      50.676   4.407  18.014  0.00  0.00    +0.000 A 
ENDROOT
BRANCH   1   7
ATOM      7  C   UNL     1      52.886   3.186  18.118  0.00  0.00    +0.000 C 
BRANCH   7  10
ATOM      8  O   UNL     1      54.637   1.371  17.015  0.00  0.00    +0.000 OA
ATOM      9  C   UNL     1      54.160   1.109  18.116  0.00  0.00    +0.000 C 
ATOM     10  N   UNL     1      53.276   1.948  18.753  0.00  0.00    +0.000 N 
ATOM     11  H   UNL     1      52.920   1.728  19.669  0.00  0.00    +0.000 HD
BRANCH   9  12
ATOM     12  C   UNL     1      54.501  -0.115  18.812  0.00  0.00    +0.000 A 
ATOM     13  C   UNL     1      54.421  -1.454  18.466  0.00  0.00    +0.000 A 
ATOM     14  C   UNL     1      54.921  -2.218  19.548  0.00  0.00    +0.000 A 
ATOM     15 CL   UNL     1      55.038  -3.908  19.583  0.00  0.00    +0.000 Cl
ATOM     16  C   UNL     1      55.288  -1.342  20.540  0.00  0.00    +0.000 A 
ATOM     17  N   UNL     1      55.030  -0.075  20.091  0.00  0.00    +0.000 N 
ATOM     18  H   UNL     1      55.198   0.785  20.599  0.00  0.00    +0.000 HD
ENDBRANCH   9  12
ENDBRANCH   7  10
ENDBRANCH   1   7
BRANCH   4  19
ATOM     19  C   UNL     1      47.164   3.375  16.941  0.00  0.00    +0.000 C 
BRANCH  19  20
ATOM     20  N   UNL     1      46.839   4.377  15.955  0.00  0.00    +0.000 N 
ATOM     21  C   UNL     1      46.960   4.121  14.611  0.00  0.00    +0.000 C 
ATOM     22  O   UNL     1      47.284   3.014  14.188  0.00  0.00    +0.000 OA
ATOM     23  H   UNL     1      46.800   5.340  16.274  0.00  0.00    +0.000 HD
BRANCH  21  24
ATOM     24  C   UNL     1      46.622   5.220  13.698  0.00  0.00    +0.000 A 
ATOM     25  C   UNL     1      47.554   6.219  13.445  0.00  0.00    +0.000 A 
ATOM     26  S   UNL     1      47.017   7.391  12.329  0.00  0.00    +0.000 S 
ATOM     27  C   UNL     1      45.500   6.635  12.181  0.00  0.00    +0.000 A 
ATOM     28  N   UNL     1      44.534   7.157  11.379  0.00  0.00    +0.000 NA
ATOM     29  C   UNL     1      43.424   6.499  11.384  0.00  0.00    +0.000 A 
ATOM     30  N   UNL     1      43.194   5.361  12.115  0.00  0.00    +0.000 N 
ATOM     31  C   UNL     1      44.148   4.783  12.918  0.00  0.00    +0.000 A 
ATOM     32  O   UNL     1      43.922   3.743  13.527  0.00  0.00    +0.000 OA
ATOM     33  C   UNL     1      45.412   5.492  12.956  0.00  0.00    +0.000 A 
ATOM     34  H   UNL     1      42.304   4.886  12.067  0.00  0.00    +0.000 HD
ENDBRANCH  21  24
ENDBRANCH  19  20
ENDBRANCH   4  19
TORSDOF 6
ENDMDL
MODEL 3
REMARK VINA RESULT:    -7.152      1.791      2.171
REMARK INTER + INTRA:         -10.660
REMARK INTER:                  -9.778
REMARK INTRA:                  -0.883
REMARK UNBOUND:                -1.000
REMARK  Name = 
REMARK  6 active torsions:
REMARK  status: ('A' for Active; 'I' for Inactive)
REMARK    1  A    between atoms: C_2  and  C_25
REMARK    2  A    between atoms: N_3  and  C_4
REMARK    3  A    between atoms: C_4  and  C_5
REMARK    4  A    between atoms: C_8  and  C_9
REMARK    5  A    between atoms: C_9  and  N_10
REMARK    6  A    between atoms: C_11  and  C_13
REMARK                            x       y       z     vdW  Elec       q    Type
REMARK                         _______ _______ _______ _____ _____    ______ ____
ROOT
ATOM      1  C   UNL     1      45.030   4.989  12.081  0.00  0.00    +0.000 A 
ATOM      2  C   UNL     1      44.205   6.120  12.006  0.00  0.00    +0.000 A 
ATOM      3  C   UNL     1      44.671   7.373  12.421  0.00  0.00    +0.000 A 
ATOM      4  C   UNL     1      45.978   7.528  12.902  0.00  0.00    +0.000 A 
ATOM      5  C   UNL     1      46.802   6.397  12.979  0.00  0.00    +0.000 A 
ATOM      6  C   UNL     1      46.337   5.144  12.562  0.00  0.00    +0.000 A 
ENDROOT
BRANCH   1   7
ATOM      7  C   UNL     1      44.513   3.629  11.690  0.00  0.00    +0.000 C 
BRANCH   7  10
ATOM      8  O   UNL     1      44.138   4.236   9.032  0.00  0.00    +0.000 OA
ATOM      9  C   UNL     1      44.991   3.397   9.312  0.00  0.00    +0.000 C 
ATOM     10  N   UNL     1      45.255   3.023  10.609  0.00  0.00    +0.000 N 
ATOM     11  H   UNL     1      45.980   2.356  10.818  0.00  0.00    +0.000 HD
BRANCH   9  12
ATOM     12  C   UNL     1      45.773   2.745   8.281  0.00  0.00    +0.000 A 
ATOM     13  C   UNL     1      46.361   3.197   7.111  0.00  0.00    +0.000 A 
ATOM     14  C   UNL     1      47.025   2.104   6.503  0.00  0.00    +0.000 A 
ATOM     15 CL   UNL     1      47.903   2.174   5.055  0.00  0.00    +0.000 Cl
ATOM     16  C   UNL     1      46.826   1.003   7.299  0.00  0.00    +0.000 A 
ATOM     17  N   UNL     1      46.068   1.395   8.369  0.00  0.00    +0.000 N 
ATOM     18  H   UNL     1      45.759   0.804   9.132  0.00  0.00    +0.000 HD
ENDBRANCH   9  12
ENDBRANCH   7  10
ENDBRANCH   1   7
BRANCH   4  19
ATOM     19  C   UNL     1      46.485   8.870  13.366  0.00  0.00    +0.000 C 
BRANCH  19  20
ATOM     20  N   UNL     1      47.088   8.784  14.674  0.00  0.00    +0.000 N 
ATOM     21  C   UNL     1      48.420   9.059  14.865  0.00  0.00    +0.000 C 
ATOM     22  O   UNL     1      49.139   9.451  13.950  0.00  0.00    +0.000 OA
ATOM     23  H   UNL     1      46.586   8.250  15.377  0.00  0.00    +0.000 HD
BRANCH  21  24
ATOM     24  C   UNL     1      48.932   8.919  16.234  0.00  0.00    +0.000 A 
ATOM     25  C   UNL     1      49.256  10.052  16.969  0.00  0.00    +0.000 A 
ATOM     26  S   UNL     1      49.792   9.713  18.552  0.00  0.00    +0.000 S 
ATOM     27  C   UNL     1      49.658   8.036  18.296  0.00  0.00    +0.000 A 
ATOM     28  N   UNL     1      49.997   7.151  19.272  0.00  0.00    +0.000 NA
ATOM     29  C   UNL     1      49.875   5.911  18.933  0.00  0.00    +0.000 A 
ATOM     30  N   UNL     1      49.440   5.476  17.708  0.00  0.00    +0.000 N 
ATOM     31  C   UNL     1      49.062   6.333  16.701  0.00  0.00    +0.000 A 
ATOM     32  O   UNL     1      48.639   5.911  15.630  0.00  0.00    +0.000 OA
ATOM     33  C   UNL     1      49.191   7.740  17.028  0.00  0.00    +0.000 A 
ATOM     34  H   UNL     1      49.356   4.491  17.507  0.00  0.00    +0.000 HD
ENDBRANCH  21  24
ENDBRANCH  19  20
ENDBRANCH   4  19
TORSDOF 6
ENDMDL
MODEL 4
REMARK VINA RESULT:    -7.111      2.179      2.477
REMARK INTER + INTRA:         -10.605
REMARK INTER:                  -9.853
REMARK INTRA:                  -0.753
REMARK UNBOUND:                -1.000
REMARK  Name = 
REMARK  6 active torsions:
REMARK  status: ('A' for Active; 'I' for Inactive)
REMARK    1  A    between atoms: C_2  and  C_25
REMARK    2  A    between atoms: N_3  and  C_4
REMARK    3  A    between atoms: C_4  and  C_5
REMARK    4  A    between atoms: C_8  and  C_9
REMARK    5  A    between atoms: C_9  and  N_10
REMARK    6  A    between atoms: C_11  and  C_13
REMARK                            x       y       z     vdW  Elec       q    Type
REMARK                         _______ _______ _______ _____ _____    ______ ____
ROOT
ATOM      1  C   UNL     1      45.618   6.567  11.919  0.00  0.00    +0.000 A 
ATOM      2  C   UNL     1      46.958   6.243  12.169  0.00  0.00    +0.000 A 
ATOM      3  C   UNL     1      47.781   7.116  12.893  0.00  0.00    +0.000 A 
ATOM      4  C   UNL     1      47.276   8.321  13.398  0.00  0.00    +0.000 A 
ATOM      5  C   UNL     1      45.936   8.644  13.146  0.00  0.00    +0.000 A 
ATOM      6  C   UNL     1      45.113   7.772  12.425  0.00  0.00    +0.000 A 
ENDROOT
BRANCH   1   7
ATOM      7  C   UNL     1      44.746   5.657  11.091  0.00  0.00    +0.000 C 
BRANCH   7  10
ATOM      8  O   UNL     1      43.652   4.380   8.912  0.00  0.00    +0.000 OA
ATOM      9  C   UNL     1      44.851   4.224   9.123  0.00  0.00    +0.000 C 
ATOM     10  N   UNL     1      45.494   4.817  10.185  0.00  0.00    +0.000 N 
ATOM     11  H   UNL     1      46.485   4.700  10.322  0.00  0.00    +0.000 HD
BRANCH   9  12
ATOM     12  C   UNL     1      45.667   3.393   8.259  0.00  0.00    +0.000 A 
ATOM     13  C   UNL     1      46.369   3.646   7.092  0.00  0.00    +0.000 A 
ATOM     14  C   UNL     1      47.006   2.446   6.695  0.00  0.00    +0.000 A 
ATOM     15 CL   UNL     1      47.994   2.267   5.330  0.00  0.00    +0.000 Cl
ATOM     16  C   UNL     1      46.678   1.479   7.613  0.00  0.00    +0.000 A 
ATOM     17  N   UNL     1      45.868   2.056   8.553  0.00  0.00    +0.000 N 
ATOM     18  H   UNL     1      45.465   1.594   9.360  0.00  0.00    +0.000 HD
ENDBRANCH   9  12
ENDBRANCH   7  10
ENDBRANCH   1   7
BRANCH   4  19
ATOM     19  C   UNL     1      48.157   9.274  14.165  0.00  0.00    +0.000 C 
BRANCH  19  20
ATOM     20  N   UNL     1      47.865   9.241  15.578  0.00  0.00    +0.000 N 
ATOM     21  C   UNL     1      48.660   8.543  16.454  0.00  0.00    +0.000 C 
ATOM     22  O   UNL     1      49.685   7.973  16.088  0.00  0.00    +0.000 OA
ATOM     23  H   UNL     1      46.924   9.498  15.859  0.00  0.00    +0.000 HD
BRANCH  21  24
ATOM     24  C   UNL     1      48.258   8.562  17.866  0.00  0.00    +0.000 A 
ATOM     25  C   UNL     1      48.112   9.775  18.527  0.00  0.00    +0.000 A 
ATOM     26  S   UNL     1      47.598   9.617  20.145  0.00  0.00    +0.000 S 
ATOM     27  C   UNL     1      47.601   7.919  20.038  0.00  0.00    +0.000 A 
ATOM     28  N   UNL     1      47.274   7.150  21.111  0.00  0.00    +0.000 NA
ATOM     29  C   UNL     1      47.347   5.879  20.898  0.00  0.00    +0.000 A 
ATOM     30  N   UNL     1      47.712   5.307  19.707  0.00  0.00    +0.000 N 
ATOM     31  C   UNL     1      48.025   6.043  18.588  0.00  0.00    +0.000 A 
ATOM     32  O   UNL     1      48.308   5.499  17.526  0.00  0.00    +0.000 OA
ATOM     33  C   UNL     1      47.969   7.480  18.779  0.00  0.00    +0.000 A 
ATOM     34  H   UNL     1      47.740   4.303  19.601  0.00  0.00    +0.000 HD
ENDBRANCH  21  24
ENDBRANCH  19  20
ENDBRANCH   4  19
TORSDOF 6
ENDMDL
MODEL 5
REMARK VINA RESULT:    -6.497      1.879      2.176
REMARK INTER + INTRA:          -9.775
REMARK INTER:                  -9.097
REMARK INTRA:                  -0.678
REMARK UNBOUND:                -1.000
REMARK  Name = 
REMARK  6 active torsions:
REMARK  status: ('A' for Active; 'I' for Inactive)
REMARK    1  A    between atoms: C_2  and  C_25
REMARK    2  A    between atoms: N_3  and  C_4
REMARK    3  A    between atoms: C_4  and  C_5
REMARK    4  A    between atoms: C_8  and  C_9
REMARK    5  A    between atoms: C_9  and  N_10
REMARK    6  A    between atoms: C_11  and  C_13
REMARK                            x       y       z     vdW  Elec       q    Type
REMARK                         _______ _______ _______ _____ _____    ______ ____
ROOT
ATOM      1  C   UNL     1      45.630   5.936  12.399  0.00  0.00    +0.000 A 
ATOM      2  C   UNL     1      45.342   7.305  12.487  0.00  0.00    +0.000 A 
ATOM      3  C   UNL     1      46.173   8.164  13.218  0.00  0.00    +0.000 A 
ATOM      4  C   UNL     1      47.318   7.676  13.860  0.00  0.00    +0.000 A 
ATOM      5  C   UNL     1      47.604   6.307  13.773  0.00  0.00    +0.000 A 
ATOM      6  C   UNL     1      46.775   5.449  13.042  0.00  0.00    +0.000 A 
ENDROOT
BRANCH   1   7
ATOM      7  C   UNL     1      44.706   5.000  11.663  0.00  0.00    +0.000 C 
BRANCH   7  10
ATOM      8  O   UNL     1      43.823   4.639   9.081  0.00  0.00    +0.000 OA
ATOM      9  C   UNL     1      44.857   4.069   9.416  0.00  0.00    +0.000 C 
ATOM     10  N   UNL     1      45.383   4.183  10.682  0.00  0.00    +0.000 N 
ATOM     11  H   UNL     1      46.249   3.731  10.926  0.00  0.00    +0.000 HD
BRANCH   9  12
ATOM     12  C   UNL     1      45.589   3.230   8.488  0.00  0.00    +0.000 A 
ATOM     13  C   UNL     1      46.242   3.488   7.293  0.00  0.00    +0.000 A 
ATOM     14  C   UNL     1      46.804   2.274   6.830  0.00  0.00    +0.000 A 
ATOM     15 CL   UNL     1      47.712   2.093   5.410  0.00  0.00    +0.000 Cl
ATOM     16  C   UNL     1      46.481   1.294   7.737  0.00  0.00    +0.000 A 
ATOM     17  N   UNL     1      45.746   1.877   8.733  0.00  0.00    +0.000 N 
ATOM     18  H   UNL     1      45.365   1.409   9.547  0.00  0.00    +0.000 HD
ENDBRANCH   9  12
ENDBRANCH   7  10
ENDBRANCH   1   7
BRANCH   4  19
ATOM     19  C   UNL     1      48.211   8.590  14.661  0.00  0.00    +0.000 C 
BRANCH  19  20
ATOM     20  N   UNL     1      49.415   7.915  15.082  0.00  0.00    +0.000 N 
ATOM     21  C   UNL     1      49.568   7.466  16.370  0.00  0.00    +0.000 C 
ATOM     22  O   UNL     1      48.668   7.558  17.201  0.00  0.00    +0.000 OA
ATOM     23  H   UNL     1      50.237   8.036  14.498  0.00  0.00    +0.000 HD
BRANCH  21  24
ATOM     24  C   UNL     1      50.843   6.812  16.693  0.00  0.00    +0.000 A 
ATOM     25  C   UNL     1      52.038   7.488  16.482  0.00  0.00    +0.000 A 
ATOM     26  S   UNL     1      53.419   6.603  16.951  0.00  0.00    +0.000 S 
ATOM     27  C   UNL     1      52.472   5.264  17.407  0.00  0.00    +0.000 A 
ATOM     28  N   UNL     1      53.051   4.128  17.882  0.00  0.00    +0.000 NA
ATOM     29  C   UNL     1      52.218   3.182  18.160  0.00  0.00    +0.000 A 
ATOM     30  N   UNL     1      50.858   3.271  18.012  0.00  0.00    +0.000 N 
ATOM     31  C   UNL     1      50.227   4.406  17.561  0.00  0.00    +0.000 A 
ATOM     32  O   UNL     1      49.005   4.466  17.479  0.00  0.00    +0.000 OA
ATOM     33  C   UNL     1      51.121   5.497  17.223  0.00  0.00    +0.000 A 
ATOM     34  H   UNL     1      50.258   2.497  18.258  0.00  0.00    +0.000 HD
ENDBRANCH  21  24
ENDBRANCH  19  20
ENDBRANCH   4  19
TORSDOF 6
ENDMDL
MODEL 6
REMARK VINA RESULT:    -6.164      5.822      9.500
REMARK INTER + INTRA:          -9.325
REMARK INTER:                  -8.897
REMARK INTRA:                  -0.428
REMARK UNBOUND:                -1.000
REMARK  Name = 
REMARK  6 active torsions:
REMARK  status: ('A' for Active; 'I' for Inactive)
REMARK    1  A    between atoms: C_2  and  C_25
REMARK    2  A    between atoms: N_3  and  C_4
REMARK    3  A    between atoms: C_4  and  C_5
REMARK    4  A    between atoms: C_8  and  C_9
REMARK    5  A    between atoms: C_9  and  N_10
REMARK    6  A    between atoms: C_11  and  C_13
REMARK                            x       y       z     vdW  Elec       q    Type
REMARK                         _______ _______ _______ _____ _____    ______ ____
ROOT
ATOM      1  C   UNL     1      52.366   2.479  17.753  0.00  0.00    +0.000 A 
ATOM      2  C   UNL     1      51.422   1.537  17.323  0.00  0.00    +0.000 A 
ATOM      3  C   UNL     1      50.063   1.868  17.252  0.00  0.00    +0.000 A 
ATOM      4  C   UNL     1      49.621   3.153  17.590  0.00  0.00    +0.000 A 
ATOM      5  C   UNL     1      50.565   4.094  18.022  0.00  0.00    +0.000 A 
ATOM      6  C   UNL     1      51.924   3.765  18.092  0.00  0.00    +0.000 A 
ENDROOT
BRANCH   1   7
ATOM      7  C   UNL     1      53.821   2.108  17.887  0.00  0.00    +0.000 C 
BRANCH   7  10
ATOM      8  O   UNL     1      55.370   1.147  15.824  0.00  0.00    +0.000 OA
ATOM      9  C   UNL     1      54.868   0.330  16.591  0.00  0.00    +0.000 C 
ATOM     10  N   UNL     1      54.077   0.706  17.652  0.00  0.00    +0.000 N 
ATOM     11  H   UNL     1      53.701   0.021  18.286  0.00  0.00    +0.000 HD
BRANCH   9  12
ATOM     12  C   UNL     1      55.077  -1.094  16.417  0.00  0.00    +0.000 A 
ATOM     13  C   UNL     1      54.961  -2.178  17.272  0.00  0.00    +0.000 A 
ATOM     14  C   UNL     1      55.277  -3.348  16.540  0.00  0.00    +0.000 A 
ATOM     15 CL   UNL     1      55.258  -4.925  17.161  0.00  0.00    +0.000 Cl
ATOM     16  C   UNL     1      55.591  -2.965  15.260  0.00  0.00    +0.000 A 
ATOM     17  N   UNL     1      55.472  -1.604  15.192  0.00  0.00    +0.000 N 
ATOM     18  H   UNL     1      55.636  -1.029  14.375  0.00  0.00    +0.000 HD
ENDBRANCH   9  12
ENDBRANCH   7  10
ENDBRANCH   1   7
BRANCH   4  19
ATOM     19  C   UNL     1      48.159   3.516  17.531  0.00  0.00    +0.000 C 
BRANCH  19  20
ATOM     20  N   UNL     1      47.893   4.471  16.482  0.00  0.00    +0.000 N 
ATOM     21  C   UNL     1      47.640   4.063  15.195  0.00  0.00    +0.000 C 
ATOM     22  O   UNL     1      47.563   2.876  14.894  0.00  0.00    +0.000 OA
ATOM     23  H   UNL     1      48.177   5.431  16.652  0.00  0.00    +0.000 HD
BRANCH  21  24
ATOM     24  C   UNL     1      47.403   5.121  14.204  0.00  0.00    +0.000 A 
ATOM     25  C   UNL     1      48.042   6.348  14.337  0.00  0.00    +0.000 A 
ATOM     26  S   UNL     1      47.692   7.444  13.079  0.00  0.00    +0.000 S 
ATOM     27  C   UNL     1      46.633   6.338  12.337  0.00  0.00    +0.000 A 
ATOM     28  N   UNL     1      45.962   6.667  11.200  0.00  0.00    +0.000 NA
ATOM     29  C   UNL     1      45.171   5.745  10.763  0.00  0.00    +0.000 A 
ATOM     30  N   UNL     1      44.994   4.522  11.355  0.00  0.00    +0.000 N 
ATOM     31  C   UNL     1      45.670   4.136  12.489  0.00  0.00    +0.000 A 
ATOM     32  O   UNL     1      45.518   3.018  12.971  0.00  0.00    +0.000 OA
ATOM     33  C   UNL     1      46.564   5.141  13.028  0.00  0.00    +0.000 A 
ATOM     34  H   UNL     1      44.366   3.839  10.957  0.00  0.00    +0.000 HD
ENDBRANCH  21  24
ENDBRANCH  19  20
ENDBRANCH   4  19
TORSDOF 6
ENDMDL
MODEL 7
REMARK VINA RESULT:    -5.936      1.878      2.590
REMARK INTER + INTRA:          -9.018
REMARK INTER:                  -8.225
REMARK INTRA:                  -0.793
REMARK UNBOUND:                -1.000
REMARK  Name = 
REMARK  6 active torsions:
REMARK  status: ('A' for Active; 'I' for Inactive)
REMARK    1  A    between atoms: C_2  and  C_25
REMARK    2  A    between atoms: N_3  and  C_4
REMARK    3  A    between atoms: C_4  and  C_5
REMARK    4  A    between atoms: C_8  and  C_9
REMARK    5  A    between atoms: C_9  and  N_10
REMARK    6  A    between atoms: C_11  and  C_13
REMARK                            x       y       z     vdW  Elec       q    Type
REMARK                         _______ _______ _______ _____ _____    ______ ____
ROOT
ATOM      1  C   UNL     1      46.423   7.727  12.312  0.00  0.00    +0.000 A 
ATOM      2  C   UNL     1      47.686   7.376  11.818  0.00  0.00    +0.000 A 
ATOM      3  C   UNL     1      48.850   7.765  12.492  0.00  0.00    +0.000 A 
ATOM      4  C   UNL     1      48.776   8.497  13.684  0.00  0.00    +0.000 A 
ATOM      5  C   UNL     1      47.512   8.849  14.177  0.00  0.00    +0.000 A 
ATOM      6  C   UNL     1      46.348   8.459  13.505  0.00  0.00    +0.000 A 
ENDROOT
BRANCH   1   7
ATOM      7  C   UNL     1      45.170   7.360  11.558  0.00  0.00    +0.000 C 
BRANCH   7  10
ATOM      8  O   UNL     1      43.740   5.009  11.587  0.00  0.00    +0.000 OA
ATOM      9  C   UNL     1      44.596   5.146  10.717  0.00  0.00    +0.000 C 
ATOM     10  N   UNL     1      45.365   6.282  10.616  0.00  0.00    +0.000 N 
ATOM     11  H   UNL     1      46.040   6.387   9.876  0.00  0.00    +0.000 HD
BRANCH   9  12
ATOM     12  C   UNL     1      44.850   4.107   9.740  0.00  0.00    +0.000 A 
ATOM     13  C   UNL     1      45.493   2.882   9.807  0.00  0.00    +0.000 A 
ATOM     14  C   UNL     1      45.419   2.277   8.530  0.00  0.00    +0.000 A 
ATOM     15 CL   UNL     1      46.053   0.757   8.127  0.00  0.00    +0.000 Cl
ATOM     16  C   UNL     1      44.745   3.139   7.700  0.00  0.00    +0.000 A 
ATOM     17  N   UNL     1      44.407   4.243   8.435  0.00  0.00    +0.000 N 
ATOM     18  H   UNL     1      43.900   5.053   8.099  0.00  0.00    +0.000 HD
ENDBRANCH   9  12
ENDBRANCH   7  10
ENDBRANCH   1   7
BRANCH   4  19
ATOM     19  C   UNL     1      50.023   8.934  14.411  0.00  0.00    +0.000 C 
BRANCH  19  20
ATOM     20  N   UNL     1      49.934   8.661  15.825  0.00  0.00    +0.000 N 
ATOM     21  C   UNL     1      50.278   7.434  16.337  0.00  0.00    +0.000 C 
ATOM     22  O   UNL     1      50.735   6.540  15.629  0.00  0.00    +0.000 OA
ATOM     23  H   UNL     1      49.354   9.284  16.377  0.00  0.00    +0.000 HD
BRANCH  21  24
ATOM     24  C   UNL     1      50.129   7.260  17.788  0.00  0.00    +0.000 A 
ATOM     25  C   UNL     1      50.702   8.181  18.656  0.00  0.00    +0.000 A 
ATOM     26  S   UNL     1      50.395   7.855  20.301  0.00  0.00    +0.000 S 
ATOM     27  C   UNL     1      49.527   6.443  19.916  0.00  0.00    +0.000 A 
ATOM     28  N   UNL     1      49.001   5.657  20.894  0.00  0.00    +0.000 NA
ATOM     29  C   UNL     1      48.395   4.603  20.461  0.00  0.00    +0.000 A 
ATOM     30  N   UNL     1      48.261   4.266  19.139  0.00  0.00    +0.000 N 
ATOM     31  C   UNL     1      48.753   5.042  18.117  0.00  0.00    +0.000 A 
ATOM     32  O   UNL     1      48.582   4.732  16.943  0.00  0.00    +0.000 OA
ATOM     33  C   UNL     1      49.455   6.235  18.550  0.00  0.00    +0.000 A 
ATOM     34  H   UNL     1      47.765   3.431  18.865  0.00  0.00    +0.000 HD
ENDBRANCH  21  24
ENDBRANCH  19  20
ENDBRANCH   4  19
TORSDOF 6
ENDMDL
MODEL 8
REMARK VINA RESULT:    -5.884      3.586      4.879
REMARK INTER + INTRA:          -8.948
REMARK INTER:                  -7.867
REMARK INTRA:                  -1.081
REMARK UNBOUND:                -1.000
REMARK  Name = 
REMARK  6 active torsions:
REMARK  status: ('A' for Active; 'I' for Inactive)
REMARK    1  A    between atoms: C_2  and  C_25
REMARK    2  A    between atoms: N_3  and  C_4
REMARK    3  A    between atoms: C_4  and  C_5
REMARK    4  A    between atoms: C_8  and  C_9
REMARK    5  A    between atoms: C_9  and  N_10
REMARK    6  A    between atoms: C_11  and  C_13
REMARK                            x       y       z     vdW  Elec       q    Type
REMARK                         _______ _______ _______ _____ _____    ______ ____
ROOT
ATOM      1  C   UNL     1      45.678   5.624  12.345  0.00  0.00    +0.000 A 
ATOM      2  C   UNL     1      45.995   6.989  12.325  0.00  0.00    +0.000 A 
ATOM      3  C   UNL     1      46.987   7.506  13.169  0.00  0.00    +0.000 A 
ATOM      4  C   UNL     1      47.696   6.665  14.036  0.00  0.00    +0.000 A 
ATOM      5  C   UNL     1      47.378   5.301  14.057  0.00  0.00    +0.000 A 
ATOM      6  C   UNL     1      46.388   4.784  13.213  0.00  0.00    +0.000 A 
ENDROOT
BRANCH   1   7
ATOM      7  C   UNL     1      44.572   5.076  11.481  0.00  0.00    +0.000 C 
BRANCH   7  10
ATOM      8  O   UNL     1      45.782   5.857   9.136  0.00  0.00    +0.000 OA
ATOM      9  C   UNL     1      45.632   4.653   9.328  0.00  0.00    +0.000 C 
ATOM     10  N   UNL     1      45.038   4.159  10.467  0.00  0.00    +0.000 N 
ATOM     11  H   UNL     1      44.953   3.168  10.618  0.00  0.00    +0.000 HD
BRANCH   9  12
ATOM     12  C   UNL     1      46.071   3.674   8.355  0.00  0.00    +0.000 A 
ATOM     13  C   UNL     1      46.699   3.780   7.124  0.00  0.00    +0.000 A 
ATOM     14  C   UNL     1      46.905   2.472   6.623  0.00  0.00    +0.000 A 
ATOM     15 CL   UNL     1      47.655   2.094   5.151  0.00  0.00    +0.000 Cl
ATOM     16  C   UNL     1      46.394   1.590   7.544  0.00  0.00    +0.000 A 
ATOM     17  N   UNL     1      45.891   2.321   8.584  0.00  0.00    +0.000 N 
ATOM     18  H   UNL     1      45.449   1.951   9.418  0.00  0.00    +0.000 HD
ENDBRANCH   9  12
ENDBRANCH   7  10
ENDBRANCH   1   7
BRANCH   4  19
ATOM     19  C   UNL     1      48.755   7.212  14.959  0.00  0.00    +0.000 C 
BRANCH  19  20
ATOM     20  N   UNL     1      50.013   7.390  14.274  0.00  0.00    +0.000 N 
ATOM     21  C   UNL     1      50.588   8.631  14.151  0.00  0.00    +0.000 C 
ATOM     22  O   UNL     1      50.097   9.629  14.671  0.00  0.00    +0.000 OA
ATOM     23  H   UNL     1      50.307   6.643  13.652  0.00  0.00    +0.000 HD
BRANCH  21  24
ATOM     24  C   UNL     1      51.858   8.698  13.416  0.00  0.00    +0.000 A 
ATOM     25  C   UNL     1      52.990   9.208  14.038  0.00  0.00    +0.000 A 
ATOM     26  S   UNL     1      54.386   9.171  13.059  0.00  0.00    +0.000 S 
ATOM     27  C   UNL     1      53.517   8.519  11.750  0.00  0.00    +0.000 A 
ATOM     28  N   UNL     1      54.130   8.264  10.562  0.00  0.00    +0.000 NA
ATOM     29  C   UNL     1      53.346   7.799   9.648  0.00  0.00    +0.000 A 
ATOM     30  N   UNL     1      52.006   7.561   9.815  0.00  0.00    +0.000 N 
ATOM     31  C   UNL     1      51.351   7.779  11.004  0.00  0.00    +0.000 A 
ATOM     32  O   UNL     1      50.160   7.517  11.131  0.00  0.00    +0.000 OA
ATOM     33  C   UNL     1      52.186   8.313  12.062  0.00  0.00    +0.000 A 
ATOM     34  H   UNL     1      51.449   7.186   9.061  0.00  0.00    +0.000 HD
ENDBRANCH  21  24
ENDBRANCH  19  20
ENDBRANCH   4  19
TORSDOF 6
ENDMDL
MODEL 9
REMARK VINA RESULT:    -5.285      6.134      9.640
REMARK INTER + INTRA:          -8.139
REMARK INTER:                  -7.408
REMARK INTRA:                  -0.731
REMARK UNBOUND:                -1.000
REMARK  Name = 
REMARK  6 active torsions:
REMARK  status: ('A' for Active; 'I' for Inactive)
REMARK    1  A    between atoms: C_2  and  C_25
REMARK    2  A    between atoms: N_3  and  C_4
REMARK    3  A    between atoms: C_4  and  C_5
REMARK    4  A    between atoms: C_8  and  C_9
REMARK    5  A    between atoms: C_9  and  N_10
REMARK    6  A    between atoms: C_11  and  C_13
REMARK                            x       y       z     vdW  Elec       q    Type
REMARK                         _______ _______ _______ _____ _____    ______ ____
ROOT
ATOM      1  C   UNL     1      52.841   1.965  17.748  0.00  0.00    +0.000 A 
ATOM      2  C   UNL     1      51.764   1.143  17.389  0.00  0.00    +0.000 A 
ATOM      3  C   UNL     1      50.453   1.637  17.402  0.00  0.00    +0.000 A 
ATOM      4  C   UNL     1      50.194   2.967  17.756  0.00  0.00    +0.000 A 
ATOM      5  C   UNL     1      51.271   3.787  18.117  0.00  0.00    +0.000 A 
ATOM      6  C   UNL     1      52.581   3.295  18.102  0.00  0.00    +0.000 A 
ENDROOT
BRANCH   1   7
ATOM      7  C   UNL     1      54.246   1.420  17.792  0.00  0.00    +0.000 C 
BRANCH   7  10
ATOM      8  O   UNL     1      55.490   0.318  15.598  0.00  0.00    +0.000 OA
ATOM      9  C   UNL     1      54.964  -0.448  16.401  0.00  0.00    +0.000 C 
ATOM     10  N   UNL     1      54.318   0.001  17.529  0.00  0.00    +0.000 N 
ATOM     11  H   UNL     1      53.921  -0.645  18.191  0.00  0.00    +0.000 HD
BRANCH   9  12
ATOM     12  C   UNL     1      54.993  -1.883  16.204  0.00  0.00    +0.000 A 
ATOM     13  C   UNL     1      55.587  -2.922  16.902  0.00  0.00    +0.000 A 
ATOM     14  C   UNL     1      55.255  -4.134  16.249  0.00  0.00    +0.000 A 
ATOM     15 CL   UNL     1      55.742  -5.679  16.747  0.00  0.00    +0.000 Cl
ATOM     16  C   UNL     1      54.476  -3.821  15.162  0.00  0.00    +0.000 A 
ATOM     17  N   UNL     1      54.324  -2.461  15.139  0.00  0.00    +0.000 N 
ATOM     18  H   UNL     1      53.798  -1.930  14.455  0.00  0.00    +0.000 HD
ENDBRANCH   9  12
ENDBRANCH   7  10
ENDBRANCH   1   7
BRANCH   4  19
ATOM     19  C   UNL     1      48.785   3.505  17.788  0.00  0.00    +0.000 C 
BRANCH  19  20
ATOM     20  N   UNL     1      48.334   3.883  16.471  0.00  0.00    +0.000 N 
ATOM     21  C   UNL     1      48.012   5.185  16.175  0.00  0.00    +0.000 C 
ATOM     22  O   UNL     1      48.153   6.091  16.992  0.00  0.00    +0.000 OA
ATOM     23  H   UNL     1      47.994   3.139  15.870  0.00  0.00    +0.000 HD
BRANCH  21  24
ATOM     24  C   UNL     1      47.544   5.453  14.808  0.00  0.00    +0.000 A 
ATOM     25  C   UNL     1      46.434   4.781  14.314  0.00  0.00    +0.000 A 
ATOM     26  S   UNL     1      46.001   5.243  12.730  0.00  0.00    +0.000 S 
ATOM     27  C   UNL     1      47.312   6.323  12.629  0.00  0.00    +0.000 A 
ATOM     28  N   UNL     1      47.541   7.041  11.496  0.00  0.00    +0.000 NA
ATOM     29  C   UNL     1      48.586   7.797  11.547  0.00  0.00    +0.000 A 
ATOM     30  N   UNL     1      49.420   7.905  12.629  0.00  0.00    +0.000 N 
ATOM     31  C   UNL     1      49.214   7.220  13.803  0.00  0.00    +0.000 A 
ATOM     32  O   UNL     1      49.957   7.370  14.767  0.00  0.00    +0.000 OA
ATOM     33  C   UNL     1      48.057   6.345  13.794  0.00  0.00    +0.000 A 
ATOM     34  H   UNL     1      50.217   8.525  12.609  0.00  0.00    +0.000 HD
ENDBRANCH  21  24
ENDBRANCH  19  20
ENDBRANCH   4  19
TORSDOF 6
ENDMDL
